MODEL 1
REMARK VINA RESULT:      -9.2      0.000      0.000
REMARK  Name = 
REMARK  6 active torsions:
REMARK  status: ('A' for Active; 'I' for Inactive)
REMARK    1  A    between atoms: C_1  and  C_2
REMARK    2  A    between atoms: C_7  and  N_8
REMARK    3  A    between atoms: C_9  and  C_11
REMARK    4  A    between atoms: C_11  and  O_12
REMARK    5  A    between atoms: O_12  and  C_13
REMARK    6  A    between atoms: C_17  and  N_18
REMARK                            x       y       z     vdW  Elec       q    Type
REMARK                         _______ _______ _______ _____ _____    ______ ____
ROOT
ATOM      1  N   UNL     1       3.013   6.234  19.709  0.00  0.00    +0.000 N 
ATOM      2  C   UNL     1       2.536   4.941  19.521  0.00  0.00    +0.000 C 
ATOM      3  O   UNL     1       1.375   4.629  19.273  0.00  0.00    +0.000 OA
ATOM      4  H   UNL     1       4.019   6.346  19.739  0.00  0.00    +0.000 HD
ENDROOT
BRANCH   1  11
ATOM      5  C   UNL     1      -1.353  12.564  20.828  0.00  0.00    +0.000 C 
ATOM      6  C   UNL     1      -0.863  11.122  20.791  0.00  0.00    +0.000 C 
ATOM      7  O   UNL     1       0.059  10.986  19.710  0.00  0.00    +0.000 OA
ATOM      8  C   UNL     1       0.733   9.792  19.734  0.00  0.00    +0.000 A 
ATOM      9  C   UNL     1       1.345   9.388  18.555  0.00  0.00    +0.000 A 
ATOM     10  C   UNL     1       2.094   8.207  18.526  0.00  0.00    +0.000 A 
ATOM     11  C   UNL     1       2.241   7.418  19.673  0.00  0.00    +0.000 A 
ATOM     12  C   UNL     1       1.611   7.825  20.858  0.00  0.00    +0.000 A 
ATOM     13  C   UNL     1       0.888   9.022  20.892  0.00  0.00    +0.000 A 
ATOM     14  N   UNL     1       0.391   9.503  22.108  0.00  0.00    +0.000 N 
ATOM     15  C   UNL     1      -0.330  10.672  22.161  0.00  0.00    +0.000 C 
ATOM     16  O   UNL     1      -0.592  11.212  23.231  0.00  0.00    +0.000 OA
ATOM     17  H   UNL     1       0.670   9.093  22.988  0.00  0.00    +0.000 HD
ENDBRANCH   1  11
BRANCH   2  18
ATOM     18  C   UNL     1       3.617   3.867  19.635  0.00  0.00    +0.000 C 
BRANCH  18  19
ATOM     19  O   UNL     1       4.009   3.443  18.332  0.00  0.00    +0.000 OA
BRANCH  19  20
ATOM     20  C   UNL     1       5.125   4.041  17.804  0.00  0.00    +0.000 A 
ATOM     21  C   UNL     1       6.042   4.811  18.520  0.00  0.00    +0.000 A 
ATOM     22  C   UNL     1       7.118   5.400  17.861  0.00  0.00    +0.000 A 
ATOM     23  C   UNL     1       7.272   5.244  16.484  0.00  0.00    +0.000 A 
ATOM     24  C   UNL     1       6.367   4.480  15.740  0.00  0.00    +0.000 A 
ATOM     25  C   UNL     1       5.307   3.860  16.424  0.00  0.00    +0.000 A 
BRANCH  24  26
ATOM     26  N   UNL     1       6.520   4.343  14.336  0.00  0.00    +0.000 N 
ATOM     27  C   UNL     1       5.586   3.628  13.500  0.00  0.00    +0.000 C 
ATOM     28  C   UNL     1       6.341   3.423  12.199  0.00  0.00    +0.000 C 
ATOM     29  C   UNL     1       7.224   4.653  12.108  0.00  0.00    +0.000 C 
ATOM     30  C   UNL     1       7.500   4.981  13.557  0.00  0.00    +0.000 C 
ATOM     31  O   UNL     1       8.386   5.747  13.905  0.00  0.00    +0.000 OA
ENDBRANCH  24  26
ENDBRANCH  19  20
ENDBRANCH  18  19
ENDBRANCH   2  18
TORSDOF 5
ENDMDL
MODEL 2
REMARK VINA RESULT:      -9.1      6.264      8.535
REMARK  Name = 
REMARK  6 active torsions:
REMARK  status: ('A' for Active; 'I' for Inactive)
REMARK    1  A    between atoms: C_1  and  C_2
REMARK    2  A    between atoms: C_7  and  N_8
REMARK    3  A    between atoms: C_9  and  C_11
REMARK    4  A    between atoms: C_11  and  O_12
REMARK    5  A    between atoms: O_12  and  C_13
REMARK    6  A    between atoms: C_17  and  N_18
REMARK                            x       y       z     vdW  Elec       q    Type
REMARK                         _______ _______ _______ _____ _____    ______ ____
ROOT
ATOM      1  N   UNL     1       9.113   9.105  19.116  0.00  0.00    +0.000 N 
ATOM      2  C   UNL     1       8.161   8.716  18.179  0.00  0.00    +0.000 C 
ATOM      3  O   UNL     1       7.521   9.466  17.448  0.00  0.00    +0.000 OA
ATOM      4  H   UNL     1       9.675   8.367  19.523  0.00  0.00    +0.000 HD
ENDROOT
BRANCH   1  11
ATOM      5  C   UNL     1      11.415  16.520  19.418  0.00  0.00    +0.000 C 
ATOM      6  C   UNL     1      11.377  15.017  19.173  0.00  0.00    +0.000 C 
ATOM      7  O   UNL     1      10.514  14.424  20.143  0.00  0.00    +0.000 OA
ATOM      8  C   UNL     1      10.228  13.112  19.866  0.00  0.00    +0.000 A 
ATOM      9  C   UNL     1       9.738  12.339  20.910  0.00  0.00    +0.000 A 
ATOM     10  C   UNL     1       9.374  11.007  20.682  0.00  0.00    +0.000 A 
ATOM     11  C   UNL     1       9.495  10.434  19.411  0.00  0.00    +0.000 A 
ATOM     12  C   UNL     1      10.001  11.217  18.362  0.00  0.00    +0.000 A 
ATOM     13  C   UNL     1      10.335  12.557  18.587  0.00  0.00    +0.000 A 
ATOM     14  N   UNL     1      10.692  13.377  17.511  0.00  0.00    +0.000 N 
ATOM     15  C   UNL     1      11.033  14.693  17.711  0.00  0.00    +0.000 C 
ATOM     16  O   UNL     1      11.146  15.472  16.770  0.00  0.00    +0.000 OA
ATOM     17  H   UNL     1      10.568  13.072  16.555  0.00  0.00    +0.000 HD
ENDBRANCH   1  11
BRANCH   2  18
ATOM     18  C   UNL     1       7.959   7.204  18.103  0.00  0.00    +0.000 C 
BRANCH  18  19
ATOM     19  O   UNL     1       7.574   6.840  16.780  0.00  0.00    +0.000 OA
BRANCH  19  20
ATOM     20  C   UNL     1       6.583   5.898  16.671  0.00  0.00    +0.000 A 
ATOM     21  C   UNL     1       6.414   5.027  15.594  0.00  0.00    +0.000 A 
ATOM     22  C   UNL     1       5.342   4.138  15.581  0.00  0.00    +0.000 A 
ATOM     23  C   UNL     1       4.422   4.129  16.629  0.00  0.00    +0.000 A 
ATOM     24  C   UNL     1       4.564   4.992  17.720  0.00  0.00    +0.000 A 
ATOM     25  C   UNL     1       5.671   5.857  17.738  0.00  0.00    +0.000 A 
BRANCH  24  26
ATOM     26  N   UNL     1       3.612   4.990  18.772  0.00  0.00    +0.000 N 
ATOM     27  C   UNL     1       3.484   3.916  19.727  0.00  0.00    +0.000 C 
ATOM     28  C   UNL     1       2.137   4.166  20.381  0.00  0.00    +0.000 C 
ATOM     29  C   UNL     1       2.012   5.678  20.360  0.00  0.00    +0.000 C 
ATOM     30  C   UNL     1       2.772   6.064  19.113  0.00  0.00    +0.000 C 
ATOM     31  O   UNL     1       2.684   7.169  18.599  0.00  0.00    +0.000 OA
ENDBRANCH  24  26
ENDBRANCH  19  20
ENDBRANCH  18  19
ENDBRANCH   2  18
TORSDOF 5
ENDMDL
MODEL 3
REMARK VINA RESULT:      -9.0      3.532      6.175
REMARK  Name = 
REMARK  6 active torsions:
REMARK  status: ('A' for Active; 'I' for Inactive)
REMARK    1  A    between atoms: C_1  and  C_2
REMARK    2  A    between atoms: C_7  and  N_8
REMARK    3  A    between atoms: C_9  and  C_11
REMARK    4  A    between atoms: C_11  and  O_12
REMARK    5  A    between atoms: O_12  and  C_13
REMARK    6  A    between atoms: C_17  and  N_18
REMARK                            x       y       z     vdW  Elec       q    Type
REMARK                         _______ _______ _______ _____ _____    ______ ____
ROOT
ATOM      1  N   UNL     1      -0.172  10.410  17.772  0.00  0.00    +0.000 N 
ATOM      2  C   UNL     1       0.684   9.892  18.738  0.00  0.00    +0.000 C 
ATOM      3  O   UNL     1       0.360   9.514  19.859  0.00  0.00    +0.000 OA
ATOM      4  H   UNL     1       0.210  10.521  16.840  0.00  0.00    +0.000 HD
ENDROOT
BRANCH   1  11
ATOM      5  C   UNL     1      -7.470  12.553  19.360  0.00  0.00    +0.000 C 
ATOM      6  C   UNL     1      -6.025  12.093  19.502  0.00  0.00    +0.000 C 
ATOM      7  O   UNL     1      -5.653  11.401  18.310  0.00  0.00    +0.000 OA
ATOM      8  C   UNL     1      -4.306  11.152  18.241  0.00  0.00    +0.000 A 
ATOM      9  C   UNL     1      -3.891  10.171  17.351  0.00  0.00    +0.000 A 
ATOM     10  C   UNL     1      -2.527   9.904  17.191  0.00  0.00    +0.000 A 
ATOM     11  C   UNL     1      -1.564  10.614  17.917  0.00  0.00    +0.000 A 
ATOM     12  C   UNL     1      -1.990  11.597  18.824  0.00  0.00    +0.000 A 
ATOM     13  C   UNL     1      -3.352  11.882  18.958  0.00  0.00    +0.000 A 
ATOM     14  N   UNL     1      -3.765  12.963  19.745  0.00  0.00    +0.000 N 
ATOM     15  C   UNL     1      -5.100  13.254  19.898  0.00  0.00    +0.000 C 
ATOM     16  O   UNL     1      -5.468  14.307  20.407  0.00  0.00    +0.000 OA
ATOM     17  H   UNL     1      -3.102  13.639  20.095  0.00  0.00    +0.000 HD
ENDBRANCH   1  11
BRANCH   2  18
ATOM     18  C   UNL     1       2.140   9.807  18.283  0.00  0.00    +0.000 C 
BRANCH  18  19
ATOM     19  O   UNL     1       2.268   8.811  17.273  0.00  0.00    +0.000 OA
BRANCH  19  20
ATOM     20  C   UNL     1       3.007   7.702  17.598  0.00  0.00    +0.000 A 
ATOM     21  C   UNL     1       4.308   7.446  17.165  0.00  0.00    +0.000 A 
ATOM     22  C   UNL     1       4.943   6.262  17.533  0.00  0.00    +0.000 A 
ATOM     23  C   UNL     1       4.275   5.319  18.315  0.00  0.00    +0.000 A 
ATOM     24  C   UNL     1       2.970   5.548  18.761  0.00  0.00    +0.000 A 
ATOM     25  C   UNL     1       2.356   6.763  18.413  0.00  0.00    +0.000 A 
BRANCH  24  26
ATOM     26  N   UNL     1       2.291   4.574  19.539  0.00  0.00    +0.000 N 
ATOM     27  C   UNL     1       2.273   4.579  20.981  0.00  0.00    +0.000 C 
ATOM     28  C   UNL     1       1.782   3.189  21.346  0.00  0.00    +0.000 C 
ATOM     29  C   UNL     1       0.843   2.839  20.208  0.00  0.00    +0.000 C 
ATOM     30  C   UNL     1       1.445   3.572  19.033  0.00  0.00    +0.000 C 
ATOM     31  O   UNL     1       1.134   3.335  17.875  0.00  0.00    +0.000 OA
ENDBRANCH  24  26
ENDBRANCH  19  20
ENDBRANCH  18  19
ENDBRANCH   2  18
TORSDOF 5
ENDMDL
MODEL 4
REMARK VINA RESULT:      -8.9      2.492      3.175
REMARK  Name = 
REMARK  6 active torsions:
REMARK  status: ('A' for Active; 'I' for Inactive)
REMARK    1  A    between atoms: C_1  and  C_2
REMARK    2  A    between atoms: C_7  and  N_8
REMARK    3  A    between atoms: C_9  and  C_11
REMARK    4  A    between atoms: C_11  and  O_12
REMARK    5  A    between atoms: O_12  and  C_13
REMARK    6  A    between atoms: C_17  and  N_18
REMARK                            x       y       z     vdW  Elec       q    Type
REMARK                         _______ _______ _______ _____ _____    ______ ____
ROOT
ATOM      1  N   UNL     1       2.251   5.350  20.944  0.00  0.00    +0.000 N 
ATOM      2  C   UNL     1       1.531   4.181  20.722  0.00  0.00    +0.000 C 
ATOM      3  O   UNL     1       0.581   4.054  19.955  0.00  0.00    +0.000 OA
ATOM      4  H   UNL     1       3.109   5.259  21.475  0.00  0.00    +0.000 HD
ENDROOT
BRANCH   1  11
ATOM      5  C   UNL     1       0.491  12.630  18.878  0.00  0.00    +0.000 C 
ATOM      6  C   UNL     1       0.397  11.204  19.405  0.00  0.00    +0.000 C 
ATOM      7  O   UNL     1       1.359  10.405  18.718  0.00  0.00    +0.000 OA
ATOM      8  C   UNL     1       1.517   9.165  19.281  0.00  0.00    +0.000 A 
ATOM      9  C   UNL     1       2.111   8.186  18.495  0.00  0.00    +0.000 A 
ATOM     10  C   UNL     1       2.351   6.914  19.026  0.00  0.00    +0.000 A 
ATOM     11  C   UNL     1       2.002   6.606  20.346  0.00  0.00    +0.000 A 
ATOM     12  C   UNL     1       1.392   7.596  21.132  0.00  0.00    +0.000 A 
ATOM     13  C   UNL     1       1.181   8.875  20.607  0.00  0.00    +0.000 A 
ATOM     14  N   UNL     1       0.715   9.901  21.436  0.00  0.00    +0.000 N 
ATOM     15  C   UNL     1       0.492  11.163  20.939  0.00  0.00    +0.000 C 
ATOM     16  O   UNL     1       0.286  12.115  21.684  0.00  0.00    +0.000 OA
ATOM     17  H   UNL     1       0.673   9.787  22.439  0.00  0.00    +0.000 HD
ENDBRANCH   1  11
BRANCH   2  18
ATOM     18  C   UNL     1       2.037   2.987  21.530  0.00  0.00    +0.000 C 
BRANCH  18  19
ATOM     19  O   UNL     1       3.358   2.652  21.114  0.00  0.00    +0.000 OA
BRANCH  19  20
ATOM     20  C   UNL     1       3.660   2.886  19.796  0.00  0.00    +0.000 A 
ATOM     21  C   UNL     1       3.168   2.157  18.714  0.00  0.00    +0.000 A 
ATOM     22  C   UNL     1       3.581   2.467  17.421  0.00  0.00    +0.000 A 
ATOM     23  C   UNL     1       4.503   3.491  17.203  0.00  0.00    +0.000 A 
ATOM     24  C   UNL     1       5.015   4.238  18.268  0.00  0.00    +0.000 A 
ATOM     25  C   UNL     1       4.561   3.938  19.564  0.00  0.00    +0.000 A 
BRANCH  24  26
ATOM     26  N   UNL     1       5.968   5.264  18.039  0.00  0.00    +0.000 N 
ATOM     27  C   UNL     1       7.333   5.199  18.501  0.00  0.00    +0.000 C 
ATOM     28  C   UNL     1       7.832   6.628  18.373  0.00  0.00    +0.000 C 
ATOM     29  C   UNL     1       7.071   7.158  17.172  0.00  0.00    +0.000 C 
ATOM     30  C   UNL     1       5.767   6.398  17.234  0.00  0.00    +0.000 C 
ATOM     31  O   UNL     1       4.778   6.727  16.596  0.00  0.00    +0.000 OA
ENDBRANCH  24  26
ENDBRANCH  19  20
ENDBRANCH  18  19
ENDBRANCH   2  18
TORSDOF 5
ENDMDL
MODEL 5
REMARK VINA RESULT:      -8.8      6.432      8.489
REMARK  Name = 
REMARK  6 active torsions:
REMARK  status: ('A' for Active; 'I' for Inactive)
REMARK    1  A    between atoms: C_1  and  C_2
REMARK    2  A    between atoms: C_7  and  N_8
REMARK    3  A    between atoms: C_9  and  C_11
REMARK    4  A    between atoms: C_11  and  O_12
REMARK    5  A    between atoms: O_12  and  C_13
REMARK    6  A    between atoms: C_17  and  N_18
REMARK                            x       y       z     vdW  Elec       q    Type
REMARK                         _______ _______ _______ _____ _____    ______ ____
ROOT
ATOM      1  N   UNL     1       8.147  10.027  17.739  0.00  0.00    +0.000 N 
ATOM      2  C   UNL     1       8.126   8.668  18.035  0.00  0.00    +0.000 C 
ATOM      3  O   UNL     1       8.814   8.103  18.880  0.00  0.00    +0.000 OA
ATOM      4  H   UNL     1       7.407  10.372  17.139  0.00  0.00    +0.000 HD
ENDROOT
BRANCH   1  11
ATOM      5  C   UNL     1      12.329  16.151  20.061  0.00  0.00    +0.000 C 
ATOM      6  C   UNL     1      11.757  15.011  19.228  0.00  0.00    +0.000 C 
ATOM      7  O   UNL     1      11.309  13.986  20.115  0.00  0.00    +0.000 OA
ATOM      8  C   UNL     1      10.568  13.023  19.480  0.00  0.00    +0.000 A 
ATOM      9  C   UNL     1      10.416  11.808  20.135  0.00  0.00    +0.000 A 
ATOM     10  C   UNL     1       9.628  10.801  19.568  0.00  0.00    +0.000 A 
ATOM     11  C   UNL     1       8.982  10.996  18.342  0.00  0.00    +0.000 A 
ATOM     12  C   UNL     1       9.148  12.221  17.678  0.00  0.00    +0.000 A 
ATOM     13  C   UNL     1       9.912  13.236  18.263  0.00  0.00    +0.000 A 
ATOM     14  N   UNL     1       9.950  14.506  17.677  0.00  0.00    +0.000 N 
ATOM     15  C   UNL     1      10.703  15.515  18.230  0.00  0.00    +0.000 C 
ATOM     16  O   UNL     1      10.586  16.677  17.854  0.00  0.00    +0.000 OA
ATOM     17  H   UNL     1       9.320  14.758  16.929  0.00  0.00    +0.000 HD
ENDBRANCH   1  11
BRANCH   2  18
ATOM     18  C   UNL     1       7.121   7.876  17.200  0.00  0.00    +0.000 C 
BRANCH  18  19
ATOM     19  O   UNL     1       7.718   6.658  16.763  0.00  0.00    +0.000 OA
BRANCH  19  20
ATOM     20  C   UNL     1       6.860   5.626  16.477  0.00  0.00    +0.000 A 
ATOM     21  C   UNL     1       6.884   4.858  15.313  0.00  0.00    +0.000 A 
ATOM     22  C   UNL     1       5.932   3.859  15.120  0.00  0.00    +0.000 A 
ATOM     23  C   UNL     1       4.941   3.637  16.076  0.00  0.00    +0.000 A 
ATOM     24  C   UNL     1       4.892   4.393  17.251  0.00  0.00    +0.000 A 
ATOM     25  C   UNL     1       5.880   5.372  17.449  0.00  0.00    +0.000 A 
BRANCH  24  26
ATOM     26  N   UNL     1       3.867   4.174  18.209  0.00  0.00    +0.000 N 
ATOM     27  C   UNL     1       2.498   4.583  18.016  0.00  0.00    +0.000 C 
ATOM     28  C   UNL     1       1.891   4.498  19.405  0.00  0.00    +0.000 C 
ATOM     29  C   UNL     1       2.645   3.349  20.047  0.00  0.00    +0.000 C 
ATOM     30  C   UNL     1       4.003   3.425  19.390  0.00  0.00    +0.000 C 
ATOM     31  O   UNL     1       4.982   2.837  19.825  0.00  0.00    +0.000 OA
ENDBRANCH  24  26
ENDBRANCH  19  20
ENDBRANCH  18  19
ENDBRANCH   2  18
TORSDOF 5
ENDMDL
MODEL 6
REMARK VINA RESULT:      -8.8      6.060      8.010
REMARK  Name = 
REMARK  6 active torsions:
REMARK  status: ('A' for Active; 'I' for Inactive)
REMARK    1  A    between atoms: C_1  and  C_2
REMARK    2  A    between atoms: C_7  and  N_8
REMARK    3  A    between atoms: C_9  and  C_11
REMARK    4  A    between atoms: C_11  and  O_12
REMARK    5  A    between atoms: O_12  and  C_13
REMARK    6  A    between atoms: C_17  and  N_18
REMARK                            x       y       z     vdW  Elec       q    Type
REMARK                         _______ _______ _______ _____ _____    ______ ____
ROOT
ATOM      1  N   UNL     1       8.927   8.863  19.154  0.00  0.00    +0.000 N 
ATOM      2  C   UNL     1       8.124   8.176  18.249  0.00  0.00    +0.000 C 
ATOM      3  O   UNL     1       7.626   8.642  17.229  0.00  0.00    +0.000 OA
ATOM      4  H   UNL     1       9.399   8.305  19.855  0.00  0.00    +0.000 HD
ENDROOT
BRANCH   1  11
ATOM      5  C   UNL     1      10.726  16.372  20.023  0.00  0.00    +0.000 C 
ATOM      6  C   UNL     1       9.980  15.044  20.031  0.00  0.00    +0.000 C 
ATOM      7  O   UNL     1      10.493  14.232  18.975  0.00  0.00    +0.000 OA
ATOM      8  C   UNL     1      10.054  12.935  19.043  0.00  0.00    +0.000 A 
ATOM      9  C   UNL     1      10.160  12.171  17.889  0.00  0.00    +0.000 A 
ATOM     10  C   UNL     1       9.781  10.824  17.904  0.00  0.00    +0.000 A 
ATOM     11  C   UNL     1       9.293  10.226  19.072  0.00  0.00    +0.000 A 
ATOM     12  C   UNL     1       9.177  11.006  20.233  0.00  0.00    +0.000 A 
ATOM     13  C   UNL     1       9.585  12.343  20.221  0.00  0.00    +0.000 A 
ATOM     14  N   UNL     1       9.614  13.075  21.414  0.00  0.00    +0.000 N 
ATOM     15  C   UNL     1      10.002  14.393  21.423  0.00  0.00    +0.000 C 
ATOM     16  O   UNL     1      10.230  14.983  22.474  0.00  0.00    +0.000 OA
ATOM     17  H   UNL     1       9.496  12.622  22.310  0.00  0.00    +0.000 HD
ENDBRANCH   1  11
BRANCH   2  18
ATOM     18  C   UNL     1       7.898   6.711  18.621  0.00  0.00    +0.000 C 
BRANCH  18  19
ATOM     19  O   UNL     1       7.893   5.914  17.441  0.00  0.00    +0.000 OA
BRANCH  19  20
ATOM     20  C   UNL     1       6.734   5.232  17.169  0.00  0.00    +0.000 A 
ATOM     21  C   UNL     1       6.336   4.791  15.907  0.00  0.00    +0.000 A 
ATOM     22  C   UNL     1       5.114   4.140  15.752  0.00  0.00    +0.000 A 
ATOM     23  C   UNL     1       4.275   3.948  16.849  0.00  0.00    +0.000 A 
ATOM     24  C   UNL     1       4.647   4.381  18.126  0.00  0.00    +0.000 A 
ATOM     25  C   UNL     1       5.898   5.002  18.273  0.00  0.00    +0.000 A 
BRANCH  24  26
ATOM     26  N   UNL     1       3.778   4.200  19.232  0.00  0.00    +0.000 N 
ATOM     27  C   UNL     1       3.689   2.969  19.980  0.00  0.00    +0.000 C 
ATOM     28  C   UNL     1       2.403   3.115  20.775  0.00  0.00    +0.000 C 
ATOM     29  C   UNL     1       2.325   4.606  21.043  0.00  0.00    +0.000 C 
ATOM     30  C   UNL     1       3.000   5.205  19.832  0.00  0.00    +0.000 C 
ATOM     31  O   UNL     1       2.908   6.388  19.540  0.00  0.00    +0.000 OA
ENDBRANCH  24  26
ENDBRANCH  19  20
ENDBRANCH  18  19
ENDBRANCH   2  18
TORSDOF 5
ENDMDL
MODEL 7
REMARK VINA RESULT:      -8.8      2.469      3.111
REMARK  Name = 
REMARK  6 active torsions:
REMARK  status: ('A' for Active; 'I' for Inactive)
REMARK    1  A    between atoms: C_1  and  C_2
REMARK    2  A    between atoms: C_7  and  N_8
REMARK    3  A    between atoms: C_9  and  C_11
REMARK    4  A    between atoms: C_11  and  O_12
REMARK    5  A    between atoms: O_12  and  C_13
REMARK    6  A    between atoms: C_17  and  N_18
REMARK                            x       y       z     vdW  Elec       q    Type
REMARK                         _______ _______ _______ _____ _____    ______ ____
ROOT
ATOM      1  N   UNL     1       2.215   5.421  21.033  0.00  0.00    +0.000 N 
ATOM      2  C   UNL     1       1.552   4.228  20.763  0.00  0.00    +0.000 C 
ATOM      3  O   UNL     1       0.646   4.076  19.948  0.00  0.00    +0.000 OA
ATOM      4  H   UNL     1       3.049   5.356  21.604  0.00  0.00    +0.000 HD
ENDROOT
BRANCH   1  11
ATOM      5  C   UNL     1       0.386  12.688  18.980  0.00  0.00    +0.000 C 
ATOM      6  C   UNL     1       0.309  11.264  19.515  0.00  0.00    +0.000 C 
ATOM      7  O   UNL     1       1.257  10.465  18.808  0.00  0.00    +0.000 OA
ATOM      8  C   UNL     1       1.431   9.227  19.372  0.00  0.00    +0.000 A 
ATOM      9  C   UNL     1       2.010   8.247  18.576  0.00  0.00    +0.000 A 
ATOM     10  C   UNL     1       2.266   6.978  19.107  0.00  0.00    +0.000 A 
ATOM     11  C   UNL     1       1.948   6.674  20.435  0.00  0.00    +0.000 A 
ATOM     12  C   UNL     1       1.354   7.665  21.231  0.00  0.00    +0.000 A 
ATOM     13  C   UNL     1       1.127   8.942  20.707  0.00  0.00    +0.000 A 
ATOM     14  N   UNL     1       0.678   9.970  21.543  0.00  0.00    +0.000 N 
ATOM     15  C   UNL     1       0.440  11.229  21.046  0.00  0.00    +0.000 C 
ATOM     16  O   UNL     1       0.249  12.184  21.792  0.00  0.00    +0.000 OA
ATOM     17  H   UNL     1       0.660   9.859  22.547  0.00  0.00    +0.000 HD
ENDBRANCH   1  11
BRANCH   2  18
ATOM     18  C   UNL     1       2.062   3.045  21.583  0.00  0.00    +0.000 C 
BRANCH  18  19
ATOM     19  O   UNL     1       3.359   2.671  21.128  0.00  0.00    +0.000 OA
BRANCH  19  20
ATOM     20  C   UNL     1       3.618   2.865  19.794  0.00  0.00    +0.000 A 
ATOM     21  C   UNL     1       3.142   2.064  18.756  0.00  0.00    +0.000 A 
ATOM     22  C   UNL     1       3.508   2.343  17.441  0.00  0.00    +0.000 A 
ATOM     23  C   UNL     1       4.366   3.405  17.158  0.00  0.00    +0.000 A 
ATOM     24  C   UNL     1       4.860   4.223  18.179  0.00  0.00    +0.000 A 
ATOM     25  C   UNL     1       4.453   3.954  19.497  0.00  0.00    +0.000 A 
BRANCH  24  26
ATOM     26  N   UNL     1       5.748   5.290  17.884  0.00  0.00    +0.000 N 
ATOM     27  C   UNL     1       5.310   6.593  17.449  0.00  0.00    +0.000 C 
ATOM     28  C   UNL     1       6.570   7.239  16.901  0.00  0.00    +0.000 C 
ATOM     29  C   UNL     1       7.670   6.649  17.763  0.00  0.00    +0.000 C 
ATOM     30  C   UNL     1       7.137   5.276  18.100  0.00  0.00    +0.000 C 
ATOM     31  O   UNL     1       7.839   4.388  18.560  0.00  0.00    +0.000 OA
ENDBRANCH  24  26
ENDBRANCH  19  20
ENDBRANCH  18  19
ENDBRANCH   2  18
TORSDOF 5
ENDMDL
MODEL 8
REMARK VINA RESULT:      -8.7      5.819      8.172
REMARK  Name = 
REMARK  6 active torsions:
REMARK  status: ('A' for Active; 'I' for Inactive)
REMARK    1  A    between atoms: C_1  and  C_2
REMARK    2  A    between atoms: C_7  and  N_8
REMARK    3  A    between atoms: C_9  and  C_11
REMARK    4  A    between atoms: C_11  and  O_12
REMARK    5  A    between atoms: O_12  and  C_13
REMARK    6  A    between atoms: C_17  and  N_18
REMARK                            x       y       z     vdW  Elec       q    Type
REMARK                         _______ _______ _______ _____ _____    ______ ____
ROOT
ATOM      1  N   UNL     1       7.941   8.980  17.456  0.00  0.00    +0.000 N 
ATOM      2  C   UNL     1       7.940   7.644  17.844  0.00  0.00    +0.000 C 
ATOM      3  O   UNL     1       8.435   7.191  18.871  0.00  0.00    +0.000 OA
ATOM      4  H   UNL     1       7.350   9.224  16.671  0.00  0.00    +0.000 HD
ENDROOT
BRANCH   1  11
ATOM      5  C   UNL     1      10.701  15.632  20.374  0.00  0.00    +0.000 C 
ATOM      6  C   UNL     1      10.411  14.459  19.446  0.00  0.00    +0.000 C 
ATOM      7  O   UNL     1      10.126  13.311  20.245  0.00  0.00    +0.000 OA
ATOM      8  C   UNL     1       9.626  12.267  19.511  0.00  0.00    +0.000 A 
ATOM      9  C   UNL     1       9.681  11.005  20.089  0.00  0.00    +0.000 A 
ATOM     10  C   UNL     1       9.138   9.904  19.418  0.00  0.00    +0.000 A 
ATOM     11  C   UNL     1       8.534  10.051  18.164  0.00  0.00    +0.000 A 
ATOM     12  C   UNL     1       8.491  11.325  17.579  0.00  0.00    +0.000 A 
ATOM     13  C   UNL     1       9.007  12.429  18.267  0.00  0.00    +0.000 A 
ATOM     14  N   UNL     1       8.827  13.718  17.754  0.00  0.00    +0.000 N 
ATOM     15  C   UNL     1       9.334  14.814  18.408  0.00  0.00    +0.000 C 
ATOM     16  O   UNL     1       9.012  15.954  18.088  0.00  0.00    +0.000 OA
ATOM     17  H   UNL     1       8.200  13.891  16.980  0.00  0.00    +0.000 HD
ENDBRANCH   1  11
BRANCH   2  18
ATOM     18  C   UNL     1       7.227   6.721  16.857  0.00  0.00    +0.000 C 
BRANCH  18  19
ATOM     19  O   UNL     1       6.431   5.780  17.572  0.00  0.00    +0.000 OA
BRANCH  19  20
ATOM     20  C   UNL     1       5.118   6.122  17.777  0.00  0.00    +0.000 A 
ATOM     21  C   UNL     1       4.519   7.310  17.359  0.00  0.00    +0.000 A 
ATOM     22  C   UNL     1       3.183   7.559  17.662  0.00  0.00    +0.000 A 
ATOM     23  C   UNL     1       2.445   6.635  18.402  0.00  0.00    +0.000 A 
ATOM     24  C   UNL     1       3.019   5.436  18.836  0.00  0.00    +0.000 A 
ATOM     25  C   UNL     1       4.357   5.182  18.491  0.00  0.00    +0.000 A 
BRANCH  24  26
ATOM     26  N   UNL     1       2.267   4.512  19.606  0.00  0.00    +0.000 N 
ATOM     27  C   UNL     1       2.164   4.571  21.043  0.00  0.00    +0.000 C 
ATOM     28  C   UNL     1       1.612   3.210  21.428  0.00  0.00    +0.000 C 
ATOM     29  C   UNL     1       0.732   2.843  20.249  0.00  0.00    +0.000 C 
ATOM     30  C   UNL     1       1.424   3.514  19.086  0.00  0.00    +0.000 C 
ATOM     31  O   UNL     1       1.176   3.242  17.921  0.00  0.00    +0.000 OA
ENDBRANCH  24  26
ENDBRANCH  19  20
ENDBRANCH  18  19
ENDBRANCH   2  18
TORSDOF 5
ENDMDL
MODEL 9
REMARK VINA RESULT:      -8.6      6.027      7.982
REMARK  Name = 
REMARK  6 active torsions:
REMARK  status: ('A' for Active; 'I' for Inactive)
REMARK    1  A    between atoms: C_1  and  C_2
REMARK    2  A    between atoms: C_7  and  N_8
REMARK    3  A    between atoms: C_9  and  C_11
REMARK    4  A    between atoms: C_11  and  O_12
REMARK    5  A    between atoms: O_12  and  C_13
REMARK    6  A    between atoms: C_17  and  N_18
REMARK                            x       y       z     vdW  Elec       q    Type
REMARK                         _______ _______ _______ _____ _____    ______ ____
ROOT
ATOM      1  N   UNL     1       8.973   8.770  19.110  0.00  0.00    +0.000 N 
ATOM      2  C   UNL     1       8.169   8.035  18.246  0.00  0.00    +0.000 C 
ATOM      3  O   UNL     1       7.525   8.484  17.303  0.00  0.00    +0.000 OA
ATOM      4  H   UNL     1       9.572   8.240  19.732  0.00  0.00    +0.000 HD
ENDROOT
BRANCH   1  11
ATOM      5  C   UNL     1      10.046  16.382  20.241  0.00  0.00    +0.000 C 
ATOM      6  C   UNL     1       9.460  14.977  20.260  0.00  0.00    +0.000 C 
ATOM      7  O   UNL     1       9.899  14.288  19.090  0.00  0.00    +0.000 OA
ATOM      8  C   UNL     1       9.619  12.946  19.128  0.00  0.00    +0.000 A 
ATOM      9  C   UNL     1       9.640  12.263  17.919  0.00  0.00    +0.000 A 
ATOM     10  C   UNL     1       9.416  10.881  17.894  0.00  0.00    +0.000 A 
ATOM     11  C   UNL     1       9.172  10.169  19.073  0.00  0.00    +0.000 A 
ATOM     12  C   UNL     1       9.141  10.867  20.290  0.00  0.00    +0.000 A 
ATOM     13  C   UNL     1       9.395  12.242  20.315  0.00  0.00    +0.000 A 
ATOM     14  N   UNL     1       9.516  12.907  21.540  0.00  0.00    +0.000 N 
ATOM     15  C   UNL     1       9.756  14.260  21.587  0.00  0.00    +0.000 C 
ATOM     16  O   UNL     1      10.068  14.816  22.635  0.00  0.00    +0.000 OA
ATOM     17  H   UNL     1       9.580  12.397  22.410  0.00  0.00    +0.000 HD
ENDBRANCH   1  11
BRANCH   2  18
ATOM     18  C   UNL     1       8.149   6.538  18.552  0.00  0.00    +0.000 C 
BRANCH  18  19
ATOM     19  O   UNL     1       6.939   6.206  19.228  0.00  0.00    +0.000 OA
BRANCH  19  20
ATOM     20  C   UNL     1       6.096   5.338  18.580  0.00  0.00    +0.000 A 
ATOM     21  C   UNL     1       6.243   4.904  17.263  0.00  0.00    +0.000 A 
ATOM     22  C   UNL     1       5.296   4.049  16.703  0.00  0.00    +0.000 A 
ATOM     23  C   UNL     1       4.188   3.642  17.447  0.00  0.00    +0.000 A 
ATOM     24  C   UNL     1       4.014   4.063  18.769  0.00  0.00    +0.000 A 
ATOM     25  C   UNL     1       4.996   4.895  19.332  0.00  0.00    +0.000 A 
BRANCH  24  26
ATOM     26  N   UNL     1       2.874   3.660  19.511  0.00  0.00    +0.000 N 
ATOM     27  C   UNL     1       1.519   3.944  19.104  0.00  0.00    +0.000 C 
ATOM     28  C   UNL     1       0.698   3.679  20.353  0.00  0.00    +0.000 C 
ATOM     29  C   UNL     1       1.458   2.562  21.042  0.00  0.00    +0.000 C 
ATOM     30  C   UNL     1       2.891   2.831  20.646  0.00  0.00    +0.000 C 
ATOM     31  O   UNL     1       3.843   2.310  21.208  0.00  0.00    +0.000 OA
ENDBRANCH  24  26
ENDBRANCH  19  20
ENDBRANCH  18  19
ENDBRANCH   2  18
TORSDOF 5
ENDMDL
