MODEL 1
REMARK VINA RESULT:      -8.5      0.000      0.000
REMARK  Name = 
REMARK  5 active torsions:
REMARK  status: ('A' for Active; 'I' for Inactive)
REMARK    1  A    between atoms: C_2  and  C_3
REMARK    2  A    between atoms: C_3  and  C_4
REMARK    3  A    between atoms: C_4  and  N_5
REMARK    4  A    between atoms: N_16  and  C_17
REMARK    5  A    between atoms: C_26  and  N_27
REMARK                            x       y       z     vdW  Elec       q    Type
REMARK                         _______ _______ _______ _____ _____    ______ ____
ROOT
ATOM      1  O   UNL     1       2.039   7.377  18.464  0.00  0.00    +0.000 OA
ATOM      2  C   UNL     1       2.415   7.083  19.592  0.00  0.00    +0.000 C 
ATOM      3  N   UNL     1       3.308   6.079  19.915  0.00  0.00    +0.000 N 
ATOM      4  H   UNL     1       3.835   6.176  20.769  0.00  0.00    +0.000 HD
ENDROOT
BRANCH   3   5
ATOM      5  C   UNL     1       3.990   5.391  18.903  0.00  0.00    +0.000 A 
ATOM      6  N   UNL     1       4.878   6.100  18.175  0.00  0.00    +0.000 NA
ATOM      7  C   UNL     1       5.415   5.482  17.121  0.00  0.00    +0.000 A 
ATOM      8  C   UNL     1       6.285   6.201  16.308  0.00  0.00    +0.000 A 
ATOM      9  C   UNL     1       6.895   5.618  15.204  0.00  0.00    +0.000 A 
ATOM     10  C   UNL     1       6.640   4.285  14.913  0.00  0.00    +0.000 A 
ATOM     11  C   UNL     1       5.743   3.563  15.715  0.00  0.00    +0.000 A 
ATOM     12  C   UNL     1       5.098   4.141  16.806  0.00  0.00    +0.000 A 
ATOM     13  N   UNL     1       4.188   3.439  17.537  0.00  0.00    +0.000 NA
ATOM     14  C   UNL     1       3.609   4.057  18.601  0.00  0.00    +0.000 A 
BRANCH  14  15
ATOM     15  N   UNL     1       2.634   3.387  19.343  0.00  0.00    +0.000 N 
ATOM     16  C   UNL     1       1.201   3.606  19.134  0.00  0.00    +0.000 C 
ATOM     17  C   UNL     1       0.595   3.637  20.528  0.00  0.00    +0.000 C 
ATOM     18  C   UNL     1       1.525   2.747  21.331  0.00  0.00    +0.000 C 
ATOM     19  C   UNL     1       2.909   3.002  20.724  0.00  0.00    +0.000 C 
ENDBRANCH  14  15
ENDBRANCH   3   5
BRANCH   2  20
ATOM     20  C   UNL     1       2.054   7.920  20.799  0.00  0.00    +0.000 C 
BRANCH  20  21
ATOM     21  C   UNL     1       0.553   7.878  21.046  0.00  0.00    +0.000 C 
BRANCH  21  22
ATOM     22  N   UNL     1      -0.001   9.217  21.173  0.00  0.00    +0.000 N 
ATOM     23  C   UNL     1      -0.064   9.916  22.340  0.00  0.00    +0.000 C 
ATOM     24  O   UNL     1       0.297   9.585  23.456  0.00  0.00    +0.000 OA
ATOM     25  C   UNL     1      -0.620  11.228  22.011  0.00  0.00    +0.000 A 
ATOM     26  C   UNL     1      -0.913  12.310  22.819  0.00  0.00    +0.000 A 
ATOM     27  C   UNL     1      -1.417  13.456  22.192  0.00  0.00    +0.000 A 
ATOM     28  C   UNL     1      -1.607  13.494  20.796  0.00  0.00    +0.000 A 
ATOM     29  C   UNL     1      -1.299  12.387  19.999  0.00  0.00    +0.000 A 
ATOM     30  C   UNL     1      -0.807  11.269  20.642  0.00  0.00    +0.000 A 
ATOM     31  C   UNL     1      -0.372   9.980  20.099  0.00  0.00    +0.000 C 
ATOM     32  O   UNL     1      -0.328   9.722  18.914  0.00  0.00    +0.000 OA
ENDBRANCH  21  22
ENDBRANCH  20  21
ENDBRANCH   2  20
TORSDOF 5
ENDMDL
MODEL 2
REMARK VINA RESULT:      -8.5      0.179      1.570
REMARK  Name = 
REMARK  5 active torsions:
REMARK  status: ('A' for Active; 'I' for Inactive)
REMARK    1  A    between atoms: C_2  and  C_3
REMARK    2  A    between atoms: C_3  and  C_4
REMARK    3  A    between atoms: C_4  and  N_5
REMARK    4  A    between atoms: N_16  and  C_17
REMARK    5  A    between atoms: C_26  and  N_27
REMARK                            x       y       z     vdW  Elec       q    Type
REMARK                         _______ _______ _______ _____ _____    ______ ____
ROOT
ATOM      1  O   UNL     1       2.010   7.254  18.387  0.00  0.00    +0.000 OA
ATOM      2  C   UNL     1       2.421   6.990  19.510  0.00  0.00    +0.000 C 
ATOM      3  N   UNL     1       3.347   6.015  19.828  0.00  0.00    +0.000 N 
ATOM      4  H   UNL     1       3.893   6.141  20.667  0.00  0.00    +0.000 HD
ENDROOT
BRANCH   3   5
ATOM      5  C   UNL     1       4.022   5.326  18.811  0.00  0.00    +0.000 A 
ATOM      6  N   UNL     1       4.905   6.035  18.078  0.00  0.00    +0.000 NA
ATOM      7  C   UNL     1       5.434   5.417  17.019  0.00  0.00    +0.000 A 
ATOM      8  C   UNL     1       6.300   6.135  16.200  0.00  0.00    +0.000 A 
ATOM      9  C   UNL     1       6.902   5.551  15.092  0.00  0.00    +0.000 A 
ATOM     10  C   UNL     1       6.644   4.218  14.803  0.00  0.00    +0.000 A 
ATOM     11  C   UNL     1       5.752   3.497  15.612  0.00  0.00    +0.000 A 
ATOM     12  C   UNL     1       5.115   4.075  16.708  0.00  0.00    +0.000 A 
ATOM     13  N   UNL     1       4.210   3.374  17.445  0.00  0.00    +0.000 NA
ATOM     14  C   UNL     1       3.638   3.992  18.513  0.00  0.00    +0.000 A 
BRANCH  14  15
ATOM     15  N   UNL     1       2.669   3.323  19.262  0.00  0.00    +0.000 N 
ATOM     16  C   UNL     1       1.235   3.568  19.087  0.00  0.00    +0.000 C 
ATOM     17  C   UNL     1       0.659   3.581  20.493  0.00  0.00    +0.000 C 
ATOM     18  C   UNL     1       1.591   2.661  21.259  0.00  0.00    +0.000 C 
ATOM     19  C   UNL     1       2.965   2.907  20.629  0.00  0.00    +0.000 C 
ENDBRANCH  14  15
ENDBRANCH   3   5
BRANCH   2  20
ATOM     20  C   UNL     1       2.068   7.840  20.710  0.00  0.00    +0.000 C 
BRANCH  20  21
ATOM     21  C   UNL     1       0.560   7.874  20.914  0.00  0.00    +0.000 C 
BRANCH  21  22
ATOM     22  N   UNL     1       0.079   9.236  21.085  0.00  0.00    +0.000 N 
ATOM     23  C   UNL     1      -0.271  10.062  20.061  0.00  0.00    +0.000 C 
ATOM     24  O   UNL     1      -0.246   9.854  18.861  0.00  0.00    +0.000 OA
ATOM     25  C   UNL     1      -0.762  11.298  20.671  0.00  0.00    +0.000 A 
ATOM     26  C   UNL     1      -1.221  12.466  20.095  0.00  0.00    +0.000 A 
ATOM     27  C   UNL     1      -1.656  13.476  20.960  0.00  0.00    +0.000 A 
ATOM     28  C   UNL     1      -1.628  13.295  22.358  0.00  0.00    +0.000 A 
ATOM     29  C   UNL     1      -1.163  12.102  22.918  0.00  0.00    +0.000 A 
ATOM     30  C   UNL     1      -0.735  11.123  22.042  0.00  0.00    +0.000 A 
ATOM     31  C   UNL     1      -0.225   9.775  22.306  0.00  0.00    +0.000 C 
ATOM     32  O   UNL     1      -0.158   9.278  23.410  0.00  0.00    +0.000 OA
ENDBRANCH  21  22
ENDBRANCH  20  21
ENDBRANCH   2  20
TORSDOF 5
ENDMDL
MODEL 3
REMARK VINA RESULT:      -8.4      1.975      2.508
REMARK  Name = 
REMARK  5 active torsions:
REMARK  status: ('A' for Active; 'I' for Inactive)
REMARK    1  A    between atoms: C_2  and  C_3
REMARK    2  A    between atoms: C_3  and  C_4
REMARK    3  A    between atoms: C_4  and  N_5
REMARK    4  A    between atoms: N_16  and  C_17
REMARK    5  A    between atoms: C_26  and  N_27
REMARK                            x       y       z     vdW  Elec       q    Type
REMARK                         _______ _______ _______ _____ _____    ______ ____
ROOT
ATOM      1  O   UNL     1       2.440   8.863  17.354  0.00  0.00    +0.000 OA
ATOM      2  C   UNL     1       1.994   8.458  18.421  0.00  0.00    +0.000 C 
ATOM      3  N   UNL     1       2.190   7.202  18.959  0.00  0.00    +0.000 N 
ATOM      4  H   UNL     1       2.135   7.105  19.961  0.00  0.00    +0.000 HD
ENDROOT
BRANCH   3   5
ATOM      5  C   UNL     1       3.083   6.307  18.353  0.00  0.00    +0.000 A 
ATOM      6  N   UNL     1       3.846   6.793  17.352  0.00  0.00    +0.000 NA
ATOM      7  C   UNL     1       4.585   5.907  16.680  0.00  0.00    +0.000 A 
ATOM      8  C   UNL     1       5.336   6.358  15.600  0.00  0.00    +0.000 A 
ATOM      9  C   UNL     1       6.143   5.496  14.866  0.00  0.00    +0.000 A 
ATOM     10  C   UNL     1       6.210   4.157  15.227  0.00  0.00    +0.000 A 
ATOM     11  C   UNL     1       5.435   3.693  16.301  0.00  0.00    +0.000 A 
ATOM     12  C   UNL     1       4.597   4.536  17.027  0.00  0.00    +0.000 A 
ATOM     13  N   UNL     1       3.809   4.053  18.028  0.00  0.00    +0.000 NA
ATOM     14  C   UNL     1       3.029   4.934  18.709  0.00  0.00    +0.000 A 
BRANCH  14  15
ATOM     15  N   UNL     1       2.172   4.468  19.708  0.00  0.00    +0.000 N 
ATOM     16  C   UNL     1       2.567   4.412  21.118  0.00  0.00    +0.000 C 
ATOM     17  C   UNL     1       2.014   3.094  21.634  0.00  0.00    +0.000 C 
ATOM     18  C   UNL     1       0.792   2.866  20.765  0.00  0.00    +0.000 C 
ATOM     19  C   UNL     1       1.189   3.435  19.399  0.00  0.00    +0.000 C 
ENDBRANCH  14  15
ENDBRANCH   3   5
BRANCH   2  20
ATOM     20  C   UNL     1       1.281   9.377  19.388  0.00  0.00    +0.000 C 
BRANCH  20  21
ATOM     21  C   UNL     1       0.920  10.690  18.709  0.00  0.00    +0.000 C 
BRANCH  21  22
ATOM     22  N   UNL     1      -0.501  10.974  18.825  0.00  0.00    +0.000 N 
ATOM     23  C   UNL     1      -1.034  11.895  19.674  0.00  0.00    +0.000 C 
ATOM     24  O   UNL     1      -0.471  12.623  20.473  0.00  0.00    +0.000 OA
ATOM     25  C   UNL     1      -2.475  11.912  19.420  0.00  0.00    +0.000 A 
ATOM     26  C   UNL     1      -3.485  12.644  20.014  0.00  0.00    +0.000 A 
ATOM     27  C   UNL     1      -4.782  12.455  19.523  0.00  0.00    +0.000 A 
ATOM     28  C   UNL     1      -5.033  11.559  18.464  0.00  0.00    +0.000 A 
ATOM     29  C   UNL     1      -3.993  10.833  17.877  0.00  0.00    +0.000 A 
ATOM     30  C   UNL     1      -2.725  11.034  18.383  0.00  0.00    +0.000 A 
ATOM     31  C   UNL     1      -1.441  10.456  17.975  0.00  0.00    +0.000 C 
ATOM     32  O   UNL     1      -1.302   9.709  17.030  0.00  0.00    +0.000 OA
ENDBRANCH  21  22
ENDBRANCH  20  21
ENDBRANCH   2  20
TORSDOF 5
ENDMDL
MODEL 4
REMARK VINA RESULT:      -8.3      1.837      2.434
REMARK  Name = 
REMARK  5 active torsions:
REMARK  status: ('A' for Active; 'I' for Inactive)
REMARK    1  A    between atoms: C_2  and  C_3
REMARK    2  A    between atoms: C_3  and  C_4
REMARK    3  A    between atoms: C_4  and  N_5
REMARK    4  A    between atoms: N_16  and  C_17
REMARK    5  A    between atoms: C_26  and  N_27
REMARK                            x       y       z     vdW  Elec       q    Type
REMARK                         _______ _______ _______ _____ _____    ______ ____
ROOT
ATOM      1  O   UNL     1       1.859   7.152  18.179  0.00  0.00    +0.000 OA
ATOM      2  C   UNL     1       2.307   7.008  19.309  0.00  0.00    +0.000 C 
ATOM      3  N   UNL     1       3.303   6.126  19.682  0.00  0.00    +0.000 N 
ATOM      4  H   UNL     1       3.854   6.355  20.495  0.00  0.00    +0.000 HD
ENDROOT
BRANCH   3   5
ATOM      5  C   UNL     1       4.005   5.403  18.708  0.00  0.00    +0.000 A 
ATOM      6  N   UNL     1       4.871   6.098  17.941  0.00  0.00    +0.000 NA
ATOM      7  C   UNL     1       5.425   5.438  16.920  0.00  0.00    +0.000 A 
ATOM      8  C   UNL     1       6.274   6.136  16.067  0.00  0.00    +0.000 A 
ATOM      9  C   UNL     1       6.900   5.512  14.996  0.00  0.00    +0.000 A 
ATOM     10  C   UNL     1       6.685   4.157  14.779  0.00  0.00    +0.000 A 
ATOM     11  C   UNL     1       5.810   3.455  15.622  0.00  0.00    +0.000 A 
ATOM     12  C   UNL     1       5.149   4.073  16.682  0.00  0.00    +0.000 A 
ATOM     13  N   UNL     1       4.260   3.386  17.452  0.00  0.00    +0.000 NA
ATOM     14  C   UNL     1       3.664   4.043  18.482  0.00  0.00    +0.000 A 
BRANCH  14  15
ATOM     15  N   UNL     1       2.711   3.387  19.262  0.00  0.00    +0.000 N 
ATOM     16  C   UNL     1       1.271   3.549  19.043  0.00  0.00    +0.000 C 
ATOM     17  C   UNL     1       0.664   3.640  20.433  0.00  0.00    +0.000 C 
ATOM     18  C   UNL     1       1.622   2.826  21.284  0.00  0.00    +0.000 C 
ATOM     19  C   UNL     1       2.997   3.090  20.662  0.00  0.00    +0.000 C 
ENDBRANCH  14  15
ENDBRANCH   3   5
BRANCH   2  20
ATOM     20  C   UNL     1       1.919   7.926  20.446  0.00  0.00    +0.000 C 
BRANCH  20  21
ATOM     21  C   UNL     1       0.736   8.797  20.047  0.00  0.00    +0.000 C 
BRANCH  21  22
ATOM     22  N   UNL     1       1.136  10.183  19.863  0.00  0.00    +0.000 N 
ATOM     23  C   UNL     1       1.588  10.705  18.689  0.00  0.00    +0.000 C 
ATOM     24  O   UNL     1       1.752  10.154  17.616  0.00  0.00    +0.000 OA
ATOM     25  C   UNL     1       1.806  12.132  18.924  0.00  0.00    +0.000 A 
ATOM     26  C   UNL     1       2.276  13.120  18.082  0.00  0.00    +0.000 A 
ATOM     27  C   UNL     1       2.347  14.419  18.599  0.00  0.00    +0.000 A 
ATOM     28  C   UNL     1       1.947  14.695  19.923  0.00  0.00    +0.000 A 
ATOM     29  C   UNL     1       1.470  13.677  20.755  0.00  0.00    +0.000 A 
ATOM     30  C   UNL     1       1.415  12.405  20.221  0.00  0.00    +0.000 A 
ATOM     31  C   UNL     1       0.948  11.149  20.815  0.00  0.00    +0.000 C 
ATOM     32  O   UNL     1       0.456  11.062  21.920  0.00  0.00    +0.000 OA
ENDBRANCH  21  22
ENDBRANCH  20  21
ENDBRANCH   2  20
TORSDOF 5
ENDMDL
MODEL 5
REMARK VINA RESULT:      -8.3      2.493      9.092
REMARK  Name = 
REMARK  5 active torsions:
REMARK  status: ('A' for Active; 'I' for Inactive)
REMARK    1  A    between atoms: C_2  and  C_3
REMARK    2  A    between atoms: C_3  and  C_4
REMARK    3  A    between atoms: C_4  and  N_5
REMARK    4  A    between atoms: N_16  and  C_17
REMARK    5  A    between atoms: C_26  and  N_27
REMARK                            x       y       z     vdW  Elec       q    Type
REMARK                         _______ _______ _______ _____ _____    ______ ____
ROOT
ATOM      1  O   UNL     1       1.641  11.112  18.313  0.00  0.00    +0.000 OA
ATOM      2  C   UNL     1       1.182   9.995  18.516  0.00  0.00    +0.000 C 
ATOM      3  N   UNL     1       0.075   9.698  19.287  0.00  0.00    +0.000 N 
ATOM      4  H   UNL     1      -0.436   8.856  19.073  0.00  0.00    +0.000 HD
ENDROOT
BRANCH   3   5
ATOM      5  C   UNL     1      -0.724  10.730  19.799  0.00  0.00    +0.000 A 
ATOM      6  N   UNL     1      -0.466  11.132  21.061  0.00  0.00    +0.000 NA
ATOM      7  C   UNL     1      -1.320  12.008  21.595  0.00  0.00    +0.000 A 
ATOM      8  C   UNL     1      -1.126  12.398  22.916  0.00  0.00    +0.000 A 
ATOM      9  C   UNL     1      -1.964  13.319  23.532  0.00  0.00    +0.000 A 
ATOM     10  C   UNL     1      -3.012  13.872  22.808  0.00  0.00    +0.000 A 
ATOM     11  C   UNL     1      -3.227  13.464  21.483  0.00  0.00    +0.000 A 
ATOM     12  C   UNL     1      -2.416  12.518  20.861  0.00  0.00    +0.000 A 
ATOM     13  N   UNL     1      -2.677  12.092  19.594  0.00  0.00    +0.000 NA
ATOM     14  C   UNL     1      -1.835  11.181  19.038  0.00  0.00    +0.000 A 
BRANCH  14  15
ATOM     15  N   UNL     1      -2.099  10.685  17.760  0.00  0.00    +0.000 N 
ATOM     16  C   UNL     1      -2.019  11.522  16.561  0.00  0.00    +0.000 C 
ATOM     17  C   UNL     1      -3.211  11.116  15.711  0.00  0.00    +0.000 C 
ATOM     18  C   UNL     1      -3.434   9.665  16.097  0.00  0.00    +0.000 C 
ATOM     19  C   UNL     1      -3.072   9.611  17.584  0.00  0.00    +0.000 C 
ENDBRANCH  14  15
ENDBRANCH   3   5
BRANCH   2  20
ATOM     20  C   UNL     1       1.698   8.775  17.786  0.00  0.00    +0.000 C 
BRANCH  20  21
ATOM     21  C   UNL     1       2.924   8.213  18.490  0.00  0.00    +0.000 C 
BRANCH  21  22
ATOM     22  N   UNL     1       2.708   6.839  18.916  0.00  0.00    +0.000 N 
ATOM     23  C   UNL     1       1.961   6.477  19.995  0.00  0.00    +0.000 C 
ATOM     24  O   UNL     1       1.362   7.182  20.788  0.00  0.00    +0.000 OA
ATOM     25  C   UNL     1       1.946   5.014  20.020  0.00  0.00    +0.000 A 
ATOM     26  C   UNL     1       1.357   4.136  20.908  0.00  0.00    +0.000 A 
ATOM     27  C   UNL     1       1.500   2.768  20.642  0.00  0.00    +0.000 A 
ATOM     28  C   UNL     1       2.211   2.321  19.510  0.00  0.00    +0.000 A 
ATOM     29  C   UNL     1       2.795   3.230  18.623  0.00  0.00    +0.000 A 
ATOM     30  C   UNL     1       2.643   4.572  18.911  0.00  0.00    +0.000 A 
ATOM     31  C   UNL     1       3.103   5.755  18.179  0.00  0.00    +0.000 C 
ATOM     32  O   UNL     1       3.674   5.712  17.110  0.00  0.00    +0.000 OA
ENDBRANCH  21  22
ENDBRANCH  20  21
ENDBRANCH   2  20
TORSDOF 5
ENDMDL
MODEL 6
REMARK VINA RESULT:      -8.2      1.718      1.795
REMARK  Name = 
REMARK  5 active torsions:
REMARK  status: ('A' for Active; 'I' for Inactive)
REMARK    1  A    between atoms: C_2  and  C_3
REMARK    2  A    between atoms: C_3  and  C_4
REMARK    3  A    between atoms: C_4  and  N_5
REMARK    4  A    between atoms: N_16  and  C_17
REMARK    5  A    between atoms: C_26  and  N_27
REMARK                            x       y       z     vdW  Elec       q    Type
REMARK                         _______ _______ _______ _____ _____    ______ ____
ROOT
ATOM      1  O   UNL     1       1.845   7.103  18.230  0.00  0.00    +0.000 OA
ATOM      2  C   UNL     1       2.313   6.972  19.354  0.00  0.00    +0.000 C 
ATOM      3  N   UNL     1       3.326   6.106  19.717  0.00  0.00    +0.000 N 
ATOM      4  H   UNL     1       3.887   6.349  20.520  0.00  0.00    +0.000 HD
ENDROOT
BRANCH   3   5
ATOM      5  C   UNL     1       4.022   5.386  18.737  0.00  0.00    +0.000 A 
ATOM      6  N   UNL     1       4.891   6.080  17.973  0.00  0.00    +0.000 NA
ATOM      7  C   UNL     1       5.439   5.425  16.947  0.00  0.00    +0.000 A 
ATOM      8  C   UNL     1       6.290   6.123  16.097  0.00  0.00    +0.000 A 
ATOM      9  C   UNL     1       6.911   5.502  15.020  0.00  0.00    +0.000 A 
ATOM     10  C   UNL     1       6.687   4.151  14.795  0.00  0.00    +0.000 A 
ATOM     11  C   UNL     1       5.810   3.447  15.635  0.00  0.00    +0.000 A 
ATOM     12  C   UNL     1       5.154   4.062  16.700  0.00  0.00    +0.000 A 
ATOM     13  N   UNL     1       4.263   3.376  17.467  0.00  0.00    +0.000 NA
ATOM     14  C   UNL     1       3.672   4.030  18.502  0.00  0.00    +0.000 A 
BRANCH  14  15
ATOM     15  N   UNL     1       2.716   3.374  19.280  0.00  0.00    +0.000 N 
ATOM     16  C   UNL     1       1.278   3.530  19.051  0.00  0.00    +0.000 C 
ATOM     17  C   UNL     1       0.662   3.626  20.437  0.00  0.00    +0.000 C 
ATOM     18  C   UNL     1       1.617   2.819  21.298  0.00  0.00    +0.000 C 
ATOM     19  C   UNL     1       2.995   3.084  20.683  0.00  0.00    +0.000 C 
ENDBRANCH  14  15
ENDBRANCH   3   5
BRANCH   2  20
ATOM     20  C   UNL     1       1.930   7.894  20.491  0.00  0.00    +0.000 C 
BRANCH  20  21
ATOM     21  C   UNL     1       0.661   8.661  20.150  0.00  0.00    +0.000 C 
BRANCH  21  22
ATOM     22  N   UNL     1       0.930  10.080  19.976  0.00  0.00    +0.000 N 
ATOM     23  C   UNL     1       0.878  11.001  20.978  0.00  0.00    +0.000 C 
ATOM     24  O   UNL     1       0.604  10.844  22.154  0.00  0.00    +0.000 OA
ATOM     25  C   UNL     1       1.283  12.278  20.391  0.00  0.00    +0.000 A 
ATOM     26  C   UNL     1       1.384  13.535  20.954  0.00  0.00    +0.000 A 
ATOM     27  C   UNL     1       1.835  14.571  20.126  0.00  0.00    +0.000 A 
ATOM     28  C   UNL     1       2.173  14.326  18.779  0.00  0.00    +0.000 A 
ATOM     29  C   UNL     1       2.065  13.044  18.233  0.00  0.00    +0.000 A 
ATOM     30  C   UNL     1       1.615  12.042  19.070  0.00  0.00    +0.000 A 
ATOM     31  C   UNL     1       1.420  10.613  18.814  0.00  0.00    +0.000 C 
ATOM     32  O   UNL     1       1.705  10.064  17.771  0.00  0.00    +0.000 OA
ENDBRANCH  21  22
ENDBRANCH  20  21
ENDBRANCH   2  20
TORSDOF 5
ENDMDL
MODEL 7
REMARK VINA RESULT:      -8.2      1.160      1.331
REMARK  Name = 
REMARK  5 active torsions:
REMARK  status: ('A' for Active; 'I' for Inactive)
REMARK    1  A    between atoms: C_2  and  C_3
REMARK    2  A    between atoms: C_3  and  C_4
REMARK    3  A    between atoms: C_4  and  N_5
REMARK    4  A    between atoms: N_16  and  C_17
REMARK    5  A    between atoms: C_26  and  N_27
REMARK                            x       y       z     vdW  Elec       q    Type
REMARK                         _______ _______ _______ _____ _____    ______ ____
ROOT
ATOM      1  O   UNL     1       2.162   8.605  17.173  0.00  0.00    +0.000 OA
ATOM      2  C   UNL     1       2.134   8.427  18.385  0.00  0.00    +0.000 C 
ATOM      3  N   UNL     1       2.623   7.323  19.056  0.00  0.00    +0.000 N 
ATOM      4  H   UNL     1       2.908   7.444  20.016  0.00  0.00    +0.000 HD
ENDROOT
BRANCH   3   5
ATOM      5  C   UNL     1       3.356   6.347  18.366  0.00  0.00    +0.000 A 
ATOM      6  N   UNL     1       4.179   6.781  17.389  0.00  0.00    +0.000 NA
ATOM      7  C   UNL     1       4.761   5.843  16.639  0.00  0.00    +0.000 A 
ATOM      8  C   UNL     1       5.566   6.250  15.580  0.00  0.00    +0.000 A 
ATOM      9  C   UNL     1       6.218   5.331  14.768  0.00  0.00    +0.000 A 
ATOM     10  C   UNL     1       6.072   3.974  15.026  0.00  0.00    +0.000 A 
ATOM     11  C   UNL     1       5.242   3.557  16.077  0.00  0.00    +0.000 A 
ATOM     12  C   UNL     1       4.555   4.465  16.881  0.00  0.00    +0.000 A 
ATOM     13  N   UNL     1       3.709   4.038  17.859  0.00  0.00    +0.000 NA
ATOM     14  C   UNL     1       3.085   4.977  18.620  0.00  0.00    +0.000 A 
BRANCH  14  15
ATOM     15  N   UNL     1       2.173   4.578  19.599  0.00  0.00    +0.000 N 
ATOM     16  C   UNL     1       2.490   4.613  21.028  0.00  0.00    +0.000 C 
ATOM     17  C   UNL     1       1.903   3.332  21.599  0.00  0.00    +0.000 C 
ATOM     18  C   UNL     1       0.729   3.049  20.680  0.00  0.00    +0.000 C 
ATOM     19  C   UNL     1       1.203   3.528  19.304  0.00  0.00    +0.000 C 
ENDBRANCH  14  15
ENDBRANCH   3   5
BRANCH   2  20
ATOM     20  C   UNL     1       1.685   9.509  19.341  0.00  0.00    +0.000 C 
BRANCH  20  21
ATOM     21  C   UNL     1       0.589   8.988  20.259  0.00  0.00    +0.000 C 
BRANCH  21  22
ATOM     22  N   UNL     1      -0.230  10.073  20.776  0.00  0.00    +0.000 N 
ATOM     23  C   UNL     1      -0.195  10.518  22.062  0.00  0.00    +0.000 C 
ATOM     24  O   UNL     1       0.479  10.120  22.996  0.00  0.00    +0.000 OA
ATOM     25  C   UNL     1      -1.113  11.655  22.136  0.00  0.00    +0.000 A 
ATOM     26  C   UNL     1      -1.469  12.456  23.202  0.00  0.00    +0.000 A 
ATOM     27  C   UNL     1      -2.365  13.501  22.945  0.00  0.00    +0.000 A 
ATOM     28  C   UNL     1      -2.870  13.718  21.646  0.00  0.00    +0.000 A 
ATOM     29  C   UNL     1      -2.491  12.896  20.582  0.00  0.00    +0.000 A 
ATOM     30  C   UNL     1      -1.610  11.871  20.864  0.00  0.00    +0.000 A 
ATOM     31  C   UNL     1      -1.009  10.869  19.979  0.00  0.00    +0.000 C 
ATOM     32  O   UNL     1      -1.173  10.838  18.778  0.00  0.00    +0.000 OA
ENDBRANCH  21  22
ENDBRANCH  20  21
ENDBRANCH   2  20
TORSDOF 5
ENDMDL
MODEL 8
REMARK VINA RESULT:      -8.1      1.184      2.047
REMARK  Name = 
REMARK  5 active torsions:
REMARK  status: ('A' for Active; 'I' for Inactive)
REMARK    1  A    between atoms: C_2  and  C_3
REMARK    2  A    between atoms: C_3  and  C_4
REMARK    3  A    between atoms: C_4  and  N_5
REMARK    4  A    between atoms: N_16  and  C_17
REMARK    5  A    between atoms: C_26  and  N_27
REMARK                            x       y       z     vdW  Elec       q    Type
REMARK                         _______ _______ _______ _____ _____    ______ ____
ROOT
ATOM      1  O   UNL     1       2.275   8.611  17.089  0.00  0.00    +0.000 OA
ATOM      2  C   UNL     1       2.255   8.452  18.304  0.00  0.00    +0.000 C 
ATOM      3  N   UNL     1       2.731   7.350  18.987  0.00  0.00    +0.000 N 
ATOM      4  H   UNL     1       3.028   7.481  19.942  0.00  0.00    +0.000 HD
ENDROOT
BRANCH   3   5
ATOM      5  C   UNL     1       3.439   6.350  18.306  0.00  0.00    +0.000 A 
ATOM      6  N   UNL     1       4.278   6.756  17.330  0.00  0.00    +0.000 NA
ATOM      7  C   UNL     1       4.837   5.798  16.586  0.00  0.00    +0.000 A 
ATOM      8  C   UNL     1       5.657   6.177  15.529  0.00  0.00    +0.000 A 
ATOM      9  C   UNL     1       6.286   5.236  14.724  0.00  0.00    +0.000 A 
ATOM     10  C   UNL     1       6.102   3.885  14.989  0.00  0.00    +0.000 A 
ATOM     11  C   UNL     1       5.256   3.497  16.039  0.00  0.00    +0.000 A 
ATOM     12  C   UNL     1       4.592   4.428  16.835  0.00  0.00    +0.000 A 
ATOM     13  N   UNL     1       3.730   4.030  17.812  0.00  0.00    +0.000 NA
ATOM     14  C   UNL     1       3.130   4.989  18.566  0.00  0.00    +0.000 A 
BRANCH  14  15
ATOM     15  N   UNL     1       2.202   4.621  19.542  0.00  0.00    +0.000 N 
ATOM     16  C   UNL     1       2.523   4.630  20.971  0.00  0.00    +0.000 C 
ATOM     17  C   UNL     1       1.883   3.370  21.531  0.00  0.00    +0.000 C 
ATOM     18  C   UNL     1       0.697   3.146  20.613  0.00  0.00    +0.000 C 
ATOM     19  C   UNL     1       1.189   3.616  19.240  0.00  0.00    +0.000 C 
ENDBRANCH  14  15
ENDBRANCH   3   5
BRANCH   2  20
ATOM     20  C   UNL     1       1.835   9.557  19.247  0.00  0.00    +0.000 C 
BRANCH  20  21
ATOM     21  C   UNL     1       0.740   9.069  20.185  0.00  0.00    +0.000 C 
BRANCH  21  22
ATOM     22  N   UNL     1      -0.067  10.175  20.677  0.00  0.00    +0.000 N 
ATOM     23  C   UNL     1      -0.994  10.840  19.935  0.00  0.00    +0.000 C 
ATOM     24  O   UNL     1      -1.316  10.669  18.773  0.00  0.00    +0.000 OA
ATOM     25  C   UNL     1      -1.619  11.818  20.827  0.00  0.00    +0.000 A 
ATOM     26  C   UNL     1      -2.600  12.759  20.584  0.00  0.00    +0.000 A 
ATOM     27  C   UNL     1      -3.015  13.542  21.668  0.00  0.00    +0.000 A 
ATOM     28  C   UNL     1      -2.452  13.363  22.949  0.00  0.00    +0.000 A 
ATOM     29  C   UNL     1      -1.463  12.400  23.170  0.00  0.00    +0.000 A 
ATOM     30  C   UNL     1      -1.069  11.645  22.083  0.00  0.00    +0.000 A 
ATOM     31  C   UNL     1      -0.091  10.557  21.991  0.00  0.00    +0.000 C 
ATOM     32  O   UNL     1       0.507  10.100  22.942  0.00  0.00    +0.000 OA
ENDBRANCH  21  22
ENDBRANCH  20  21
ENDBRANCH   2  20
TORSDOF 5
ENDMDL
MODEL 9
REMARK VINA RESULT:      -8.1      1.589      2.439
REMARK  Name = 
REMARK  5 active torsions:
REMARK  status: ('A' for Active; 'I' for Inactive)
REMARK    1  A    between atoms: C_2  and  C_3
REMARK    2  A    between atoms: C_3  and  C_4
REMARK    3  A    between atoms: C_4  and  N_5
REMARK    4  A    between atoms: N_16  and  C_17
REMARK    5  A    between atoms: C_26  and  N_27
REMARK                            x       y       z     vdW  Elec       q    Type
REMARK                         _______ _______ _______ _____ _____    ______ ____
ROOT
ATOM      1  O   UNL     1       1.805   8.454  17.456  0.00  0.00    +0.000 OA
ATOM      2  C   UNL     1       1.845   8.272  18.666  0.00  0.00    +0.000 C 
ATOM      3  N   UNL     1       2.449   7.209  19.308  0.00  0.00    +0.000 N 
ATOM      4  H   UNL     1       2.768   7.350  20.254  0.00  0.00    +0.000 HD
ENDROOT
BRANCH   3   5
ATOM      5  C   UNL     1       3.224   6.294  18.581  0.00  0.00    +0.000 A 
ATOM      6  N   UNL     1       4.001   6.799  17.600  0.00  0.00    +0.000 NA
ATOM      7  C   UNL     1       4.621   5.915  16.815  0.00  0.00    +0.000 A 
ATOM      8  C   UNL     1       5.380   6.394  15.753  0.00  0.00    +0.000 A 
ATOM      9  C   UNL     1       6.068   5.534  14.905  0.00  0.00    +0.000 A 
ATOM     10  C   UNL     1       6.006   4.166  15.132  0.00  0.00    +0.000 A 
ATOM     11  C   UNL     1       5.222   3.676  16.187  0.00  0.00    +0.000 A 
ATOM     12  C   UNL     1       4.501   4.523  17.027  0.00  0.00    +0.000 A 
ATOM     13  N   UNL     1       3.700   4.023  18.009  0.00  0.00    +0.000 NA
ATOM     14  C   UNL     1       3.038   4.905  18.805  0.00  0.00    +0.000 A 
BRANCH  14  15
ATOM     15  N   UNL     1       2.170   4.430  19.790  0.00  0.00    +0.000 N 
ATOM     16  C   UNL     1       2.548   4.364  21.203  0.00  0.00    +0.000 C 
ATOM     17  C   UNL     1       1.991   3.041  21.703  0.00  0.00    +0.000 C 
ATOM     18  C   UNL     1       0.780   2.817  20.817  0.00  0.00    +0.000 C 
ATOM     19  C   UNL     1       1.193   3.397  19.460  0.00  0.00    +0.000 C 
ENDBRANCH  14  15
ENDBRANCH   3   5
BRANCH   2  20
ATOM     20  C   UNL     1       1.358   9.315  19.647  0.00  0.00    +0.000 C 
BRANCH  20  21
ATOM     21  C   UNL     1       1.135  10.645  18.944  0.00  0.00    +0.000 C 
BRANCH  21  22
ATOM     22  N   UNL     1      -0.123  11.255  19.348  0.00  0.00    +0.000 N 
ATOM     23  C   UNL     1      -1.283  11.164  18.642  0.00  0.00    +0.000 C 
ATOM     24  O   UNL     1      -1.499  10.598  17.585  0.00  0.00    +0.000 OA
ATOM     25  C   UNL     1      -2.306  11.850  19.431  0.00  0.00    +0.000 A 
ATOM     26  C   UNL     1      -3.645  12.071  19.172  0.00  0.00    +0.000 A 
ATOM     27  C   UNL     1      -4.381  12.747  20.153  0.00  0.00    +0.000 A 
ATOM     28  C   UNL     1      -3.772  13.173  21.351  0.00  0.00    +0.000 A 
ATOM     29  C   UNL     1      -2.416  12.934  21.592  0.00  0.00    +0.000 A 
ATOM     30  C   UNL     1      -1.712  12.270  20.607  0.00  0.00    +0.000 A 
ATOM     31  C   UNL     1      -0.309  11.851  20.566  0.00  0.00    +0.000 C 
ATOM     32  O   UNL     1       0.469  11.992  21.486  0.00  0.00    +0.000 OA
ENDBRANCH  21  22
ENDBRANCH  20  21
ENDBRANCH   2  20
TORSDOF 5
ENDMDL
