MODEL 1
REMARK VINA RESULT:      -8.5      0.000      0.000
REMARK  Name = 
REMARK  8 active torsions:
REMARK  status: ('A' for Active; 'I' for Inactive)
REMARK    1  A    between atoms: C_1  and  C_2
REMARK    2  A    between atoms: C_5  and  C_6
REMARK    3  A    between atoms: C_6  and  N_7
REMARK    4  A    between atoms: C_6  and  C_20
REMARK    5  A    between atoms: C_8  and  C_10
REMARK    6  A    between atoms: C_13  and  S_14
REMARK    7  A    between atoms: S_14  and  C_15
REMARK    8  A    between atoms: C_27  and  C_28
REMARK                            x       y       z     vdW  Elec       q    Type
REMARK                         _______ _______ _______ _____ _____    ______ ____
ROOT
ATOM      1  C   UNL     1       0.376  10.761  19.756  0.00  0.00    +0.000 C 
ENDROOT
BRANCH   1   6
ATOM      2  C   UNL     1      -4.817  11.479  17.129  0.00  0.00    +0.000 C 
ATOM      3  C   UNL     1      -3.475  11.301  17.786  0.00  0.00    +0.000 A 
ATOM      4  C   UNL     1      -3.189  11.996  18.970  0.00  0.00    +0.000 A 
ATOM      5  C   UNL     1      -1.951  11.854  19.604  0.00  0.00    +0.000 A 
ATOM      6  C   UNL     1      -0.976  10.992  19.085  0.00  0.00    +0.000 A 
ATOM      7  C   UNL     1      -1.274  10.289  17.904  0.00  0.00    +0.000 A 
ATOM      8  C   UNL     1      -2.493  10.463  17.230  0.00  0.00    +0.000 A 
ATOM      9  C   UNL     1      -2.701   9.770  15.911  0.00  0.00    +0.000 C 
ENDBRANCH   1   6
BRANCH   1  10
ATOM     10  C   UNL     1       1.377  11.908  19.574  0.00  0.00    +0.000 A 
ATOM     11  C   UNL     1       1.612  12.788  20.647  0.00  0.00    +0.000 A 
ATOM     12  C   UNL     1       2.446  13.903  20.503  0.00  0.00    +0.000 A 
ATOM     13  C   UNL     1       3.075  14.147  19.285  0.00  0.00    +0.000 A 
ATOM     14  C   UNL     1       2.889  13.267  18.222  0.00  0.00    +0.000 A 
ATOM     15  C   UNL     1       2.055  12.153  18.367  0.00  0.00    +0.000 A 
ENDBRANCH   1  10
BRANCH   1  16
ATOM     16  N   UNL     1       0.977   9.488  19.382  0.00  0.00    +0.000 N 
ATOM     17  C   UNL     1       1.324   8.542  20.329  0.00  0.00    +0.000 C 
ATOM     18  O   UNL     1       1.164   8.691  21.533  0.00  0.00    +0.000 OA
ATOM     19  H   UNL     1       0.929   9.236  18.408  0.00  0.00    +0.000 HD
BRANCH  17  20
ATOM     20  C   UNL     1       1.960   7.289  19.822  0.00  0.00    +0.000 A 
ATOM     21  C   UNL     1       2.671   7.268  18.613  0.00  0.00    +0.000 A 
ATOM     22  C   UNL     1       3.349   6.116  18.209  0.00  0.00    +0.000 A 
ATOM     23  C   UNL     1       3.333   4.979  19.021  0.00  0.00    +0.000 A 
ATOM     24  C   UNL     1       2.600   4.968  20.213  0.00  0.00    +0.000 A 
ATOM     25  C   UNL     1       1.922   6.127  20.614  0.00  0.00    +0.000 A 
BRANCH  23  26
ATOM     26  S   UNL     1       4.201   3.516  18.491  0.00  0.00    +0.000 S 
ATOM     27  C   UNL     1       2.991   2.225  18.617  0.00  0.00    +0.000 C 
ATOM     28  O   UNL     1       4.535   3.691  17.092  0.00  0.00    +0.000 OA
ATOM     29  O   UNL     1       5.237   3.255  19.476  0.00  0.00    +0.000 OA
ENDBRANCH  23  26
ENDBRANCH  17  20
ENDBRANCH   1  16
TORSDOF 5
ENDMDL
MODEL 2
REMARK VINA RESULT:      -8.5      0.568      1.166
REMARK  Name = 
REMARK  8 active torsions:
REMARK  status: ('A' for Active; 'I' for Inactive)
REMARK    1  A    between atoms: C_1  and  C_2
REMARK    2  A    between atoms: C_5  and  C_6
REMARK    3  A    between atoms: C_6  and  N_7
REMARK    4  A    between atoms: C_6  and  C_20
REMARK    5  A    between atoms: C_8  and  C_10
REMARK    6  A    between atoms: C_13  and  S_14
REMARK    7  A    between atoms: S_14  and  C_15
REMARK    8  A    between atoms: C_27  and  C_28
REMARK                            x       y       z     vdW  Elec       q    Type
REMARK                         _______ _______ _______ _____ _____    ______ ____
ROOT
ATOM      1  C   UNL     1       0.322  10.713  19.778  0.00  0.00    +0.000 C 
ENDROOT
BRANCH   1   6
ATOM      2  C   UNL     1      -4.879  11.562  17.205  0.00  0.00    +0.000 C 
ATOM      3  C   UNL     1      -3.535  11.350  17.847  0.00  0.00    +0.000 A 
ATOM      4  C   UNL     1      -3.223  12.031  19.033  0.00  0.00    +0.000 A 
ATOM      5  C   UNL     1      -1.983  11.857  19.655  0.00  0.00    +0.000 A 
ATOM      6  C   UNL     1      -1.032  10.978  19.121  0.00  0.00    +0.000 A 
ATOM      7  C   UNL     1      -1.355  10.290  17.938  0.00  0.00    +0.000 A 
ATOM      8  C   UNL     1      -2.576  10.495  17.277  0.00  0.00    +0.000 A 
ATOM      9  C   UNL     1      -2.812   9.815  15.955  0.00  0.00    +0.000 C 
ENDBRANCH   1   6
BRANCH   1  10
ATOM     10  C   UNL     1       1.344  11.842  19.597  0.00  0.00    +0.000 A 
ATOM     11  C   UNL     1       1.609  12.704  20.678  0.00  0.00    +0.000 A 
ATOM     12  C   UNL     1       2.465  13.803  20.538  0.00  0.00    +0.000 A 
ATOM     13  C   UNL     1       3.084  14.049  19.315  0.00  0.00    +0.000 A 
ATOM     14  C   UNL     1       2.868  13.186  18.245  0.00  0.00    +0.000 A 
ATOM     15  C   UNL     1       2.013  12.088  18.386  0.00  0.00    +0.000 A 
ENDBRANCH   1  10
BRANCH   1  16
ATOM     16  N   UNL     1       0.893   9.433  19.386  0.00  0.00    +0.000 N 
ATOM     17  C   UNL     1       1.386   8.541  20.320  0.00  0.00    +0.000 C 
ATOM     18  O   UNL     1       1.389   8.748  21.527  0.00  0.00    +0.000 OA
ATOM     19  H   UNL     1       0.719   9.131  18.440  0.00  0.00    +0.000 HD
BRANCH  17  20
ATOM     20  C   UNL     1       1.975   7.273  19.792  0.00  0.00    +0.000 A 
ATOM     21  C   UNL     1       1.833   6.060  20.481  0.00  0.00    +0.000 A 
ATOM     22  C   UNL     1       2.296   4.868  19.919  0.00  0.00    +0.000 A 
ATOM     23  C   UNL     1       2.891   4.880  18.655  0.00  0.00    +0.000 A 
ATOM     24  C   UNL     1       3.074   6.085  17.968  0.00  0.00    +0.000 A 
ATOM     25  C   UNL     1       2.607   7.278  18.535  0.00  0.00    +0.000 A 
BRANCH  23  26
ATOM     26  S   UNL     1       3.478   3.351  17.953  0.00  0.00    +0.000 S 
ATOM     27  C   UNL     1       3.937   2.376  19.362  0.00  0.00    +0.000 C 
ATOM     28  O   UNL     1       2.353   2.710  17.304  0.00  0.00    +0.000 OA
ATOM     29  O   UNL     1       4.689   3.660  17.210  0.00  0.00    +0.000 OA
ENDBRANCH  23  26
ENDBRANCH  17  20
ENDBRANCH   1  16
TORSDOF 5
ENDMDL
MODEL 3
REMARK VINA RESULT:      -8.3      0.731      1.356
REMARK  Name = 
REMARK  8 active torsions:
REMARK  status: ('A' for Active; 'I' for Inactive)
REMARK    1  A    between atoms: C_1  and  C_2
REMARK    2  A    between atoms: C_5  and  C_6
REMARK    3  A    between atoms: C_6  and  N_7
REMARK    4  A    between atoms: C_6  and  C_20
REMARK    5  A    between atoms: C_8  and  C_10
REMARK    6  A    between atoms: C_13  and  S_14
REMARK    7  A    between atoms: S_14  and  C_15
REMARK    8  A    between atoms: C_27  and  C_28
REMARK                            x       y       z     vdW  Elec       q    Type
REMARK                         _______ _______ _______ _____ _____    ______ ____
ROOT
ATOM      1  C   UNL     1       0.435  10.934  19.773  0.00  0.00    +0.000 C 
ENDROOT
BRANCH   1   6
ATOM      2  C   UNL     1      -4.845  11.389  17.264  0.00  0.00    +0.000 C 
ATOM      3  C   UNL     1      -3.482  11.279  17.890  0.00  0.00    +0.000 A 
ATOM      4  C   UNL     1      -3.210  11.976  19.077  0.00  0.00    +0.000 A 
ATOM      5  C   UNL     1      -1.953  11.896  19.684  0.00  0.00    +0.000 A 
ATOM      6  C   UNL     1      -0.943  11.096  19.134  0.00  0.00    +0.000 A 
ATOM      7  C   UNL     1      -1.225  10.392  17.950  0.00  0.00    +0.000 A 
ATOM      8  C   UNL     1      -2.466  10.504  17.303  0.00  0.00    +0.000 A 
ATOM      9  C   UNL     1      -2.663   9.816  15.980  0.00  0.00    +0.000 C 
ENDBRANCH   1   6
BRANCH   1  10
ATOM     10  C   UNL     1       1.346  12.160  19.632  0.00  0.00    +0.000 A 
ATOM     11  C   UNL     1       2.014  12.379  18.412  0.00  0.00    +0.000 A 
ATOM     12  C   UNL     1       2.925  13.430  18.263  0.00  0.00    +0.000 A 
ATOM     13  C   UNL     1       3.172  14.293  19.327  0.00  0.00    +0.000 A 
ATOM     14  C   UNL     1       2.491  14.120  20.529  0.00  0.00    +0.000 A 
ATOM     15  C   UNL     1       1.580  13.068  20.679  0.00  0.00    +0.000 A 
ENDBRANCH   1  10
BRANCH   1  16
ATOM     16  N   UNL     1       1.120   9.729  19.330  0.00  0.00    +0.000 N 
ATOM     17  C   UNL     1       1.263   8.629  20.155  0.00  0.00    +0.000 C 
ATOM     18  O   UNL     1       0.840   8.577  21.302  0.00  0.00    +0.000 OA
ATOM     19  H   UNL     1       1.291   9.645  18.340  0.00  0.00    +0.000 HD
BRANCH  17  20
ATOM     20  C   UNL     1       2.012   7.463  19.595  0.00  0.00    +0.000 A 
ATOM     21  C   UNL     1       2.648   7.536  18.347  0.00  0.00    +0.000 A 
ATOM     22  C   UNL     1       3.433   6.475  17.889  0.00  0.00    +0.000 A 
ATOM     23  C   UNL     1       3.598   5.339  18.684  0.00  0.00    +0.000 A 
ATOM     24  C   UNL     1       2.942   5.232  19.916  0.00  0.00    +0.000 A 
ATOM     25  C   UNL     1       2.156   6.299  20.372  0.00  0.00    +0.000 A 
BRANCH  23  26
ATOM     26  S   UNL     1       4.600   3.993  18.085  0.00  0.00    +0.000 S 
ATOM     27  C   UNL     1       5.304   4.614  16.580  0.00  0.00    +0.000 C 
ATOM     28  O   UNL     1       5.672   3.790  19.038  0.00  0.00    +0.000 OA
ATOM     29  O   UNL     1       3.697   2.908  17.740  0.00  0.00    +0.000 OA
ENDBRANCH  23  26
ENDBRANCH  17  20
ENDBRANCH   1  16
TORSDOF 5
ENDMDL
MODEL 4
REMARK VINA RESULT:      -8.2      0.354      1.597
REMARK  Name = 
REMARK  8 active torsions:
REMARK  status: ('A' for Active; 'I' for Inactive)
REMARK    1  A    between atoms: C_1  and  C_2
REMARK    2  A    between atoms: C_5  and  C_6
REMARK    3  A    between atoms: C_6  and  N_7
REMARK    4  A    between atoms: C_6  and  C_20
REMARK    5  A    between atoms: C_8  and  C_10
REMARK    6  A    between atoms: C_13  and  S_14
REMARK    7  A    between atoms: S_14  and  C_15
REMARK    8  A    between atoms: C_27  and  C_28
REMARK                            x       y       z     vdW  Elec       q    Type
REMARK                         _______ _______ _______ _____ _____    ______ ____
ROOT
ATOM      1  C   UNL     1       0.352  10.581  19.684  0.00  0.00    +0.000 C 
ENDROOT
BRANCH   1   6
ATOM      2  C   UNL     1      -4.688  11.350  16.789  0.00  0.00    +0.000 C 
ATOM      3  C   UNL     1      -3.406  11.146  17.548  0.00  0.00    +0.000 A 
ATOM      4  C   UNL     1      -2.396  10.345  16.993  0.00  0.00    +0.000 A 
ATOM      5  C   UNL     1      -1.193  10.134  17.673  0.00  0.00    +0.000 A 
ATOM      6  C   UNL     1      -0.957  10.738  18.915  0.00  0.00    +0.000 A 
ATOM      7  C   UNL     1      -1.969  11.548  19.460  0.00  0.00    +0.000 A 
ATOM      8  C   UNL     1      -3.201  11.726  18.812  0.00  0.00    +0.000 A 
ATOM      9  C   UNL     1      -4.283  12.510  19.504  0.00  0.00    +0.000 C 
ENDBRANCH   1   6
BRANCH   1  10
ATOM     10  C   UNL     1       1.314  11.768  19.545  0.00  0.00    +0.000 A 
ATOM     11  C   UNL     1       1.502  12.628  20.644  0.00  0.00    +0.000 A 
ATOM     12  C   UNL     1       2.298  13.775  20.539  0.00  0.00    +0.000 A 
ATOM     13  C   UNL     1       2.934  14.072  19.337  0.00  0.00    +0.000 A 
ATOM     14  C   UNL     1       2.795  13.214  18.251  0.00  0.00    +0.000 A 
ATOM     15  C   UNL     1       1.999  12.067  18.355  0.00  0.00    +0.000 A 
ENDBRANCH   1  10
BRANCH   1  16
ATOM     16  N   UNL     1       1.032   9.329  19.384  0.00  0.00    +0.000 N 
ATOM     17  C   UNL     1       1.333   8.411  20.372  0.00  0.00    +0.000 C 
ATOM     18  O   UNL     1       1.066   8.569  21.556  0.00  0.00    +0.000 OA
ATOM     19  H   UNL     1       1.078   9.062  18.413  0.00  0.00    +0.000 HD
BRANCH  17  20
ATOM     20  C   UNL     1       2.059   7.177  19.942  0.00  0.00    +0.000 A 
ATOM     21  C   UNL     1       1.946   5.977  20.659  0.00  0.00    +0.000 A 
ATOM     22  C   UNL     1       2.544   4.808  20.183  0.00  0.00    +0.000 A 
ATOM     23  C   UNL     1       3.248   4.830  18.976  0.00  0.00    +0.000 A 
ATOM     24  C   UNL     1       3.403   6.025  18.265  0.00  0.00    +0.000 A 
ATOM     25  C   UNL     1       2.799   7.195  18.747  0.00  0.00    +0.000 A 
BRANCH  23  26
ATOM     26  S   UNL     1       4.008   3.331  18.382  0.00  0.00    +0.000 S 
ATOM     27  C   UNL     1       2.660   2.185  18.252  0.00  0.00    +0.000 C 
ATOM     28  O   UNL     1       4.509   3.595  17.049  0.00  0.00    +0.000 OA
ATOM     29  O   UNL     1       4.896   2.858  19.431  0.00  0.00    +0.000 OA
ENDBRANCH  23  26
ENDBRANCH  17  20
ENDBRANCH   1  16
TORSDOF 5
ENDMDL
MODEL 5
REMARK VINA RESULT:      -8.1      0.479      1.372
REMARK  Name = 
REMARK  8 active torsions:
REMARK  status: ('A' for Active; 'I' for Inactive)
REMARK    1  A    between atoms: C_1  and  C_2
REMARK    2  A    between atoms: C_5  and  C_6
REMARK    3  A    between atoms: C_6  and  N_7
REMARK    4  A    between atoms: C_6  and  C_20
REMARK    5  A    between atoms: C_8  and  C_10
REMARK    6  A    between atoms: C_13  and  S_14
REMARK    7  A    between atoms: S_14  and  C_15
REMARK    8  A    between atoms: C_27  and  C_28
REMARK                            x       y       z     vdW  Elec       q    Type
REMARK                         _______ _______ _______ _____ _____    ______ ____
ROOT
ATOM      1  C   UNL     1       0.399  10.730  19.736  0.00  0.00    +0.000 C 
ENDROOT
BRANCH   1   6
ATOM      2  C   UNL     1      -4.756  11.440  17.032  0.00  0.00    +0.000 C 
ATOM      3  C   UNL     1      -3.443  11.251  17.742  0.00  0.00    +0.000 A 
ATOM      4  C   UNL     1      -2.453  10.446  17.159  0.00  0.00    +0.000 A 
ATOM      5  C   UNL     1      -1.223  10.249  17.793  0.00  0.00    +0.000 A 
ATOM      6  C   UNL     1      -0.941  10.871  19.016  0.00  0.00    +0.000 A 
ATOM      7  C   UNL     1      -1.934  11.685  19.590  0.00  0.00    +0.000 A 
ATOM      8  C   UNL     1      -3.191  11.850  18.989  0.00  0.00    +0.000 A 
ATOM      9  C   UNL     1      -4.247  12.640  19.713  0.00  0.00    +0.000 C 
ENDBRANCH   1   6
BRANCH   1  10
ATOM     10  C   UNL     1       1.325  11.943  19.592  0.00  0.00    +0.000 A 
ATOM     11  C   UNL     1       1.455  12.836  20.673  0.00  0.00    +0.000 A 
ATOM     12  C   UNL     1       2.216  14.006  20.561  0.00  0.00    +0.000 A 
ATOM     13  C   UNL     1       2.876  14.294  19.369  0.00  0.00    +0.000 A 
ATOM     14  C   UNL     1       2.794  13.404  18.302  0.00  0.00    +0.000 A 
ATOM     15  C   UNL     1       2.033  12.235  18.414  0.00  0.00    +0.000 A 
ENDBRANCH   1  10
BRANCH   1  16
ATOM     16  N   UNL     1       1.098   9.503  19.381  0.00  0.00    +0.000 N 
ATOM     17  C   UNL     1       1.247   8.465  20.282  0.00  0.00    +0.000 C 
ATOM     18  O   UNL     1       0.818   8.489  21.428  0.00  0.00    +0.000 OA
ATOM     19  H   UNL     1       1.276   9.351  18.401  0.00  0.00    +0.000 HD
BRANCH  17  20
ATOM     20  C   UNL     1       2.010   7.270  19.809  0.00  0.00    +0.000 A 
ATOM     21  C   UNL     1       2.781   7.314  18.638  0.00  0.00    +0.000 A 
ATOM     22  C   UNL     1       3.572   6.224  18.270  0.00  0.00    +0.000 A 
ATOM     23  C   UNL     1       3.608   5.086  19.080  0.00  0.00    +0.000 A 
ATOM     24  C   UNL     1       2.818   5.009  20.232  0.00  0.00    +0.000 A 
ATOM     25  C   UNL     1       2.027   6.106  20.598  0.00  0.00    +0.000 A 
BRANCH  23  26
ATOM     26  S   UNL     1       4.621   3.702  18.595  0.00  0.00    +0.000 S 
ATOM     27  C   UNL     1       4.004   2.353  19.568  0.00  0.00    +0.000 C 
ATOM     28  O   UNL     1       4.340   3.423  17.202  0.00  0.00    +0.000 OA
ATOM     29  O   UNL     1       5.975   3.988  19.038  0.00  0.00    +0.000 OA
ENDBRANCH  23  26
ENDBRANCH  17  20
ENDBRANCH   1  16
TORSDOF 5
ENDMDL
MODEL 6
REMARK VINA RESULT:      -8.0      0.729      2.052
REMARK  Name = 
REMARK  8 active torsions:
REMARK  status: ('A' for Active; 'I' for Inactive)
REMARK    1  A    between atoms: C_1  and  C_2
REMARK    2  A    between atoms: C_5  and  C_6
REMARK    3  A    between atoms: C_6  and  N_7
REMARK    4  A    between atoms: C_6  and  C_20
REMARK    5  A    between atoms: C_8  and  C_10
REMARK    6  A    between atoms: C_13  and  S_14
REMARK    7  A    between atoms: S_14  and  C_15
REMARK    8  A    between atoms: C_27  and  C_28
REMARK                            x       y       z     vdW  Elec       q    Type
REMARK                         _______ _______ _______ _____ _____    ______ ____
ROOT
ATOM      1  C   UNL     1       0.388  10.747  19.793  0.00  0.00    +0.000 C 
ENDROOT
BRANCH   1   6
ATOM      2  C   UNL     1      -4.718  11.317  16.967  0.00  0.00    +0.000 C 
ATOM      3  C   UNL     1      -3.418  11.164  17.708  0.00  0.00    +0.000 A 
ATOM      4  C   UNL     1      -2.407  10.356  17.168  0.00  0.00    +0.000 A 
ATOM      5  C   UNL     1      -1.188  10.192  17.832  0.00  0.00    +0.000 A 
ATOM      6  C   UNL     1      -0.938  10.852  19.043  0.00  0.00    +0.000 A 
ATOM      7  C   UNL     1      -1.952  11.669  19.573  0.00  0.00    +0.000 A 
ATOM      8  C   UNL     1      -3.199  11.801  18.942  0.00  0.00    +0.000 A 
ATOM      9  C   UNL     1      -4.279  12.598  19.622  0.00  0.00    +0.000 C 
ENDBRANCH   1   6
BRANCH   1  10
ATOM     10  C   UNL     1       1.299  11.971  19.641  0.00  0.00    +0.000 A 
ATOM     11  C   UNL     1       1.948  12.193  18.411  0.00  0.00    +0.000 A 
ATOM     12  C   UNL     1       2.859  13.244  18.250  0.00  0.00    +0.000 A 
ATOM     13  C   UNL     1       3.123  14.103  19.313  0.00  0.00    +0.000 A 
ATOM     14  C   UNL     1       2.462  13.927  20.525  0.00  0.00    +0.000 A 
ATOM     15  C   UNL     1       1.551  12.876  20.686  0.00  0.00    +0.000 A 
ENDBRANCH   1  10
BRANCH   1  16
ATOM     16  N   UNL     1       1.113   9.523  19.481  0.00  0.00    +0.000 N 
ATOM     17  C   UNL     1       1.162   8.462  20.365  0.00  0.00    +0.000 C 
ATOM     18  O   UNL     1       0.619   8.462  21.462  0.00  0.00    +0.000 OA
ATOM     19  H   UNL     1       1.390   9.395  18.520  0.00  0.00    +0.000 HD
BRANCH  17  20
ATOM     20  C   UNL     1       1.964   7.273  19.942  0.00  0.00    +0.000 A 
ATOM     21  C   UNL     1       1.951   6.083  20.684  0.00  0.00    +0.000 A 
ATOM     22  C   UNL     1       2.619   4.950  20.216  0.00  0.00    +0.000 A 
ATOM     23  C   UNL     1       3.293   4.995  18.994  0.00  0.00    +0.000 A 
ATOM     24  C   UNL     1       3.347   6.183  18.256  0.00  0.00    +0.000 A 
ATOM     25  C   UNL     1       2.674   7.318  18.729  0.00  0.00    +0.000 A 
BRANCH  23  26
ATOM     26  S   UNL     1       4.143   3.541  18.411  0.00  0.00    +0.000 S 
ATOM     27  C   UNL     1       4.941   4.074  16.919  0.00  0.00    +0.000 C 
ATOM     28  O   UNL     1       5.167   3.217  19.383  0.00  0.00    +0.000 OA
ATOM     29  O   UNL     1       3.125   2.568  18.050  0.00  0.00    +0.000 OA
ENDBRANCH  23  26
ENDBRANCH  17  20
ENDBRANCH   1  16
TORSDOF 5
ENDMDL
MODEL 7
REMARK VINA RESULT:      -8.0      0.699      1.911
REMARK  Name = 
REMARK  8 active torsions:
REMARK  status: ('A' for Active; 'I' for Inactive)
REMARK    1  A    between atoms: C_1  and  C_2
REMARK    2  A    between atoms: C_5  and  C_6
REMARK    3  A    between atoms: C_6  and  N_7
REMARK    4  A    between atoms: C_6  and  C_20
REMARK    5  A    between atoms: C_8  and  C_10
REMARK    6  A    between atoms: C_13  and  S_14
REMARK    7  A    between atoms: S_14  and  C_15
REMARK    8  A    between atoms: C_27  and  C_28
REMARK                            x       y       z     vdW  Elec       q    Type
REMARK                         _______ _______ _______ _____ _____    ______ ____
ROOT
ATOM      1  C   UNL     1       0.326  10.709  19.741  0.00  0.00    +0.000 C 
ENDROOT
BRANCH   1   6
ATOM      2  C   UNL     1      -4.823  11.417  17.027  0.00  0.00    +0.000 C 
ATOM      3  C   UNL     1      -3.512  11.229  17.740  0.00  0.00    +0.000 A 
ATOM      4  C   UNL     1      -2.525  10.414  17.166  0.00  0.00    +0.000 A 
ATOM      5  C   UNL     1      -1.297  10.217  17.803  0.00  0.00    +0.000 A 
ATOM      6  C   UNL     1      -1.012  10.850  19.020  0.00  0.00    +0.000 A 
ATOM      7  C   UNL     1      -2.001  11.674  19.585  0.00  0.00    +0.000 A 
ATOM      8  C   UNL     1      -3.258  11.839  18.981  0.00  0.00    +0.000 A 
ATOM      9  C   UNL     1      -4.311  12.641  19.696  0.00  0.00    +0.000 C 
ENDBRANCH   1   6
BRANCH   1  10
ATOM     10  C   UNL     1       1.235  11.939  19.633  0.00  0.00    +0.000 A 
ATOM     11  C   UNL     1       1.946  12.162  18.438  0.00  0.00    +0.000 A 
ATOM     12  C   UNL     1       2.857  13.218  18.321  0.00  0.00    +0.000 A 
ATOM     13  C   UNL     1       3.060  14.082  19.394  0.00  0.00    +0.000 A 
ATOM     14  C   UNL     1       2.339  13.904  20.571  0.00  0.00    +0.000 A 
ATOM     15  C   UNL     1       1.428  12.848  20.688  0.00  0.00    +0.000 A 
ENDBRANCH   1  10
BRANCH   1  16
ATOM     16  N   UNL     1       1.045   9.502  19.359  0.00  0.00    +0.000 N 
ATOM     17  C   UNL     1       1.271   8.475  20.257  0.00  0.00    +0.000 C 
ATOM     18  O   UNL     1       0.900   8.494  21.423  0.00  0.00    +0.000 OA
ATOM     19  H   UNL     1       1.177   9.349  18.371  0.00  0.00    +0.000 HD
BRANCH  17  20
ATOM     20  C   UNL     1       2.046   7.301  19.752  0.00  0.00    +0.000 A 
ATOM     21  C   UNL     1       2.802   7.378  18.573  0.00  0.00    +0.000 A 
ATOM     22  C   UNL     1       3.604   6.307  18.175  0.00  0.00    +0.000 A 
ATOM     23  C   UNL     1       3.668   5.155  18.963  0.00  0.00    +0.000 A 
ATOM     24  C   UNL     1       2.894   5.045  20.124  0.00  0.00    +0.000 A 
ATOM     25  C   UNL     1       2.091   6.123  20.520  0.00  0.00    +0.000 A 
BRANCH  23  26
ATOM     26  S   UNL     1       4.695   3.796  18.441  0.00  0.00    +0.000 S 
ATOM     27  C   UNL     1       6.169   4.576  17.833  0.00  0.00    +0.000 C 
ATOM     28  O   UNL     1       5.041   3.032  19.622  0.00  0.00    +0.000 OA
ATOM     29  O   UNL     1       4.028   3.164  17.315  0.00  0.00    +0.000 OA
ENDBRANCH  23  26
ENDBRANCH  17  20
ENDBRANCH   1  16
TORSDOF 5
ENDMDL
MODEL 8
REMARK VINA RESULT:      -8.0      0.990      1.348
REMARK  Name = 
REMARK  8 active torsions:
REMARK  status: ('A' for Active; 'I' for Inactive)
REMARK    1  A    between atoms: C_1  and  C_2
REMARK    2  A    between atoms: C_5  and  C_6
REMARK    3  A    between atoms: C_6  and  N_7
REMARK    4  A    between atoms: C_6  and  C_20
REMARK    5  A    between atoms: C_8  and  C_10
REMARK    6  A    between atoms: C_13  and  S_14
REMARK    7  A    between atoms: S_14  and  C_15
REMARK    8  A    between atoms: C_27  and  C_28
REMARK                            x       y       z     vdW  Elec       q    Type
REMARK                         _______ _______ _______ _____ _____    ______ ____
ROOT
ATOM      1  C   UNL     1       0.401  10.924  19.594  0.00  0.00    +0.000 C 
ENDROOT
BRANCH   1   6
ATOM      2  C   UNL     1      -4.926  11.389  17.190  0.00  0.00    +0.000 C 
ATOM      3  C   UNL     1      -3.551  11.276  17.789  0.00  0.00    +0.000 A 
ATOM      4  C   UNL     1      -3.248  11.987  18.959  0.00  0.00    +0.000 A 
ATOM      5  C   UNL     1      -1.980  11.904  19.541  0.00  0.00    +0.000 A 
ATOM      6  C   UNL     1      -0.988  11.089  18.981  0.00  0.00    +0.000 A 
ATOM      7  C   UNL     1      -1.301  10.371  17.814  0.00  0.00    +0.000 A 
ATOM      8  C   UNL     1      -2.554  10.485  17.191  0.00  0.00    +0.000 A 
ATOM      9  C   UNL     1      -2.785   9.780  15.882  0.00  0.00    +0.000 C 
ENDBRANCH   1   6
BRANCH   1  10
ATOM     10  C   UNL     1       1.249  12.202  19.593  0.00  0.00    +0.000 A 
ATOM     11  C   UNL     1       1.331  12.970  20.770  0.00  0.00    +0.000 A 
ATOM     12  C   UNL     1       2.016  14.190  20.795  0.00  0.00    +0.000 A 
ATOM     13  C   UNL     1       2.648  14.655  19.645  0.00  0.00    +0.000 A 
ATOM     14  C   UNL     1       2.615  13.893  18.482  0.00  0.00    +0.000 A 
ATOM     15  C   UNL     1       1.930  12.673  18.457  0.00  0.00    +0.000 A 
ENDBRANCH   1  10
BRANCH   1  16
ATOM     16  N   UNL     1       1.142   9.814  19.012  0.00  0.00    +0.000 N 
ATOM     17  C   UNL     1       1.496   8.705  19.759  0.00  0.00    +0.000 C 
ATOM     18  O   UNL     1       1.227   8.567  20.945  0.00  0.00    +0.000 OA
ATOM     19  H   UNL     1       1.196   9.785  18.006  0.00  0.00    +0.000 HD
BRANCH  17  20
ATOM     20  C   UNL     1       2.281   7.646  19.056  0.00  0.00    +0.000 A 
ATOM     21  C   UNL     1       2.950   7.911  17.852  0.00  0.00    +0.000 A 
ATOM     22  C   UNL     1       3.766   6.941  17.266  0.00  0.00    +0.000 A 
ATOM     23  C   UNL     1       3.929   5.701  17.890  0.00  0.00    +0.000 A 
ATOM     24  C   UNL     1       3.242   5.405  19.072  0.00  0.00    +0.000 A 
ATOM     25  C   UNL     1       2.426   6.382  19.657  0.00  0.00    +0.000 A 
BRANCH  23  26
ATOM     26  S   UNL     1       4.972   4.473  17.129  0.00  0.00    +0.000 S 
ATOM     27  C   UNL     1       6.515   4.620  17.992  0.00  0.00    +0.000 C 
ATOM     28  O   UNL     1       4.406   3.174  17.430  0.00  0.00    +0.000 OA
ATOM     29  O   UNL     1       5.188   4.889  15.753  0.00  0.00    +0.000 OA
ENDBRANCH  23  26
ENDBRANCH  17  20
ENDBRANCH   1  16
TORSDOF 5
ENDMDL
MODEL 9
REMARK VINA RESULT:      -7.9      1.689      4.722
REMARK  Name = 
REMARK  8 active torsions:
REMARK  status: ('A' for Active; 'I' for Inactive)
REMARK    1  A    between atoms: C_1  and  C_2
REMARK    2  A    between atoms: C_5  and  C_6
REMARK    3  A    between atoms: C_6  and  N_7
REMARK    4  A    between atoms: C_6  and  C_20
REMARK    5  A    between atoms: C_8  and  C_10
REMARK    6  A    between atoms: C_13  and  S_14
REMARK    7  A    between atoms: S_14  and  C_15
REMARK    8  A    between atoms: C_27  and  C_28
REMARK                            x       y       z     vdW  Elec       q    Type
REMARK                         _______ _______ _______ _____ _____    ______ ____
ROOT
ATOM      1  C   UNL     1       0.612  10.510  18.309  0.00  0.00    +0.000 C 
ENDROOT
BRANCH   1   6
ATOM      2  C   UNL     1       3.237  14.979  21.051  0.00  0.00    +0.000 C 
ATOM      3  C   UNL     1       2.582  13.826  20.340  0.00  0.00    +0.000 A 
ATOM      4  C   UNL     1       1.798  12.922  21.071  0.00  0.00    +0.000 A 
ATOM      5  C   UNL     1       1.176  11.839  20.442  0.00  0.00    +0.000 A 
ATOM      6  C   UNL     1       1.302  11.647  19.060  0.00  0.00    +0.000 A 
ATOM      7  C   UNL     1       2.081  12.563  18.331  0.00  0.00    +0.000 A 
ATOM      8  C   UNL     1       2.752  13.624  18.960  0.00  0.00    +0.000 A 
ATOM      9  C   UNL     1       3.661  14.499  18.140  0.00  0.00    +0.000 C 
ENDBRANCH   1   6
BRANCH   1  10
ATOM     10  C   UNL     1      -0.910  10.657  18.198  0.00  0.00    +0.000 A 
ATOM     11  C   UNL     1      -1.617   9.814  17.320  0.00  0.00    +0.000 A 
ATOM     12  C   UNL     1      -2.993   9.968  17.115  0.00  0.00    +0.000 A 
ATOM     13  C   UNL     1      -3.690  10.960  17.799  0.00  0.00    +0.000 A 
ATOM     14  C   UNL     1      -3.019  11.779  18.703  0.00  0.00    +0.000 A 
ATOM     15  C   UNL     1      -1.643  11.624  18.908  0.00  0.00    +0.000 A 
ENDBRANCH   1  10
BRANCH   1  16
ATOM     16  N   UNL     1       0.966   9.197  18.831  0.00  0.00    +0.000 N 
ATOM     17  C   UNL     1       1.963   8.431  18.257  0.00  0.00    +0.000 C 
ATOM     18  O   UNL     1       2.614   8.779  17.281  0.00  0.00    +0.000 OA
ATOM     19  H   UNL     1       0.613   8.966  19.747  0.00  0.00    +0.000 HD
BRANCH  17  20
ATOM     20  C   UNL     1       2.212   7.089  18.867  0.00  0.00    +0.000 A 
ATOM     21  C   UNL     1       1.894   6.826  20.207  0.00  0.00    +0.000 A 
ATOM     22  C   UNL     1       2.034   5.538  20.728  0.00  0.00    +0.000 A 
ATOM     23  C   UNL     1       2.480   4.500  19.906  0.00  0.00    +0.000 A 
ATOM     24  C   UNL     1       2.837   4.750  18.577  0.00  0.00    +0.000 A 
ATOM     25  C   UNL     1       2.694   6.044  18.058  0.00  0.00    +0.000 A 
BRANCH  23  26
ATOM     26  S   UNL     1       2.654   2.862  20.587  0.00  0.00    +0.000 S 
ATOM     27  C   UNL     1       4.302   2.381  20.138  0.00  0.00    +0.000 C 
ATOM     28  O   UNL     1       2.594   2.981  22.029  0.00  0.00    +0.000 OA
ATOM     29  O   UNL     1       1.727   2.002  19.872  0.00  0.00    +0.000 OA
ENDBRANCH  23  26
ENDBRANCH  17  20
ENDBRANCH   1  16
TORSDOF 5
ENDMDL
