MODEL 1
REMARK VINA RESULT:      -8.2      0.000      0.000
REMARK  Name = 
REMARK  5 active torsions:
REMARK  status: ('A' for Active; 'I' for Inactive)
REMARK    1  A    between atoms: N_2  and  C_4
REMARK    2  A    between atoms: C_6  and  S_7
REMARK    3  A    between atoms: S_7  and  N_10
REMARK    4  A    between atoms: C_17  and  O_18
REMARK    5  A    between atoms: O_18  and  C_19
REMARK                            x       y       z     vdW  Elec       q    Type
REMARK                         _______ _______ _______ _____ _____    ______ ____
ROOT
ATOM      1  C   UNL     1       1.234   8.833  20.351  0.00  0.00    +0.000 A 
ATOM      2  C   UNL     1       1.891   7.615  20.560  0.00  0.00    +0.000 A 
ATOM      3  C   UNL     1       2.410   6.928  19.463  0.00  0.00    +0.000 A 
ATOM      4  C   UNL     1       2.356   7.494  18.186  0.00  0.00    +0.000 A 
ATOM      5  C   UNL     1       1.775   8.757  18.011  0.00  0.00    +0.000 A 
ATOM      6  C   UNL     1       1.220   9.457  19.098  0.00  0.00    +0.000 A 
ENDROOT
BRANCH   1   8
ATOM      7  O   UNL     1      -0.600   8.701  21.723  0.00  0.00    +0.000 OA
ATOM      8  N   UNL     1       0.434   9.324  21.457  0.00  0.00    +0.000 N 
ATOM      9  O   UNL     1       0.802  10.382  21.987  0.00  0.00    +0.000 OA
ENDBRANCH   1   8
BRANCH   3  10
ATOM     10  S   UNL     1       3.161   5.329  19.712  0.00  0.00    +0.000 S 
ATOM     11  O   UNL     1       4.578   5.481  19.470  0.00  0.00    +0.000 OA
ATOM     12  O   UNL     1       2.661   4.828  20.974  0.00  0.00    +0.000 OA
BRANCH  10  13
ATOM     13  N   UNL     1       2.506   4.397  18.470  0.00  0.00    +0.000 NA
ATOM     14  C   UNL     1       1.218   3.716  18.667  0.00  0.00    +0.000 C 
ATOM     15  C   UNL     1       1.554   2.240  18.568  0.00  0.00    +0.000 C 
ATOM     16  C   UNL     1       2.720   2.174  17.598  0.00  0.00    +0.000 C 
ATOM     17  C   UNL     1       3.387   3.545  17.648  0.00  0.00    +0.000 C 
ENDBRANCH  10  13
ENDBRANCH   3  10
BRANCH   6  18
ATOM     18  O   UNL     1       0.649  10.664  18.766  0.00  0.00    +0.000 OA
BRANCH  18  19
ATOM     19  C   UNL     1      -0.705  10.775  18.540  0.00  0.00    +0.000 A 
ATOM     20  C   UNL     1      -1.414  10.077  17.542  0.00  0.00    +0.000 A 
ATOM     21  C   UNL     1      -2.773  10.337  17.325  0.00  0.00    +0.000 A 
ATOM     22  C   UNL     1      -3.401  11.226  18.170  0.00  0.00    +0.000 A 
ATOM     23  C   UNL     1      -2.729  11.844  19.197  0.00  0.00    +0.000 A 
ATOM     24  C   UNL     1      -1.382  11.643  19.406  0.00  0.00    +0.000 A 
ATOM     25  O   UNL     1      -3.538  12.652  19.934  0.00  0.00    +0.000 OA
ATOM     26  C   UNL     1      -4.807  12.431  19.281  0.00  0.00    +0.000 C 
ATOM     27  O   UNL     1      -4.712  11.585  18.117  0.00  0.00    +0.000 OA
ENDBRANCH  18  19
ENDBRANCH   6  18
TORSDOF 5
ENDMDL
MODEL 2
REMARK VINA RESULT:      -8.1      2.727      8.429
REMARK  Name = 
REMARK  5 active torsions:
REMARK  status: ('A' for Active; 'I' for Inactive)
REMARK    1  A    between atoms: N_2  and  C_4
REMARK    2  A    between atoms: C_6  and  S_7
REMARK    3  A    between atoms: S_7  and  N_10
REMARK    4  A    between atoms: C_17  and  O_18
REMARK    5  A    between atoms: O_18  and  C_19
REMARK                            x       y       z     vdW  Elec       q    Type
REMARK                         _______ _______ _______ _____ _____    ______ ____
ROOT
ATOM      1  C   UNL     1       1.806   4.960  20.428  0.00  0.00    +0.000 A 
ATOM      2  C   UNL     1       1.194   6.084  20.994  0.00  0.00    +0.000 A 
ATOM      3  C   UNL     1       1.556   7.353  20.541  0.00  0.00    +0.000 A 
ATOM      4  C   UNL     1       2.449   7.493  19.475  0.00  0.00    +0.000 A 
ATOM      5  C   UNL     1       2.982   6.351  18.862  0.00  0.00    +0.000 A 
ATOM      6  C   UNL     1       2.653   5.061  19.319  0.00  0.00    +0.000 A 
ENDROOT
BRANCH   1   8
ATOM      7  O   UNL     1       2.334   3.566  22.173  0.00  0.00    +0.000 OA
ATOM      8  N   UNL     1       1.648   3.714  21.155  0.00  0.00    +0.000 N 
ATOM      9  O   UNL     1       0.906   2.861  20.648  0.00  0.00    +0.000 OA
ENDBRANCH   1   8
BRANCH   3  10
ATOM     10  S   UNL     1       0.851   8.791  21.325  0.00  0.00    +0.000 S 
ATOM     11  O   UNL     1      -0.512   8.462  21.676  0.00  0.00    +0.000 OA
ATOM     12  O   UNL     1       1.802   9.226  22.325  0.00  0.00    +0.000 OA
BRANCH  10  13
ATOM     13  N   UNL     1       0.820   9.932  20.085  0.00  0.00    +0.000 NA
ATOM     14  C   UNL     1       1.116  11.342  20.380  0.00  0.00    +0.000 C 
ATOM     15  C   UNL     1      -0.173  12.073  20.052  0.00  0.00    +0.000 C 
ATOM     16  C   UNL     1      -0.795  11.270  18.925  0.00  0.00    +0.000 C 
ATOM     17  C   UNL     1      -0.226   9.860  19.047  0.00  0.00    +0.000 C 
ENDBRANCH  10  13
ENDBRANCH   3  10
BRANCH   6  18
ATOM     18  O   UNL     1       3.285   4.041  18.647  0.00  0.00    +0.000 OA
BRANCH  18  19
ATOM     19  C   UNL     1       4.462   4.258  17.964  0.00  0.00    +0.000 A 
ATOM     20  C   UNL     1       5.708   4.513  18.571  0.00  0.00    +0.000 A 
ATOM     21  C   UNL     1       6.826   4.822  17.787  0.00  0.00    +0.000 A 
ATOM     22  C   UNL     1       6.684   4.783  16.417  0.00  0.00    +0.000 A 
ATOM     23  C   UNL     1       5.490   4.453  15.825  0.00  0.00    +0.000 A 
ATOM     24  C   UNL     1       4.360   4.188  16.569  0.00  0.00    +0.000 A 
ATOM     25  O   UNL     1       5.571   4.436  14.467  0.00  0.00    +0.000 OA
ATOM     26  C   UNL     1       6.968   4.746  14.277  0.00  0.00    +0.000 C 
ATOM     27  O   UNL     1       7.661   5.040  15.507  0.00  0.00    +0.000 OA
ENDBRANCH  18  19
ENDBRANCH   6  18
TORSDOF 5
ENDMDL
MODEL 3
REMARK VINA RESULT:      -8.0      0.883      1.083
REMARK  Name = 
REMARK  5 active torsions:
REMARK  status: ('A' for Active; 'I' for Inactive)
REMARK    1  A    between atoms: N_2  and  C_4
REMARK    2  A    between atoms: C_6  and  S_7
REMARK    3  A    between atoms: S_7  and  N_10
REMARK    4  A    between atoms: C_17  and  O_18
REMARK    5  A    between atoms: O_18  and  C_19
REMARK                            x       y       z     vdW  Elec       q    Type
REMARK                         _______ _______ _______ _____ _____    ______ ____
ROOT
ATOM      1  C   UNL     1       1.232   8.844  20.290  0.00  0.00    +0.000 A 
ATOM      2  C   UNL     1       1.888   7.611  20.193  0.00  0.00    +0.000 A 
ATOM      3  C   UNL     1       2.335   7.178  18.944  0.00  0.00    +0.000 A 
ATOM      4  C   UNL     1       2.211   8.005  17.824  0.00  0.00    +0.000 A 
ATOM      5  C   UNL     1       1.633   9.275  17.960  0.00  0.00    +0.000 A 
ATOM      6  C   UNL     1       1.150   9.723  19.204  0.00  0.00    +0.000 A 
ENDROOT
BRANCH   1   8
ATOM      7  O   UNL     1      -0.607   8.553  21.630  0.00  0.00    +0.000 OA
ATOM      8  N   UNL     1       0.504   9.084  21.522  0.00  0.00    +0.000 N 
ATOM      9  O   UNL     1       1.014   9.875  22.327  0.00  0.00    +0.000 OA
ENDBRANCH   1   8
BRANCH   3  10
ATOM     10  S   UNL     1       3.083   5.565  18.798  0.00  0.00    +0.000 S 
ATOM     11  O   UNL     1       3.447   5.388  17.410  0.00  0.00    +0.000 OA
ATOM     12  O   UNL     1       4.067   5.468  19.854  0.00  0.00    +0.000 OA
BRANCH  10  13
ATOM     13  N   UNL     1       1.812   4.516  19.152  0.00  0.00    +0.000 NA
ATOM     14  C   UNL     1       1.635   4.019  20.525  0.00  0.00    +0.000 C 
ATOM     15  C   UNL     1       1.834   2.519  20.410  0.00  0.00    +0.000 C 
ATOM     16  C   UNL     1       1.339   2.170  19.018  0.00  0.00    +0.000 C 
ATOM     17  C   UNL     1       1.451   3.451  18.198  0.00  0.00    +0.000 C 
ENDBRANCH  10  13
ENDBRANCH   3  10
BRANCH   6  18
ATOM     18  O   UNL     1       0.573  10.971  19.174  0.00  0.00    +0.000 OA
BRANCH  18  19
ATOM     19  C   UNL     1      -0.778  11.128  18.952  0.00  0.00    +0.000 A 
ATOM     20  C   UNL     1      -1.497  10.521  17.903  0.00  0.00    +0.000 A 
ATOM     21  C   UNL     1      -2.848  10.826  17.702  0.00  0.00    +0.000 A 
ATOM     22  C   UNL     1      -3.462  11.663  18.608  0.00  0.00    +0.000 A 
ATOM     23  C   UNL     1      -2.781  12.189  19.680  0.00  0.00    +0.000 A 
ATOM     24  C   UNL     1      -1.440  11.944  19.878  0.00  0.00    +0.000 A 
ATOM     25  O   UNL     1      -3.576  12.958  20.472  0.00  0.00    +0.000 OA
ATOM     26  C   UNL     1      -4.847  12.813  19.802  0.00  0.00    +0.000 C 
ATOM     27  O   UNL     1      -4.764  12.054  18.578  0.00  0.00    +0.000 OA
ENDBRANCH  18  19
ENDBRANCH   6  18
TORSDOF 5
ENDMDL
MODEL 4
REMARK VINA RESULT:      -7.9      1.097      1.829
REMARK  Name = 
REMARK  5 active torsions:
REMARK  status: ('A' for Active; 'I' for Inactive)
REMARK    1  A    between atoms: N_2  and  C_4
REMARK    2  A    between atoms: C_6  and  S_7
REMARK    3  A    between atoms: S_7  and  N_10
REMARK    4  A    between atoms: C_17  and  O_18
REMARK    5  A    between atoms: O_18  and  C_19
REMARK                            x       y       z     vdW  Elec       q    Type
REMARK                         _______ _______ _______ _____ _____    ______ ____
ROOT
ATOM      1  C   UNL     1       1.244   8.878  20.498  0.00  0.00    +0.000 A 
ATOM      2  C   UNL     1       1.847   7.625  20.337  0.00  0.00    +0.000 A 
ATOM      3  C   UNL     1       2.310   7.253  19.075  0.00  0.00    +0.000 A 
ATOM      4  C   UNL     1       2.255   8.156  18.009  0.00  0.00    +0.000 A 
ATOM      5  C   UNL     1       1.731   9.439  18.213  0.00  0.00    +0.000 A 
ATOM      6  C   UNL     1       1.232   9.828  19.471  0.00  0.00    +0.000 A 
ENDROOT
BRANCH   1   8
ATOM      7  O   UNL     1       1.052   9.689  22.636  0.00  0.00    +0.000 OA
ATOM      8  N   UNL     1       0.492   9.071  21.724  0.00  0.00    +0.000 N 
ATOM      9  O   UNL     1      -0.616   8.521  21.792  0.00  0.00    +0.000 OA
ENDBRANCH   1   8
BRANCH   3  10
ATOM     10  S   UNL     1       2.990   5.620  18.843  0.00  0.00    +0.000 S 
ATOM     11  O   UNL     1       3.429   5.532  17.468  0.00  0.00    +0.000 OA
ATOM     12  O   UNL     1       3.903   5.391  19.942  0.00  0.00    +0.000 OA
BRANCH  10  13
ATOM     13  N   UNL     1       1.653   4.613  19.039  0.00  0.00    +0.000 NA
ATOM     14  C   UNL     1       1.250   4.186  20.388  0.00  0.00    +0.000 C 
ATOM     15  C   UNL     1       1.426   2.680  20.373  0.00  0.00    +0.000 C 
ATOM     16  C   UNL     1       1.146   2.273  18.938  0.00  0.00    +0.000 C 
ATOM     17  C   UNL     1       1.418   3.510  18.089  0.00  0.00    +0.000 C 
ENDBRANCH  10  13
ENDBRANCH   3  10
BRANCH   6  18
ATOM     18  O   UNL     1       0.713  11.101  19.507  0.00  0.00    +0.000 OA
BRANCH  18  19
ATOM     19  C   UNL     1      -0.604  11.344  19.183  0.00  0.00    +0.000 A 
ATOM     20  C   UNL     1      -1.520  12.033  20.003  0.00  0.00    +0.000 A 
ATOM     21  C   UNL     1      -2.865  12.139  19.628  0.00  0.00    +0.000 A 
ATOM     22  C   UNL     1      -3.235  11.626  18.404  0.00  0.00    +0.000 A 
ATOM     23  C   UNL     1      -2.324  11.027  17.567  0.00  0.00    +0.000 A 
ATOM     24  C   UNL     1      -1.004  10.868  17.928  0.00  0.00    +0.000 A 
ATOM     25  O   UNL     1      -2.884  10.623  16.395  0.00  0.00    +0.000 OA
ATOM     26  C   UNL     1      -4.241  11.082  16.572  0.00  0.00    +0.000 C 
ATOM     27  O   UNL     1      -4.487  11.652  17.874  0.00  0.00    +0.000 OA
ENDBRANCH  18  19
ENDBRANCH   6  18
TORSDOF 5
ENDMDL
MODEL 5
REMARK VINA RESULT:      -7.8      1.692      2.057
REMARK  Name = 
REMARK  5 active torsions:
REMARK  status: ('A' for Active; 'I' for Inactive)
REMARK    1  A    between atoms: N_2  and  C_4
REMARK    2  A    between atoms: C_6  and  S_7
REMARK    3  A    between atoms: S_7  and  N_10
REMARK    4  A    between atoms: C_17  and  O_18
REMARK    5  A    between atoms: O_18  and  C_19
REMARK                            x       y       z     vdW  Elec       q    Type
REMARK                         _______ _______ _______ _____ _____    ______ ____
ROOT
ATOM      1  C   UNL     1       1.401   8.637  20.240  0.00  0.00    +0.000 A 
ATOM      2  C   UNL     1       2.081   7.419  20.135  0.00  0.00    +0.000 A 
ATOM      3  C   UNL     1       2.525   6.996  18.882  0.00  0.00    +0.000 A 
ATOM      4  C   UNL     1       2.373   7.822  17.765  0.00  0.00    +0.000 A 
ATOM      5  C   UNL     1       1.769   9.078  17.907  0.00  0.00    +0.000 A 
ATOM      6  C   UNL     1       1.289   9.515  19.156  0.00  0.00    +0.000 A 
ENDROOT
BRANCH   1   8
ATOM      7  O   UNL     1      -0.478   8.430  21.541  0.00  0.00    +0.000 OA
ATOM      8  N   UNL     1       0.679   8.860  21.479  0.00  0.00    +0.000 N 
ATOM      9  O   UNL     1       1.248   9.544  22.342  0.00  0.00    +0.000 OA
ENDBRANCH   1   8
BRANCH   3  10
ATOM     10  S   UNL     1       3.306   5.400  18.728  0.00  0.00    +0.000 S 
ATOM     11  O   UNL     1       3.482   4.880  20.065  0.00  0.00    +0.000 OA
ATOM     12  O   UNL     1       2.559   4.668  17.727  0.00  0.00    +0.000 OA
BRANCH  10  13
ATOM     13  N   UNL     1       4.824   5.771  18.097  0.00  0.00    +0.000 NA
ATOM     14  C   UNL     1       5.096   5.551  16.669  0.00  0.00    +0.000 C 
ATOM     15  C   UNL     1       6.190   4.500  16.652  0.00  0.00    +0.000 C 
ATOM     16  C   UNL     1       6.986   4.751  17.920  0.00  0.00    +0.000 C 
ATOM     17  C   UNL     1       6.038   5.466  18.877  0.00  0.00    +0.000 C 
ENDBRANCH  10  13
ENDBRANCH   3  10
BRANCH   6  18
ATOM     18  O   UNL     1       0.685  10.751  19.132  0.00  0.00    +0.000 OA
BRANCH  18  19
ATOM     19  C   UNL     1      -0.660  10.883  18.865  0.00  0.00    +0.000 A 
ATOM     20  C   UNL     1      -1.346  10.207  17.836  0.00  0.00    +0.000 A 
ATOM     21  C   UNL     1      -2.693  10.488  17.581  0.00  0.00    +0.000 A 
ATOM     22  C   UNL     1      -3.337  11.375  18.416  0.00  0.00    +0.000 A 
ATOM     23  C   UNL     1      -2.689  11.971  19.471  0.00  0.00    +0.000 A 
ATOM     24  C   UNL     1      -1.352  11.749  19.720  0.00  0.00    +0.000 A 
ATOM     25  O   UNL     1      -3.511  12.781  20.193  0.00  0.00    +0.000 OA
ATOM     26  C   UNL     1      -4.761  12.585  19.498  0.00  0.00    +0.000 C 
ATOM     27  O   UNL     1      -4.640  11.752  18.327  0.00  0.00    +0.000 OA
ENDBRANCH  18  19
ENDBRANCH   6  18
TORSDOF 5
ENDMDL
MODEL 6
REMARK VINA RESULT:      -7.7      0.795      1.627
REMARK  Name = 
REMARK  5 active torsions:
REMARK  status: ('A' for Active; 'I' for Inactive)
REMARK    1  A    between atoms: N_2  and  C_4
REMARK    2  A    between atoms: C_6  and  S_7
REMARK    3  A    between atoms: S_7  and  N_10
REMARK    4  A    between atoms: C_17  and  O_18
REMARK    5  A    between atoms: O_18  and  C_19
REMARK                            x       y       z     vdW  Elec       q    Type
REMARK                         _______ _______ _______ _____ _____    ______ ____
ROOT
ATOM      1  C   UNL     1       1.197   8.812  20.586  0.00  0.00    +0.000 A 
ATOM      2  C   UNL     1       1.745   7.538  20.779  0.00  0.00    +0.000 A 
ATOM      3  C   UNL     1       2.323   6.878  19.695  0.00  0.00    +0.000 A 
ATOM      4  C   UNL     1       2.436   7.518  18.458  0.00  0.00    +0.000 A 
ATOM      5  C   UNL     1       1.963   8.828  18.309  0.00  0.00    +0.000 A 
ATOM      6  C   UNL     1       1.350   9.505  19.381  0.00  0.00    +0.000 A 
ENDROOT
BRANCH   1   8
ATOM      7  O   UNL     1       0.717  10.276  22.286  0.00  0.00    +0.000 OA
ATOM      8  N   UNL     1       0.326   9.297  21.640  0.00  0.00    +0.000 N 
ATOM      9  O   UNL     1      -0.697   8.637  21.868  0.00  0.00    +0.000 OA
ENDBRANCH   1   8
BRANCH   3  10
ATOM     10  S   UNL     1       2.934   5.216  19.913  0.00  0.00    +0.000 S 
ATOM     11  O   UNL     1       4.358   5.249  19.664  0.00  0.00    +0.000 OA
ATOM     12  O   UNL     1       2.400   4.739  21.170  0.00  0.00    +0.000 OA
BRANCH  10  13
ATOM     13  N   UNL     1       2.196   4.365  18.660  0.00  0.00    +0.000 NA
ATOM     14  C   UNL     1       0.998   3.556  18.931  0.00  0.00    +0.000 C 
ATOM     15  C   UNL     1       1.428   2.134  18.622  0.00  0.00    +0.000 C 
ATOM     16  C   UNL     1       2.460   2.274  17.518  0.00  0.00    +0.000 C 
ATOM     17  C   UNL     1       3.023   3.686  17.645  0.00  0.00    +0.000 C 
ENDBRANCH  10  13
ENDBRANCH   3  10
BRANCH   6  18
ATOM     18  O   UNL     1       0.900  10.767  19.073  0.00  0.00    +0.000 OA
BRANCH  18  19
ATOM     19  C   UNL     1      -0.420  10.996  18.752  0.00  0.00    +0.000 A 
ATOM     20  C   UNL     1      -1.304  11.795  19.506  0.00  0.00    +0.000 A 
ATOM     21  C   UNL     1      -2.656  11.881  19.152  0.00  0.00    +0.000 A 
ATOM     22  C   UNL     1      -3.065  11.234  18.006  0.00  0.00    +0.000 A 
ATOM     23  C   UNL     1      -2.186  10.524  17.226  0.00  0.00    +0.000 A 
ATOM     24  C   UNL     1      -0.860  10.382  17.573  0.00  0.00    +0.000 A 
ATOM     25  O   UNL     1      -2.782   9.994  16.123  0.00  0.00    +0.000 OA
ATOM     26  C   UNL     1      -4.126  10.497  16.276  0.00  0.00    +0.000 C 
ATOM     27  O   UNL     1      -4.330  11.222  17.506  0.00  0.00    +0.000 OA
ENDBRANCH  18  19
ENDBRANCH   6  18
TORSDOF 5
ENDMDL
MODEL 7
REMARK VINA RESULT:      -7.7      2.983      4.150
REMARK  Name = 
REMARK  5 active torsions:
REMARK  status: ('A' for Active; 'I' for Inactive)
REMARK    1  A    between atoms: N_2  and  C_4
REMARK    2  A    between atoms: C_6  and  S_7
REMARK    3  A    between atoms: S_7  and  N_10
REMARK    4  A    between atoms: C_17  and  O_18
REMARK    5  A    between atoms: O_18  and  C_19
REMARK                            x       y       z     vdW  Elec       q    Type
REMARK                         _______ _______ _______ _____ _____    ______ ____
ROOT
ATOM      1  C   UNL     1       1.320   9.077  20.256  0.00  0.00    +0.000 A 
ATOM      2  C   UNL     1       1.899   7.803  20.254  0.00  0.00    +0.000 A 
ATOM      3  C   UNL     1       2.310   7.247  19.042  0.00  0.00    +0.000 A 
ATOM      4  C   UNL     1       2.228   7.991  17.862  0.00  0.00    +0.000 A 
ATOM      5  C   UNL     1       1.728   9.300  17.900  0.00  0.00    +0.000 A 
ATOM      6  C   UNL     1       1.282   9.872  19.106  0.00  0.00    +0.000 A 
ENDROOT
BRANCH   1   8
ATOM      7  O   UNL     1       1.302   9.658  22.476  0.00  0.00    +0.000 OA
ATOM      8  N   UNL     1       0.616   9.455  21.468  0.00  0.00    +0.000 N 
ATOM      9  O   UNL     1      -0.621   9.454  21.419  0.00  0.00    +0.000 OA
ENDBRANCH   1   8
BRANCH   3  10
ATOM     10  S   UNL     1       2.958   5.586  19.020  0.00  0.00    +0.000 S 
ATOM     11  O   UNL     1       2.799   5.083  17.674  0.00  0.00    +0.000 OA
ATOM     12  O   UNL     1       4.257   5.640  19.656  0.00  0.00    +0.000 OA
BRANCH  10  13
ATOM     13  N   UNL     1       1.903   4.746  20.030  0.00  0.00    +0.000 NA
ATOM     14  C   UNL     1       2.336   4.359  21.382  0.00  0.00    +0.000 C 
ATOM     15  C   UNL     1       2.314   2.842  21.363  0.00  0.00    +0.000 C 
ATOM     16  C   UNL     1       1.198   2.484  20.398  0.00  0.00    +0.000 C 
ATOM     17  C   UNL     1       1.039   3.687  19.474  0.00  0.00    +0.000 C 
ENDBRANCH  10  13
ENDBRANCH   3  10
BRANCH   6  18
ATOM     18  O   UNL     1       0.782  11.147  18.979  0.00  0.00    +0.000 OA
BRANCH  18  19
ATOM     19  C   UNL     1       1.572  12.251  19.212  0.00  0.00    +0.000 A 
ATOM     20  C   UNL     1       2.322  12.925  18.227  0.00  0.00    +0.000 A 
ATOM     21  C   UNL     1       3.176  13.975  18.583  0.00  0.00    +0.000 A 
ATOM     22  C   UNL     1       3.190  14.376  19.901  0.00  0.00    +0.000 A 
ATOM     23  C   UNL     1       2.395  13.774  20.847  0.00  0.00    +0.000 A 
ATOM     24  C   UNL     1       1.579  12.708  20.535  0.00  0.00    +0.000 A 
ATOM     25  O   UNL     1       2.530  14.341  22.076  0.00  0.00    +0.000 OA
ATOM     26  C   UNL     1       3.464  15.402  21.782  0.00  0.00    +0.000 C 
ATOM     27  O   UNL     1       3.942  15.383  20.421  0.00  0.00    +0.000 OA
ENDBRANCH  18  19
ENDBRANCH   6  18
TORSDOF 5
ENDMDL
MODEL 8
REMARK VINA RESULT:      -7.7      2.555      3.590
REMARK  Name = 
REMARK  5 active torsions:
REMARK  status: ('A' for Active; 'I' for Inactive)
REMARK    1  A    between atoms: N_2  and  C_4
REMARK    2  A    between atoms: C_6  and  S_7
REMARK    3  A    between atoms: S_7  and  N_10
REMARK    4  A    between atoms: C_17  and  O_18
REMARK    5  A    between atoms: O_18  and  C_19
REMARK                            x       y       z     vdW  Elec       q    Type
REMARK                         _______ _______ _______ _____ _____    ______ ____
ROOT
ATOM      1  C   UNL     1       1.173   8.565  20.647  0.00  0.00    +0.000 A 
ATOM      2  C   UNL     1       1.872   7.357  20.759  0.00  0.00    +0.000 A 
ATOM      3  C   UNL     1       2.466   6.810  19.621  0.00  0.00    +0.000 A 
ATOM      4  C   UNL     1       2.441   7.506  18.409  0.00  0.00    +0.000 A 
ATOM      5  C   UNL     1       1.814   8.757  18.340  0.00  0.00    +0.000 A 
ATOM      6  C   UNL     1       1.184   9.317  19.467  0.00  0.00    +0.000 A 
ENDROOT
BRANCH   1   8
ATOM      7  O   UNL     1       0.760   9.683  22.607  0.00  0.00    +0.000 OA
ATOM      8  N   UNL     1       0.307   8.905  21.760  0.00  0.00    +0.000 N 
ATOM      9  O   UNL     1      -0.782   8.318  21.821  0.00  0.00    +0.000 OA
ENDBRANCH   1   8
BRANCH   3  10
ATOM     10  S   UNL     1       3.273   5.224  19.737  0.00  0.00    +0.000 S 
ATOM     11  O   UNL     1       4.682   5.444  19.497  0.00  0.00    +0.000 OA
ATOM     12  O   UNL     1       2.804   4.608  20.960  0.00  0.00    +0.000 OA
BRANCH  10  13
ATOM     13  N   UNL     1       2.639   4.370  18.430  0.00  0.00    +0.000 NA
ATOM     14  C   UNL     1       1.259   3.862  18.489  0.00  0.00    +0.000 C 
ATOM     15  C   UNL     1       1.411   2.354  18.421  0.00  0.00    +0.000 C 
ATOM     16  C   UNL     1       2.654   2.129  17.580  0.00  0.00    +0.000 C 
ATOM     17  C   UNL     1       3.483   3.403  17.704  0.00  0.00    +0.000 C 
ENDBRANCH  10  13
ENDBRANCH   3  10
BRANCH   6  18
ATOM     18  O   UNL     1       0.577  10.529  19.236  0.00  0.00    +0.000 OA
BRANCH  18  19
ATOM     19  C   UNL     1       1.268  11.712  19.379  0.00  0.00    +0.000 A 
ATOM     20  C   UNL     1       2.051  12.313  18.372  0.00  0.00    +0.000 A 
ATOM     21  C   UNL     1       2.798  13.464  18.650  0.00  0.00    +0.000 A 
ATOM     22  C   UNL     1       2.672  14.028  19.901  0.00  0.00    +0.000 A 
ATOM     23  C   UNL     1       1.844  13.489  20.855  0.00  0.00    +0.000 A 
ATOM     24  C   UNL     1       1.132  12.331  20.627  0.00  0.00    +0.000 A 
ATOM     25  O   UNL     1       1.836  14.216  22.005  0.00  0.00    +0.000 OA
ATOM     26  C   UNL     1       2.716  15.301  21.645  0.00  0.00    +0.000 C 
ATOM     27  O   UNL     1       3.308  15.148  20.338  0.00  0.00    +0.000 OA
ENDBRANCH  18  19
ENDBRANCH   6  18
TORSDOF 5
ENDMDL
MODEL 9
REMARK VINA RESULT:      -7.6      2.558      7.494
REMARK  Name = 
REMARK  5 active torsions:
REMARK  status: ('A' for Active; 'I' for Inactive)
REMARK    1  A    between atoms: N_2  and  C_4
REMARK    2  A    between atoms: C_6  and  S_7
REMARK    3  A    between atoms: S_7  and  N_10
REMARK    4  A    between atoms: C_17  and  O_18
REMARK    5  A    between atoms: O_18  and  C_19
REMARK                            x       y       z     vdW  Elec       q    Type
REMARK                         _______ _______ _______ _____ _____    ______ ____
ROOT
ATOM      1  C   UNL     1       0.653   9.303  20.894  0.00  0.00    +0.000 A 
ATOM      2  C   UNL     1      -0.303  10.250  20.509  0.00  0.00    +0.000 A 
ATOM      3  C   UNL     1      -0.329  10.685  19.183  0.00  0.00    +0.000 A 
ATOM      4  C   UNL     1       0.527  10.114  18.237  0.00  0.00    +0.000 A 
ATOM      5  C   UNL     1       1.415   9.102  18.625  0.00  0.00    +0.000 A 
ATOM      6  C   UNL     1       1.478   8.666  19.962  0.00  0.00    +0.000 A 
ENDROOT
BRANCH   1   8
ATOM      7  O   UNL     1      -0.130   8.809  22.994  0.00  0.00    +0.000 OA
ATOM      8  N   UNL     1       0.852   9.145  22.323  0.00  0.00    +0.000 N 
ATOM      9  O   UNL     1       1.967   9.448  22.769  0.00  0.00    +0.000 OA
ENDBRANCH   1   8
BRANCH   3  10
ATOM     10  S   UNL     1      -1.479  11.963  18.708  0.00  0.00    +0.000 S 
ATOM     11  O   UNL     1      -1.960  12.578  19.925  0.00  0.00    +0.000 OA
ATOM     12  O   UNL     1      -0.830  12.742  17.676  0.00  0.00    +0.000 OA
BRANCH  10  13
ATOM     13  N   UNL     1      -2.748  11.101  18.010  0.00  0.00    +0.000 NA
ATOM     14  C   UNL     1      -2.529  10.365  16.756  0.00  0.00    +0.000 C 
ATOM     15  C   UNL     1      -3.449  11.043  15.757  0.00  0.00    +0.000 C 
ATOM     16  C   UNL     1      -4.627  11.525  16.584  0.00  0.00    +0.000 C 
ATOM     17  C   UNL     1      -4.109  11.668  18.011  0.00  0.00    +0.000 C 
ENDBRANCH  10  13
ENDBRANCH   3  10
BRANCH   6  18
ATOM     18  O   UNL     1       2.425   7.697  20.199  0.00  0.00    +0.000 OA
BRANCH  18  19
ATOM     19  C   UNL     1       2.385   6.484  19.546  0.00  0.00    +0.000 A 
ATOM     20  C   UNL     1       3.077   6.190  18.354  0.00  0.00    +0.000 A 
ATOM     21  C   UNL     1       2.889   4.960  17.712  0.00  0.00    +0.000 A 
ATOM     22  C   UNL     1       2.081   4.028  18.327  0.00  0.00    +0.000 A 
ATOM     23  C   UNL     1       1.473   4.285  19.532  0.00  0.00    +0.000 A 
ATOM     24  C   UNL     1       1.602   5.502  20.165  0.00  0.00    +0.000 A 
ATOM     25  O   UNL     1       0.751   3.224  19.985  0.00  0.00    +0.000 OA
ATOM     26  C   UNL     1       1.017   2.255  18.949  0.00  0.00    +0.000 C 
ATOM     27  O   UNL     1       1.799   2.784  17.858  0.00  0.00    +0.000 OA
ENDBRANCH  18  19
ENDBRANCH   6  18
TORSDOF 5
ENDMDL
