MODEL 1
REMARK VINA RESULT:      -9.1      0.000      0.000
REMARK  Name = 
REMARK  6 active torsions:
REMARK  status: ('A' for Active; 'I' for Inactive)
REMARK    1  A    between atoms: C_1  and  N_2
REMARK    2  A    between atoms: C_6  and  C_7
REMARK    3  A    between atoms: C_7  and  C_8
REMARK    4  A    between atoms: C_8  and  C_9
REMARK    5  A    between atoms: C_13  and  N_14
REMARK    6  A    between atoms: C_22  and  C_23
REMARK                            x       y       z     vdW  Elec       q    Type
REMARK                         _______ _______ _______ _____ _____    ______ ____
ROOT
ATOM      1  N   UNL     1       4.139   4.500  19.184  0.00  0.00    +0.000 N 
ATOM      2  C   UNL     1       5.481   5.128  19.280  0.00  0.00    +0.000 C 
ATOM      3  C   UNL     1       5.996   4.980  17.874  0.00  0.00    +0.000 A 
ATOM      4  C   UNL     1       5.366   3.864  17.321  0.00  0.00    +0.000 A 
ATOM      5  C   UNL     1       5.485   3.520  15.990  0.00  0.00    +0.000 A 
ATOM      6  C   UNL     1       6.240   4.362  15.194  0.00  0.00    +0.000 A 
ATOM      7  F   UNL     1       6.307   4.133  13.876  0.00  0.00    +0.000 F 
ATOM      8  C   UNL     1       6.862   5.509  15.717  0.00  0.00    +0.000 A 
ATOM      9  C   UNL     1       6.745   5.844  17.082  0.00  0.00    +0.000 A 
ATOM     10  C   UNL     1       4.274   3.458  18.235  0.00  0.00    +0.000 C 
ATOM     11  O   UNL     1       3.531   2.515  18.028  0.00  0.00    +0.000 OA
ENDROOT
BRANCH   1  16
ATOM     12  C   UNL     1       1.835   7.223  19.984  0.00  0.00    +0.000 A 
ATOM     13  C   UNL     1       2.263   8.141  19.017  0.00  0.00    +0.000 A 
ATOM     14  C   UNL     1       2.958   7.709  17.892  0.00  0.00    +0.000 A 
ATOM     15  C   UNL     1       3.339   6.377  17.787  0.00  0.00    +0.000 A 
ATOM     16  C   UNL     1       3.136   5.510  18.873  0.00  0.00    +0.000 A 
ATOM     17  C   UNL     1       2.258   5.892  19.893  0.00  0.00    +0.000 A 
BRANCH  12  18
ATOM     18  C   UNL     1       1.031   7.683  21.175  0.00  0.00    +0.000 C 
BRANCH  18  19
ATOM     19  C   UNL     1       1.582   8.984  21.761  0.00  0.00    +0.000 C 
BRANCH  19  25
ATOM     20  C   UNL     1       0.188  11.084  19.964  0.00  0.00    +0.000 C 
ATOM     21  N   UNL     1      -0.093  10.835  21.351  0.00  0.00    +0.000 N 
ATOM     22  C   UNL     1      -1.004  11.493  22.116  0.00  0.00    +0.000 A 
ATOM     23  N   UNL     1      -0.992  11.005  23.332  0.00  0.00    +0.000 NA
ATOM     24  N   UNL     1      -0.045  10.011  23.369  0.00  0.00    +0.000 NA
ATOM     25  C   UNL     1       0.493   9.908  22.170  0.00  0.00    +0.000 A 
ENDBRANCH  19  25
ENDBRANCH  18  19
ENDBRANCH  12  18
ENDBRANCH   1  16
BRANCH   9  26
ATOM     26  C   UNL     1       7.324   7.150  17.565  0.00  0.00    +0.000 C 
ATOM     27  F   UNL     1       8.195   7.729  16.696  0.00  0.00    +0.000 F 
ATOM     28  F   UNL     1       6.360   8.082  17.797  0.00  0.00    +0.000 F 
ATOM     29  F   UNL     1       8.001   7.012  18.737  0.00  0.00    +0.000 F 
ENDBRANCH   9  26
TORSDOF 5
ENDMDL
MODEL 2
REMARK VINA RESULT:      -9.0      4.552      6.659
REMARK  Name = 
REMARK  6 active torsions:
REMARK  status: ('A' for Active; 'I' for Inactive)
REMARK    1  A    between atoms: C_1  and  N_2
REMARK    2  A    between atoms: C_6  and  C_7
REMARK    3  A    between atoms: C_7  and  C_8
REMARK    4  A    between atoms: C_8  and  C_9
REMARK    5  A    between atoms: C_13  and  N_14
REMARK    6  A    between atoms: C_22  and  C_23
REMARK                            x       y       z     vdW  Elec       q    Type
REMARK                         _______ _______ _______ _____ _____    ______ ____
ROOT
ATOM      1  N   UNL     1       6.042   5.370  15.631  0.00  0.00    +0.000 N 
ATOM      2  C   UNL     1       4.855   6.234  15.849  0.00  0.00    +0.000 C 
ATOM      3  C   UNL     1       4.071   5.440  16.859  0.00  0.00    +0.000 A 
ATOM      4  C   UNL     1       4.407   4.097  16.676  0.00  0.00    +0.000 A 
ATOM      5  C   UNL     1       3.992   3.098  17.532  0.00  0.00    +0.000 A 
ATOM      6  C   UNL     1       3.242   3.488  18.626  0.00  0.00    +0.000 A 
ATOM      7  F   UNL     1       2.897   2.574  19.544  0.00  0.00    +0.000 F 
ATOM      8  C   UNL     1       2.912   4.835  18.852  0.00  0.00    +0.000 A 
ATOM      9  C   UNL     1       3.331   5.847  17.964  0.00  0.00    +0.000 A 
ATOM     10  C   UNL     1       5.574   4.040  15.765  0.00  0.00    +0.000 C 
ATOM     11  O   UNL     1       6.111   3.004  15.415  0.00  0.00    +0.000 OA
ENDROOT
BRANCH   1  16
ATOM     12  C   UNL     1       7.842   7.673  17.826  0.00  0.00    +0.000 A 
ATOM     13  C   UNL     1       7.923   6.852  18.958  0.00  0.00    +0.000 A 
ATOM     14  C   UNL     1       7.788   5.472  18.841  0.00  0.00    +0.000 A 
ATOM     15  C   UNL     1       7.447   4.915  17.615  0.00  0.00    +0.000 A 
ATOM     16  C   UNL     1       7.114   5.755  16.540  0.00  0.00    +0.000 A 
ATOM     17  C   UNL     1       7.457   7.109  16.604  0.00  0.00    +0.000 A 
BRANCH  12  18
ATOM     18  C   UNL     1       8.047   9.163  17.944  0.00  0.00    +0.000 C 
BRANCH  18  19
ATOM     19  C   UNL     1       8.993   9.515  19.094  0.00  0.00    +0.000 C 
BRANCH  19  25
ATOM     20  C   UNL     1       9.282  11.725  21.242  0.00  0.00    +0.000 C 
ATOM     21  N   UNL     1       9.717  11.810  19.875  0.00  0.00    +0.000 N 
ATOM     22  C   UNL     1      10.309  12.883  19.286  0.00  0.00    +0.000 A 
ATOM     23  N   UNL     1      10.568  12.608  18.031  0.00  0.00    +0.000 NA
ATOM     24  N   UNL     1      10.127  11.330  17.788  0.00  0.00    +0.000 NA
ATOM     25  C   UNL     1       9.617  10.850  18.904  0.00  0.00    +0.000 A 
ENDBRANCH  19  25
ENDBRANCH  18  19
ENDBRANCH  12  18
ENDBRANCH   1  16
BRANCH   9  26
ATOM     26  C   UNL     1       3.061   7.289  18.319  0.00  0.00    +0.000 C 
ATOM     27  F   UNL     1       2.008   7.837  17.656  0.00  0.00    +0.000 F 
ATOM     28  F   UNL     1       2.786   7.446  19.642  0.00  0.00    +0.000 F 
ATOM     29  F   UNL     1       4.127   8.092  18.059  0.00  0.00    +0.000 F 
ENDBRANCH   9  26
TORSDOF 5
ENDMDL
MODEL 3
REMARK VINA RESULT:      -8.9      0.703      1.015
REMARK  Name = 
REMARK  6 active torsions:
REMARK  status: ('A' for Active; 'I' for Inactive)
REMARK    1  A    between atoms: C_1  and  N_2
REMARK    2  A    between atoms: C_6  and  C_7
REMARK    3  A    between atoms: C_7  and  C_8
REMARK    4  A    between atoms: C_8  and  C_9
REMARK    5  A    between atoms: C_13  and  N_14
REMARK    6  A    between atoms: C_22  and  C_23
REMARK                            x       y       z     vdW  Elec       q    Type
REMARK                         _______ _______ _______ _____ _____    ______ ____
ROOT
ATOM      1  N   UNL     1       3.525   4.434  19.259  0.00  0.00    +0.000 N 
ATOM      2  C   UNL     1       4.926   4.918  19.330  0.00  0.00    +0.000 C 
ATOM      3  C   UNL     1       5.369   4.809  17.895  0.00  0.00    +0.000 A 
ATOM      4  C   UNL     1       4.607   3.797  17.307  0.00  0.00    +0.000 A 
ATOM      5  C   UNL     1       4.638   3.527  15.955  0.00  0.00    +0.000 A 
ATOM      6  C   UNL     1       5.443   4.338  15.176  0.00  0.00    +0.000 A 
ATOM      7  F   UNL     1       5.434   4.187  13.845  0.00  0.00    +0.000 F 
ATOM      8  C   UNL     1       6.199   5.383  15.736  0.00  0.00    +0.000 A 
ATOM      9  C   UNL     1       6.169   5.642  17.122  0.00  0.00    +0.000 A 
ATOM     10  C   UNL     1       3.516   3.445  18.245  0.00  0.00    +0.000 C 
ATOM     11  O   UNL     1       2.673   2.596  18.017  0.00  0.00    +0.000 OA
ENDROOT
BRANCH   1  16
ATOM     12  C   UNL     1       1.914   7.588  20.165  0.00  0.00    +0.000 A 
ATOM     13  C   UNL     1       2.177   8.296  18.986  0.00  0.00    +0.000 A 
ATOM     14  C   UNL     1       2.472   7.619  17.807  0.00  0.00    +0.000 A 
ATOM     15  C   UNL     1       2.628   6.238  17.825  0.00  0.00    +0.000 A 
ATOM     16  C   UNL     1       2.619   5.556  19.053  0.00  0.00    +0.000 A 
ATOM     17  C   UNL     1       2.115   6.203  20.186  0.00  0.00    +0.000 A 
BRANCH  12  18
ATOM     18  C   UNL     1       1.538   8.318  21.430  0.00  0.00    +0.000 C 
BRANCH  18  19
ATOM     19  C   UNL     1       0.029   8.559  21.517  0.00  0.00    +0.000 C 
BRANCH  19  25
ATOM     20  C   UNL     1      -0.499  10.922  19.589  0.00  0.00    +0.000 C 
ATOM     21  N   UNL     1      -0.500  10.983  21.025  0.00  0.00    +0.000 N 
ATOM     22  C   UNL     1      -0.712  12.094  21.781  0.00  0.00    +0.000 A 
ATOM     23  N   UNL     1      -0.639  11.780  23.051  0.00  0.00    +0.000 NA
ATOM     24  N   UNL     1      -0.364  10.437  23.131  0.00  0.00    +0.000 NA
ATOM     25  C   UNL     1      -0.284   9.958  21.906  0.00  0.00    +0.000 A 
ENDBRANCH  19  25
ENDBRANCH  18  19
ENDBRANCH  12  18
ENDBRANCH   1  16
BRANCH   9  26
ATOM     26  C   UNL     1       6.897   6.852  17.654  0.00  0.00    +0.000 C 
ATOM     27  F   UNL     1       7.530   6.644  18.840  0.00  0.00    +0.000 F 
ATOM     28  F   UNL     1       7.858   7.289  16.796  0.00  0.00    +0.000 F 
ATOM     29  F   UNL     1       6.064   7.908  17.854  0.00  0.00    +0.000 F 
ENDBRANCH   9  26
TORSDOF 5
ENDMDL
MODEL 4
REMARK VINA RESULT:      -8.6      0.773      1.484
REMARK  Name = 
REMARK  6 active torsions:
REMARK  status: ('A' for Active; 'I' for Inactive)
REMARK    1  A    between atoms: C_1  and  N_2
REMARK    2  A    between atoms: C_6  and  C_7
REMARK    3  A    between atoms: C_7  and  C_8
REMARK    4  A    between atoms: C_8  and  C_9
REMARK    5  A    between atoms: C_13  and  N_14
REMARK    6  A    between atoms: C_22  and  C_23
REMARK                            x       y       z     vdW  Elec       q    Type
REMARK                         _______ _______ _______ _____ _____    ______ ____
ROOT
ATOM      1  N   UNL     1       3.948   4.567  19.237  0.00  0.00    +0.000 N 
ATOM      2  C   UNL     1       5.317   5.134  19.324  0.00  0.00    +0.000 C 
ATOM      3  C   UNL     1       5.814   4.969  17.913  0.00  0.00    +0.000 A 
ATOM      4  C   UNL     1       5.130   3.885  17.361  0.00  0.00    +0.000 A 
ATOM      5  C   UNL     1       5.223   3.542  16.028  0.00  0.00    +0.000 A 
ATOM      6  C   UNL     1       6.008   4.353  15.229  0.00  0.00    +0.000 A 
ATOM      7  F   UNL     1       6.054   4.127  13.910  0.00  0.00    +0.000 F 
ATOM      8  C   UNL     1       6.686   5.469  15.752  0.00  0.00    +0.000 A 
ATOM      9  C   UNL     1       6.594   5.803  17.119  0.00  0.00    +0.000 A 
ATOM     10  C   UNL     1       4.028   3.524  18.283  0.00  0.00    +0.000 C 
ATOM     11  O   UNL     1       3.242   2.617  18.077  0.00  0.00    +0.000 OA
ENDROOT
BRANCH   1  16
ATOM     12  C   UNL     1       2.016   7.581  19.977  0.00  0.00    +0.000 A 
ATOM     13  C   UNL     1       2.354   8.323  18.838  0.00  0.00    +0.000 A 
ATOM     14  C   UNL     1       2.826   7.686  17.695  0.00  0.00    +0.000 A 
ATOM     15  C   UNL     1       3.082   6.320  17.723  0.00  0.00    +0.000 A 
ATOM     16  C   UNL     1       2.989   5.622  18.938  0.00  0.00    +0.000 A 
ATOM     17  C   UNL     1       2.316   6.215  20.012  0.00  0.00    +0.000 A 
BRANCH  12  18
ATOM     18  C   UNL     1       1.450   8.265  21.197  0.00  0.00    +0.000 C 
BRANCH  18  19
ATOM     19  C   UNL     1      -0.064   8.456  21.085  0.00  0.00    +0.000 C 
BRANCH  19  25
ATOM     20  C   UNL     1      -0.914  10.634  23.115  0.00  0.00    +0.000 C 
ATOM     21  N   UNL     1      -0.803  10.799  21.691  0.00  0.00    +0.000 N 
ATOM     22  C   UNL     1      -1.074  11.933  20.991  0.00  0.00    +0.000 A 
ATOM     23  N   UNL     1      -0.865  11.720  19.714  0.00  0.00    +0.000 NA
ATOM     24  N   UNL     1      -0.459  10.416  19.572  0.00  0.00    +0.000 NA
ATOM     25  C   UNL     1      -0.419   9.864  20.768  0.00  0.00    +0.000 A 
ENDBRANCH  19  25
ENDBRANCH  18  19
ENDBRANCH  12  18
ENDBRANCH   1  16
BRANCH   9  26
ATOM     26  C   UNL     1       7.235   7.080  17.603  0.00  0.00    +0.000 C 
ATOM     27  F   UNL     1       7.936   6.947  18.760  0.00  0.00    +0.000 F 
ATOM     28  F   UNL     1       8.114   7.586  16.696  0.00  0.00    +0.000 F 
ATOM     29  F   UNL     1       6.321   8.062  17.829  0.00  0.00    +0.000 F 
ENDBRANCH   9  26
TORSDOF 5
ENDMDL
MODEL 5
REMARK VINA RESULT:      -8.6      4.359      6.329
REMARK  Name = 
REMARK  6 active torsions:
REMARK  status: ('A' for Active; 'I' for Inactive)
REMARK    1  A    between atoms: C_1  and  N_2
REMARK    2  A    between atoms: C_6  and  C_7
REMARK    3  A    between atoms: C_7  and  C_8
REMARK    4  A    between atoms: C_8  and  C_9
REMARK    5  A    between atoms: C_13  and  N_14
REMARK    6  A    between atoms: C_22  and  C_23
REMARK                            x       y       z     vdW  Elec       q    Type
REMARK                         _______ _______ _______ _____ _____    ______ ____
ROOT
ATOM      1  N   UNL     1       6.067   5.445  15.633  0.00  0.00    +0.000 N 
ATOM      2  C   UNL     1       4.863   6.286  15.851  0.00  0.00    +0.000 C 
ATOM      3  C   UNL     1       4.088   5.470  16.851  0.00  0.00    +0.000 A 
ATOM      4  C   UNL     1       4.449   4.135  16.660  0.00  0.00    +0.000 A 
ATOM      5  C   UNL     1       4.048   3.123  17.506  0.00  0.00    +0.000 A 
ATOM      6  C   UNL     1       3.285   3.491  18.599  0.00  0.00    +0.000 A 
ATOM      7  F   UNL     1       2.952   2.565  19.508  0.00  0.00    +0.000 F 
ATOM      8  C   UNL     1       2.931   4.831  18.834  0.00  0.00    +0.000 A 
ATOM      9  C   UNL     1       3.336   5.857  17.955  0.00  0.00    +0.000 A 
ATOM     10  C   UNL     1       5.622   4.106  15.755  0.00  0.00    +0.000 C 
ATOM     11  O   UNL     1       6.179   3.083  15.400  0.00  0.00    +0.000 OA
ENDROOT
BRANCH   1  16
ATOM     12  C   UNL     1       7.795   7.751  17.883  0.00  0.00    +0.000 A 
ATOM     13  C   UNL     1       7.904   6.905  18.994  0.00  0.00    +0.000 A 
ATOM     14  C   UNL     1       7.813   5.525  18.844  0.00  0.00    +0.000 A 
ATOM     15  C   UNL     1       7.489   4.987  17.604  0.00  0.00    +0.000 A 
ATOM     16  C   UNL     1       7.127   5.842  16.550  0.00  0.00    +0.000 A 
ATOM     17  C   UNL     1       7.427   7.205  16.647  0.00  0.00    +0.000 A 
BRANCH  12  18
ATOM     18  C   UNL     1       7.952   9.243  18.036  0.00  0.00    +0.000 C 
BRANCH  18  19
ATOM     19  C   UNL     1       9.321   9.612  18.611  0.00  0.00    +0.000 C 
BRANCH  19  25
ATOM     20  C   UNL     1       9.356  12.585  17.750  0.00  0.00    +0.000 C 
ATOM     21  N   UNL     1       9.271  12.094  19.098  0.00  0.00    +0.000 N 
ATOM     22  C   UNL     1       9.213  12.851  20.227  0.00  0.00    +0.000 A 
ATOM     23  N   UNL     1       9.143  12.069  21.277  0.00  0.00    +0.000 NA
ATOM     24  N   UNL     1       9.166  10.771  20.829  0.00  0.00    +0.000 NA
ATOM     25  C   UNL     1       9.240  10.790  19.513  0.00  0.00    +0.000 A 
ENDBRANCH  19  25
ENDBRANCH  18  19
ENDBRANCH  12  18
ENDBRANCH   1  16
BRANCH   9  26
ATOM     26  C   UNL     1       3.038   7.290  18.319  0.00  0.00    +0.000 C 
ATOM     27  F   UNL     1       2.744   7.481  19.633  0.00  0.00    +0.000 F 
ATOM     28  F   UNL     1       4.088   8.114  18.053  0.00  0.00    +0.000 F 
ATOM     29  F   UNL     1       1.983   7.790  17.621  0.00  0.00    +0.000 F 
ENDBRANCH   9  26
TORSDOF 5
ENDMDL
MODEL 6
REMARK VINA RESULT:      -8.6      4.515      6.748
REMARK  Name = 
REMARK  6 active torsions:
REMARK  status: ('A' for Active; 'I' for Inactive)
REMARK    1  A    between atoms: C_1  and  N_2
REMARK    2  A    between atoms: C_6  and  C_7
REMARK    3  A    between atoms: C_7  and  C_8
REMARK    4  A    between atoms: C_8  and  C_9
REMARK    5  A    between atoms: C_13  and  N_14
REMARK    6  A    between atoms: C_22  and  C_23
REMARK                            x       y       z     vdW  Elec       q    Type
REMARK                         _______ _______ _______ _____ _____    ______ ____
ROOT
ATOM      1  N   UNL     1       6.044   5.378  15.678  0.00  0.00    +0.000 N 
ATOM      2  C   UNL     1       4.825   6.205  15.860  0.00  0.00    +0.000 C 
ATOM      3  C   UNL     1       4.081   5.438  16.919  0.00  0.00    +0.000 A 
ATOM      4  C   UNL     1       4.468   4.101  16.806  0.00  0.00    +0.000 A 
ATOM      5  C   UNL     1       4.099   3.135  17.719  0.00  0.00    +0.000 A 
ATOM      6  C   UNL     1       3.343   3.554  18.798  0.00  0.00    +0.000 A 
ATOM      7  F   UNL     1       3.041   2.680  19.767  0.00  0.00    +0.000 F 
ATOM      8  C   UNL     1       2.962   4.899  18.953  0.00  0.00    +0.000 A 
ATOM      9  C   UNL     1       3.334   5.876  18.007  0.00  0.00    +0.000 A 
ATOM     10  C   UNL     1       5.629   4.040  15.888  0.00  0.00    +0.000 C 
ATOM     11  O   UNL     1       6.204   3.008  15.590  0.00  0.00    +0.000 OA
ENDROOT
BRANCH   1  16
ATOM     12  C   UNL     1       7.723   7.838  17.797  0.00  0.00    +0.000 A 
ATOM     13  C   UNL     1       7.892   7.041  18.937  0.00  0.00    +0.000 A 
ATOM     14  C   UNL     1       7.856   5.654  18.841  0.00  0.00    +0.000 A 
ATOM     15  C   UNL     1       7.527   5.056  17.630  0.00  0.00    +0.000 A 
ATOM     16  C   UNL     1       7.106   5.854  16.554  0.00  0.00    +0.000 A 
ATOM     17  C   UNL     1       7.351   7.230  16.592  0.00  0.00    +0.000 A 
BRANCH  12  18
ATOM     18  C   UNL     1       7.820   9.340  17.890  0.00  0.00    +0.000 C 
BRANCH  18  19
ATOM     19  C   UNL     1       9.117   9.782  18.571  0.00  0.00    +0.000 C 
BRANCH  19  25
ATOM     20  C   UNL     1      11.552  11.370  19.636  0.00  0.00    +0.000 C 
ATOM     21  N   UNL     1      10.470  11.901  18.853  0.00  0.00    +0.000 N 
ATOM     22  C   UNL     1      10.320  13.196  18.465  0.00  0.00    +0.000 A 
ATOM     23  N   UNL     1       9.219  13.320  17.765  0.00  0.00    +0.000 NA
ATOM     24  N   UNL     1       8.628  12.082  17.701  0.00  0.00    +0.000 NA
ATOM     25  C   UNL     1       9.387  11.227  18.356  0.00  0.00    +0.000 A 
ENDBRANCH  19  25
ENDBRANCH  18  19
ENDBRANCH  12  18
ENDBRANCH   1  16
BRANCH   9  26
ATOM     26  C   UNL     1       3.010   7.323  18.286  0.00  0.00    +0.000 C 
ATOM     27  F   UNL     1       2.675   7.580  19.578  0.00  0.00    +0.000 F 
ATOM     28  F   UNL     1       4.057   8.145  18.006  0.00  0.00    +0.000 F 
ATOM     29  F   UNL     1       1.969   7.772  17.533  0.00  0.00    +0.000 F 
ENDBRANCH   9  26
TORSDOF 5
ENDMDL
MODEL 7
REMARK VINA RESULT:      -8.4      4.636      6.652
REMARK  Name = 
REMARK  6 active torsions:
REMARK  status: ('A' for Active; 'I' for Inactive)
REMARK    1  A    between atoms: C_1  and  N_2
REMARK    2  A    between atoms: C_6  and  C_7
REMARK    3  A    between atoms: C_7  and  C_8
REMARK    4  A    between atoms: C_8  and  C_9
REMARK    5  A    between atoms: C_13  and  N_14
REMARK    6  A    between atoms: C_22  and  C_23
REMARK                            x       y       z     vdW  Elec       q    Type
REMARK                         _______ _______ _______ _____ _____    ______ ____
ROOT
ATOM      1  N   UNL     1       5.718   5.597  15.782  0.00  0.00    +0.000 N 
ATOM      2  C   UNL     1       4.492   6.134  16.425  0.00  0.00    +0.000 C 
ATOM      3  C   UNL     1       4.021   4.956  17.235  0.00  0.00    +0.000 A 
ATOM      4  C   UNL     1       4.487   3.806  16.595  0.00  0.00    +0.000 A 
ATOM      5  C   UNL     1       4.373   2.545  17.144  0.00  0.00    +0.000 A 
ATOM      6  C   UNL     1       3.799   2.463  18.400  0.00  0.00    +0.000 A 
ATOM      7  F   UNL     1       3.754   1.278  19.023  0.00  0.00    +0.000 F 
ATOM      8  C   UNL     1       3.347   3.607  19.081  0.00  0.00    +0.000 A 
ATOM      9  C   UNL     1       3.457   4.889  18.504  0.00  0.00    +0.000 A 
ATOM     10  C   UNL     1       5.458   4.224  15.557  0.00  0.00    +0.000 C 
ATOM     11  O   UNL     1       6.048   3.446  14.828  0.00  0.00    +0.000 OA
ENDROOT
BRANCH   1  16
ATOM     12  C   UNL     1       7.855   7.737  17.836  0.00  0.00    +0.000 A 
ATOM     13  C   UNL     1       7.959   6.903  18.956  0.00  0.00    +0.000 A 
ATOM     14  C   UNL     1       7.709   5.540  18.847  0.00  0.00    +0.000 A 
ATOM     15  C   UNL     1       7.233   5.020  17.650  0.00  0.00    +0.000 A 
ATOM     16  C   UNL     1       6.883   5.892  16.606  0.00  0.00    +0.000 A 
ATOM     17  C   UNL     1       7.334   7.215  16.646  0.00  0.00    +0.000 A 
BRANCH  12  18
ATOM     18  C   UNL     1       8.182   9.206  17.940  0.00  0.00    +0.000 C 
BRANCH  18  19
ATOM     19  C   UNL     1       9.079   9.502  19.144  0.00  0.00    +0.000 C 
BRANCH  19  25
ATOM     20  C   UNL     1       9.058  11.671  21.353  0.00  0.00    +0.000 C 
ATOM     21  N   UNL     1       9.652  11.793  20.049  0.00  0.00    +0.000 N 
ATOM     22  C   UNL     1      10.287  12.890  19.557  0.00  0.00    +0.000 A 
ATOM     23  N   UNL     1      10.701  12.647  18.337  0.00  0.00    +0.000 NA
ATOM     24  N   UNL     1      10.321  11.367  18.019  0.00  0.00    +0.000 NA
ATOM     25  C   UNL     1       9.691  10.853  19.056  0.00  0.00    +0.000 A 
ENDBRANCH  19  25
ENDBRANCH  18  19
ENDBRANCH  12  18
ENDBRANCH   1  16
BRANCH   9  26
ATOM     26  C   UNL     1       3.076   6.095  19.327  0.00  0.00    +0.000 C 
ATOM     27  F   UNL     1       4.125   6.887  19.675  0.00  0.00    +0.000 F 
ATOM     28  F   UNL     1       2.203   6.907  18.670  0.00  0.00    +0.000 F 
ATOM     29  F   UNL     1       2.463   5.751  20.492  0.00  0.00    +0.000 F 
ENDBRANCH   9  26
TORSDOF 5
ENDMDL
MODEL 8
REMARK VINA RESULT:      -8.3      4.677      6.552
REMARK  Name = 
REMARK  6 active torsions:
REMARK  status: ('A' for Active; 'I' for Inactive)
REMARK    1  A    between atoms: C_1  and  N_2
REMARK    2  A    between atoms: C_6  and  C_7
REMARK    3  A    between atoms: C_7  and  C_8
REMARK    4  A    between atoms: C_8  and  C_9
REMARK    5  A    between atoms: C_13  and  N_14
REMARK    6  A    between atoms: C_22  and  C_23
REMARK                            x       y       z     vdW  Elec       q    Type
REMARK                         _______ _______ _______ _____ _____    ______ ____
ROOT
ATOM      1  N   UNL     1       5.821   5.980  15.913  0.00  0.00    +0.000 N 
ATOM      2  C   UNL     1       4.650   6.455  16.691  0.00  0.00    +0.000 C 
ATOM      3  C   UNL     1       4.063   5.164  17.194  0.00  0.00    +0.000 A 
ATOM      4  C   UNL     1       4.418   4.169  16.281  0.00  0.00    +0.000 A 
ATOM      5  C   UNL     1       4.180   2.829  16.505  0.00  0.00    +0.000 A 
ATOM      6  C   UNL     1       3.595   2.493  17.712  0.00  0.00    +0.000 A 
ATOM      7  F   UNL     1       3.432   1.201  18.025  0.00  0.00    +0.000 F 
ATOM      8  C   UNL     1       3.252   3.471  18.663  0.00  0.00    +0.000 A 
ATOM      9  C   UNL     1       3.489   4.840  18.418  0.00  0.00    +0.000 A 
ATOM     10  C   UNL     1       5.431   4.736  15.361  0.00  0.00    +0.000 C 
ATOM     11  O   UNL     1       5.946   4.110  14.451  0.00  0.00    +0.000 OA
ENDROOT
BRANCH   1  16
ATOM     12  C   UNL     1       8.118   7.311  18.426  0.00  0.00    +0.000 A 
ATOM     13  C   UNL     1       8.156   6.197  19.275  0.00  0.00    +0.000 A 
ATOM     14  C   UNL     1       7.800   4.938  18.804  0.00  0.00    +0.000 A 
ATOM     15  C   UNL     1       7.285   4.802  17.520  0.00  0.00    +0.000 A 
ATOM     16  C   UNL     1       7.005   5.950  16.761  0.00  0.00    +0.000 A 
ATOM     17  C   UNL     1       7.558   7.174  17.150  0.00  0.00    +0.000 A 
BRANCH  12  18
ATOM     18  C   UNL     1       8.559   8.666  18.920  0.00  0.00    +0.000 C 
BRANCH  18  19
ATOM     19  C   UNL     1       8.342   9.751  17.862  0.00  0.00    +0.000 C 
BRANCH  19  25
ATOM     20  C   UNL     1       7.578  12.656  17.114  0.00  0.00    +0.000 C 
ATOM     21  N   UNL     1       8.772  12.243  17.800  0.00  0.00    +0.000 N 
ATOM     22  C   UNL     1       9.780  13.056  18.217  0.00  0.00    +0.000 A 
ATOM     23  N   UNL     1      10.708  12.339  18.803  0.00  0.00    +0.000 NA
ATOM     24  N   UNL     1      10.306  11.027  18.760  0.00  0.00    +0.000 NA
ATOM     25  C   UNL     1       9.135  10.973  18.157  0.00  0.00    +0.000 A 
ENDBRANCH  19  25
ENDBRANCH  18  19
ENDBRANCH  12  18
ENDBRANCH   1  16
BRANCH   9  26
ATOM     26  C   UNL     1       3.222   5.835  19.520  0.00  0.00    +0.000 C 
ATOM     27  F   UNL     1       4.338   6.437  20.010  0.00  0.00    +0.000 F 
ATOM     28  F   UNL     1       2.408   6.845  19.110  0.00  0.00    +0.000 F 
ATOM     29  F   UNL     1       2.603   5.266  20.589  0.00  0.00    +0.000 F 
ENDBRANCH   9  26
TORSDOF 5
ENDMDL
MODEL 9
REMARK VINA RESULT:      -8.2      1.667      2.549
REMARK  Name = 
REMARK  6 active torsions:
REMARK  status: ('A' for Active; 'I' for Inactive)
REMARK    1  A    between atoms: C_1  and  N_2
REMARK    2  A    between atoms: C_6  and  C_7
REMARK    3  A    between atoms: C_7  and  C_8
REMARK    4  A    between atoms: C_8  and  C_9
REMARK    5  A    between atoms: C_13  and  N_14
REMARK    6  A    between atoms: C_22  and  C_23
REMARK                            x       y       z     vdW  Elec       q    Type
REMARK                         _______ _______ _______ _____ _____    ______ ____
ROOT
ATOM      1  N   UNL     1       4.067   2.994  18.806  0.00  0.00    +0.000 N 
ATOM      2  C   UNL     1       5.531   3.239  18.831  0.00  0.00    +0.000 C 
ATOM      3  C   UNL     1       5.681   4.343  17.820  0.00  0.00    +0.000 A 
ATOM      4  C   UNL     1       4.626   4.217  16.915  0.00  0.00    +0.000 A 
ATOM      5  C   UNL     1       4.360   5.155  15.940  0.00  0.00    +0.000 A 
ATOM      6  C   UNL     1       5.175   6.272  15.912  0.00  0.00    +0.000 A 
ATOM      7  F   UNL     1       4.902   7.262  15.052  0.00  0.00    +0.000 F 
ATOM      8  C   UNL     1       6.228   6.440  16.828  0.00  0.00    +0.000 A 
ATOM      9  C   UNL     1       6.498   5.468  17.814  0.00  0.00    +0.000 A 
ATOM     10  C   UNL     1       3.665   3.236  17.471  0.00  0.00    +0.000 C 
ATOM     11  O   UNL     1       2.629   2.913  16.916  0.00  0.00    +0.000 OA
ENDROOT
BRANCH   1  16
ATOM     12  C   UNL     1       2.282   5.940  20.032  0.00  0.00    +0.000 A 
ATOM     13  C   UNL     1       1.208   5.284  20.646  0.00  0.00    +0.000 A 
ATOM     14  C   UNL     1       1.313   3.947  21.014  0.00  0.00    +0.000 A 
ATOM     15  C   UNL     1       2.444   3.221  20.659  0.00  0.00    +0.000 A 
ATOM     16  C   UNL     1       3.408   3.806  19.821  0.00  0.00    +0.000 A 
ATOM     17  C   UNL     1       3.400   5.193  19.640  0.00  0.00    +0.000 A 
BRANCH  12  18
ATOM     18  C   UNL     1       2.190   7.405  19.686  0.00  0.00    +0.000 C 
BRANCH  18  19
ATOM     19  C   UNL     1       1.477   8.200  20.781  0.00  0.00    +0.000 C 
BRANCH  19  25
ATOM     20  C   UNL     1      -0.379  10.120  22.348  0.00  0.00    +0.000 C 
ATOM     21  N   UNL     1      -0.063  10.201  20.948  0.00  0.00    +0.000 N 
ATOM     22  C   UNL     1      -0.543  11.120  20.068  0.00  0.00    +0.000 A 
ATOM     23  N   UNL     1      -0.045  10.891  18.878  0.00  0.00    +0.000 NA
ATOM     24  N   UNL     1       0.771   9.791  18.975  0.00  0.00    +0.000 NA
ATOM     25  C   UNL     1       0.760   9.379  20.227  0.00  0.00    +0.000 A 
ENDBRANCH  19  25
ENDBRANCH  18  19
ENDBRANCH  12  18
ENDBRANCH   1  16
BRANCH   9  26
ATOM     26  C   UNL     1       7.555   5.754  18.851  0.00  0.00    +0.000 C 
ATOM     27  F   UNL     1       8.165   6.962  18.707  0.00  0.00    +0.000 F 
ATOM     28  F   UNL     1       7.048   5.746  20.114  0.00  0.00    +0.000 F 
ATOM     29  F   UNL     1       8.552   4.828  18.841  0.00  0.00    +0.000 F 
ENDBRANCH   9  26
TORSDOF 5
ENDMDL
