MODEL 1
REMARK VINA RESULT:      -9.5      0.000      0.000
REMARK  Name = 
REMARK  4 active torsions:
REMARK  status: ('A' for Active; 'I' for Inactive)
REMARK    1  A    between atoms: C_1  and  C_2
REMARK    2  A    between atoms: C_6  and  C_8
REMARK    3  A    between atoms: C_12  and  N_13
REMARK    4  A    between atoms: C_21  and  C_22
REMARK                            x       y       z     vdW  Elec       q    Type
REMARK                         _______ _______ _______ _____ _____    ______ ____
ROOT
ATOM      1  C   UNL     1       3.957   2.585  19.508  0.00  0.00    +0.000 C 
ATOM      2  C   UNL     1       3.537   4.013  19.579  0.00  0.00    +0.000 A 
ATOM      3  S   UNL     1       2.422   4.514  20.803  0.00  0.00    +0.000 S 
ATOM      4  C   UNL     1       2.455   6.089  20.173  0.00  0.00    +0.000 A 
ATOM      5  N   UNL     1       1.620   6.988  20.787  0.00  0.00    +0.000 N 
ATOM      6  C   UNL     1       1.408   8.242  20.247  0.00  0.00    +0.000 C 
ATOM      7  O   UNL     1       1.828   8.673  19.182  0.00  0.00    +0.000 OA
ATOM      8  N   UNL     1       3.270   6.299  19.182  0.00  0.00    +0.000 NA
ATOM      9  C   UNL     1       3.901   5.119  18.818  0.00  0.00    +0.000 A 
ATOM     10  H   UNL     1       1.203   6.688  21.652  0.00  0.00    +0.000 HD
ENDROOT
BRANCH   9  11
ATOM     11  C   UNL     1       4.855   5.157  17.712  0.00  0.00    +0.000 A 
ATOM     12  C   UNL     1       6.173   5.622  17.862  0.00  0.00    +0.000 A 
ATOM     13  C   UNL     1       7.073   5.620  16.791  0.00  0.00    +0.000 A 
ATOM     14  C   UNL     1       6.656   5.098  15.580  0.00  0.00    +0.000 A 
ATOM     15  C   UNL     1       5.368   4.594  15.425  0.00  0.00    +0.000 A 
ATOM     16  C   UNL     1       4.456   4.636  16.467  0.00  0.00    +0.000 A 
ATOM     17  C   UNL     1       5.157   4.039  14.054  0.00  0.00    +0.000 C 
ATOM     18  C   UNL     1       6.581   4.045  13.474  0.00  0.00    +0.000 C 
ATOM     19  C   UNL     1       7.434   5.007  14.313  0.00  0.00    +0.000 C 
ENDBRANCH   9  11
BRANCH   6  20
ATOM     20  C   UNL     1       0.593   9.161  21.087  0.00  0.00    +0.000 A 
ATOM     21  C   UNL     1       0.252   8.852  22.406  0.00  0.00    +0.000 A 
ATOM     22  C   UNL     1      -0.424   9.792  23.179  0.00  0.00    +0.000 A 
ATOM     23  C   UNL     1      -0.736  11.040  22.639  0.00  0.00    +0.000 A 
ATOM     24  C   UNL     1      -0.424  11.361  21.312  0.00  0.00    +0.000 A 
ATOM     25  C   UNL     1       0.205  10.392  20.524  0.00  0.00    +0.000 A 
BRANCH  24  26
ATOM     26  N   UNL     1      -0.726  12.642  20.802  0.00  0.00    +0.000 N 
ATOM     27  C   UNL     1       0.054  13.835  21.051  0.00  0.00    +0.000 C 
ATOM     28  C   UNL     1      -0.488  14.810  20.012  0.00  0.00    +0.000 C 
ATOM     29  N   UNL     1      -1.820  14.334  19.783  0.00  0.00    +0.000 N 
ATOM     30  C   UNL     1      -1.900  12.983  20.101  0.00  0.00    +0.000 C 
ATOM     31  O   UNL     1      -2.856  12.289  19.799  0.00  0.00    +0.000 OA
ATOM     32  H   UNL     1      -2.490  14.712  19.126  0.00  0.00    +0.000 HD
ENDBRANCH  24  26
ENDBRANCH   6  20
TORSDOF 3
ENDMDL
MODEL 2
REMARK VINA RESULT:      -9.4      1.082      1.236
REMARK  Name = 
REMARK  4 active torsions:
REMARK  status: ('A' for Active; 'I' for Inactive)
REMARK    1  A    between atoms: C_1  and  C_2
REMARK    2  A    between atoms: C_6  and  C_8
REMARK    3  A    between atoms: C_12  and  N_13
REMARK    4  A    between atoms: C_21  and  C_22
REMARK                            x       y       z     vdW  Elec       q    Type
REMARK                         _______ _______ _______ _____ _____    ______ ____
ROOT
ATOM      1  C   UNL     1       3.766   2.673  19.565  0.00  0.00    +0.000 C 
ATOM      2  C   UNL     1       3.382   4.111  19.641  0.00  0.00    +0.000 A 
ATOM      3  S   UNL     1       2.254   4.630  20.846  0.00  0.00    +0.000 S 
ATOM      4  C   UNL     1       2.342   6.209  20.231  0.00  0.00    +0.000 A 
ATOM      5  N   UNL     1       1.518   7.124  20.836  0.00  0.00    +0.000 N 
ATOM      6  C   UNL     1       1.350   8.387  20.303  0.00  0.00    +0.000 C 
ATOM      7  O   UNL     1       1.803   8.817  19.251  0.00  0.00    +0.000 OA
ATOM      8  N   UNL     1       3.182   6.406  19.260  0.00  0.00    +0.000 NA
ATOM      9  C   UNL     1       3.790   5.213  18.898  0.00  0.00    +0.000 A 
ATOM     10  H   UNL     1       1.075   6.828  21.689  0.00  0.00    +0.000 HD
ENDROOT
BRANCH   9  11
ATOM     11  C   UNL     1       4.768   5.236  17.813  0.00  0.00    +0.000 A 
ATOM     12  C   UNL     1       6.081   5.711  17.982  0.00  0.00    +0.000 A 
ATOM     13  C   UNL     1       7.003   5.694  16.931  0.00  0.00    +0.000 A 
ATOM     14  C   UNL     1       6.615   5.148  15.722  0.00  0.00    +0.000 A 
ATOM     15  C   UNL     1       5.334   4.633  15.548  0.00  0.00    +0.000 A 
ATOM     16  C   UNL     1       4.399   4.690  16.569  0.00  0.00    +0.000 A 
ATOM     17  C   UNL     1       5.156   4.052  14.183  0.00  0.00    +0.000 C 
ATOM     18  C   UNL     1       6.591   4.055  13.635  0.00  0.00    +0.000 C 
ATOM     19  C   UNL     1       7.422   5.037  14.474  0.00  0.00    +0.000 C 
ENDBRANCH   9  11
BRANCH   6  20
ATOM     20  C   UNL     1       0.541   9.321  21.134  0.00  0.00    +0.000 A 
ATOM     21  C   UNL     1       0.018   8.943  22.373  0.00  0.00    +0.000 A 
ATOM     22  C   UNL     1      -0.644   9.887  23.155  0.00  0.00    +0.000 A 
ATOM     23  C   UNL     1      -0.760  11.202  22.707  0.00  0.00    +0.000 A 
ATOM     24  C   UNL     1      -0.262  11.595  21.458  0.00  0.00    +0.000 A 
ATOM     25  C   UNL     1       0.351  10.630  20.653  0.00  0.00    +0.000 A 
BRANCH  24  26
ATOM     26  N   UNL     1      -0.368  12.940  21.042  0.00  0.00    +0.000 N 
ATOM     27  C   UNL     1      -1.374  13.446  20.133  0.00  0.00    +0.000 C 
ATOM     28  C   UNL     1      -1.256  14.955  20.311  0.00  0.00    +0.000 C 
ATOM     29  N   UNL     1       0.102  15.127  20.735  0.00  0.00    +0.000 N 
ATOM     30  C   UNL     1       0.563  13.957  21.329  0.00  0.00    +0.000 C 
ATOM     31  O   UNL     1       1.605  13.904  21.962  0.00  0.00    +0.000 OA
ATOM     32  H   UNL     1       0.549  15.999  20.984  0.00  0.00    +0.000 HD
ENDBRANCH  24  26
ENDBRANCH   6  20
TORSDOF 3
ENDMDL
MODEL 3
REMARK VINA RESULT:      -9.2      2.604     10.224
REMARK  Name = 
REMARK  4 active torsions:
REMARK  status: ('A' for Active; 'I' for Inactive)
REMARK    1  A    between atoms: C_1  and  C_2
REMARK    2  A    between atoms: C_6  and  C_8
REMARK    3  A    between atoms: C_12  and  N_13
REMARK    4  A    between atoms: C_21  and  C_22
REMARK                            x       y       z     vdW  Elec       q    Type
REMARK                         _______ _______ _______ _____ _____    ______ ____
ROOT
ATOM      1  C   UNL     1       0.510  12.253  18.324  0.00  0.00    +0.000 C 
ATOM      2  C   UNL     1       0.833  10.927  18.922  0.00  0.00    +0.000 A 
ATOM      3  S   UNL     1       1.978   9.894  18.137  0.00  0.00    +0.000 S 
ATOM      4  C   UNL     1       1.714   8.716  19.330  0.00  0.00    +0.000 A 
ATOM      5  N   UNL     1       2.394   7.536  19.153  0.00  0.00    +0.000 N 
ATOM      6  C   UNL     1       2.115   6.435  19.938  0.00  0.00    +0.000 C 
ATOM      7  O   UNL     1       1.234   6.325  20.780  0.00  0.00    +0.000 OA
ATOM      8  N   UNL     1       0.910   9.040  20.296  0.00  0.00    +0.000 NA
ATOM      9  C   UNL     1       0.385  10.307  20.083  0.00  0.00    +0.000 A 
ATOM     10  H   UNL     1       3.109   7.537  18.448  0.00  0.00    +0.000 HD
ENDROOT
BRANCH   9  11
ATOM     11  C   UNL     1      -0.551  10.843  21.069  0.00  0.00    +0.000 A 
ATOM     12  C   UNL     1      -0.503  10.495  22.430  0.00  0.00    +0.000 A 
ATOM     13  C   UNL     1      -1.394  11.047  23.356  0.00  0.00    +0.000 A 
ATOM     14  C   UNL     1      -2.301  11.993  22.915  0.00  0.00    +0.000 A 
ATOM     15  C   UNL     1      -2.335  12.382  21.579  0.00  0.00    +0.000 A 
ATOM     16  C   UNL     1      -1.488  11.805  20.647  0.00  0.00    +0.000 A 
ATOM     17  C   UNL     1      -3.356  13.448  21.343  0.00  0.00    +0.000 C 
ATOM     18  C   UNL     1      -3.763  13.834  22.774  0.00  0.00    +0.000 C 
ATOM     19  C   UNL     1      -3.342  12.697  23.716  0.00  0.00    +0.000 C 
ENDBRANCH   9  11
BRANCH   6  20
ATOM     20  C   UNL     1       3.019   5.270  19.735  0.00  0.00    +0.000 A 
ATOM     21  C   UNL     1       2.838   4.065  20.419  0.00  0.00    +0.000 A 
ATOM     22  C   UNL     1       3.649   2.975  20.116  0.00  0.00    +0.000 A 
ATOM     23  C   UNL     1       4.620   3.087  19.121  0.00  0.00    +0.000 A 
ATOM     24  C   UNL     1       4.833   4.293  18.440  0.00  0.00    +0.000 A 
ATOM     25  C   UNL     1       4.053   5.400  18.789  0.00  0.00    +0.000 A 
BRANCH  24  26
ATOM     26  N   UNL     1       5.803   4.369  17.417  0.00  0.00    +0.000 N 
ATOM     27  C   UNL     1       5.569   4.028  16.030  0.00  0.00    +0.000 C 
ATOM     28  C   UNL     1       6.790   4.616  15.333  0.00  0.00    +0.000 C 
ATOM     29  N   UNL     1       7.785   4.617  16.364  0.00  0.00    +0.000 N 
ATOM     30  C   UNL     1       7.171   4.643  17.612  0.00  0.00    +0.000 C 
ATOM     31  O   UNL     1       7.783   4.862  18.644  0.00  0.00    +0.000 OA
ATOM     32  H   UNL     1       8.730   4.967  16.289  0.00  0.00    +0.000 HD
ENDBRANCH  24  26
ENDBRANCH   6  20
TORSDOF 3
ENDMDL
MODEL 4
REMARK VINA RESULT:      -9.1      2.645      9.746
REMARK  Name = 
REMARK  4 active torsions:
REMARK  status: ('A' for Active; 'I' for Inactive)
REMARK    1  A    between atoms: C_1  and  C_2
REMARK    2  A    between atoms: C_6  and  C_8
REMARK    3  A    between atoms: C_12  and  N_13
REMARK    4  A    between atoms: C_21  and  C_22
REMARK                            x       y       z     vdW  Elec       q    Type
REMARK                         _______ _______ _______ _____ _____    ______ ____
ROOT
ATOM      1  C   UNL     1      -0.794  11.341  22.704  0.00  0.00    +0.000 C 
ATOM      2  C   UNL     1      -0.094  10.633  21.594  0.00  0.00    +0.000 A 
ATOM      3  S   UNL     1       0.155   8.924  21.697  0.00  0.00    +0.000 S 
ATOM      4  C   UNL     1       0.981   8.969  20.215  0.00  0.00    +0.000 A 
ATOM      5  N   UNL     1       1.506   7.771  19.796  0.00  0.00    +0.000 N 
ATOM      6  C   UNL     1       2.363   7.713  18.715  0.00  0.00    +0.000 C 
ATOM      7  O   UNL     1       2.816   8.652  18.074  0.00  0.00    +0.000 OA
ATOM      8  N   UNL     1       1.030  10.119  19.613  0.00  0.00    +0.000 NA
ATOM      9  C   UNL     1       0.422  11.095  20.389  0.00  0.00    +0.000 A 
ATOM     10  H   UNL     1       1.209   6.955  20.302  0.00  0.00    +0.000 HD
ENDROOT
BRANCH   9  11
ATOM     11  C   UNL     1       0.385  12.463  19.875  0.00  0.00    +0.000 A 
ATOM     12  C   UNL     1      -0.779  13.252  19.899  0.00  0.00    +0.000 A 
ATOM     13  C   UNL     1      -0.777  14.568  19.426  0.00  0.00    +0.000 A 
ATOM     14  C   UNL     1       0.416  15.106  18.978  0.00  0.00    +0.000 A 
ATOM     15  C   UNL     1       1.587  14.355  18.987  0.00  0.00    +0.000 A 
ATOM     16  C   UNL     1       1.583  13.034  19.409  0.00  0.00    +0.000 A 
ATOM     17  C   UNL     1       2.756  15.153  18.508  0.00  0.00    +0.000 C 
ATOM     18  C   UNL     1       2.178  16.576  18.447  0.00  0.00    +0.000 C 
ATOM     19  C   UNL     1       0.646  16.470  18.425  0.00  0.00    +0.000 C 
ENDBRANCH   9  11
BRANCH   6  20
ATOM     20  C   UNL     1       2.745   6.341  18.285  0.00  0.00    +0.000 A 
ATOM     21  C   UNL     1       1.885   5.251  18.443  0.00  0.00    +0.000 A 
ATOM     22  C   UNL     1       2.251   4.008  17.930  0.00  0.00    +0.000 A 
ATOM     23  C   UNL     1       3.459   3.867  17.247  0.00  0.00    +0.000 A 
ATOM     24  C   UNL     1       4.344   4.942  17.098  0.00  0.00    +0.000 A 
ATOM     25  C   UNL     1       3.997   6.173  17.664  0.00  0.00    +0.000 A 
BRANCH  24  26
ATOM     26  N   UNL     1       5.546   4.776  16.376  0.00  0.00    +0.000 N 
ATOM     27  C   UNL     1       5.633   4.622  14.940  0.00  0.00    +0.000 C 
ATOM     28  C   UNL     1       7.116   4.839  14.670  0.00  0.00    +0.000 C 
ATOM     29  N   UNL     1       7.732   4.457  15.906  0.00  0.00    +0.000 N 
ATOM     30  C   UNL     1       6.821   4.591  16.948  0.00  0.00    +0.000 C 
ATOM     31  O   UNL     1       7.147   4.536  18.122  0.00  0.00    +0.000 OA
ATOM     32  H   UNL     1       8.718   4.496  16.126  0.00  0.00    +0.000 HD
ENDBRANCH  24  26
ENDBRANCH   6  20
TORSDOF 3
ENDMDL
MODEL 5
REMARK VINA RESULT:      -8.8      0.980      1.095
REMARK  Name = 
REMARK  4 active torsions:
REMARK  status: ('A' for Active; 'I' for Inactive)
REMARK    1  A    between atoms: C_1  and  C_2
REMARK    2  A    between atoms: C_6  and  C_8
REMARK    3  A    between atoms: C_12  and  N_13
REMARK    4  A    between atoms: C_21  and  C_22
REMARK                            x       y       z     vdW  Elec       q    Type
REMARK                         _______ _______ _______ _____ _____    ______ ____
ROOT
ATOM      1  C   UNL     1       3.943   2.444  18.690  0.00  0.00    +0.000 C 
ATOM      2  C   UNL     1       3.577   3.874  18.893  0.00  0.00    +0.000 A 
ATOM      3  S   UNL     1       2.493   4.303  20.172  0.00  0.00    +0.000 S 
ATOM      4  C   UNL     1       2.579   5.926  19.683  0.00  0.00    +0.000 A 
ATOM      5  N   UNL     1       1.784   6.796  20.386  0.00  0.00    +0.000 N 
ATOM      6  C   UNL     1       1.613   8.100  19.962  0.00  0.00    +0.000 C 
ATOM      7  O   UNL     1       2.038   8.609  18.933  0.00  0.00    +0.000 OA
ATOM      8  N   UNL     1       3.390   6.194  18.704  0.00  0.00    +0.000 NA
ATOM      9  C   UNL     1       3.974   5.029  18.228  0.00  0.00    +0.000 A 
ATOM     10  H   UNL     1       1.365   6.436  21.226  0.00  0.00    +0.000 HD
ENDROOT
BRANCH   9  11
ATOM     11  C   UNL     1       4.917   5.131  17.118  0.00  0.00    +0.000 A 
ATOM     12  C   UNL     1       6.151   5.796  17.227  0.00  0.00    +0.000 A 
ATOM     13  C   UNL     1       7.047   5.853  16.155  0.00  0.00    +0.000 A 
ATOM     14  C   UNL     1       6.718   5.192  14.985  0.00  0.00    +0.000 A 
ATOM     15  C   UNL     1       5.521   4.492  14.873  0.00  0.00    +0.000 A 
ATOM     16  C   UNL     1       4.606   4.471  15.914  0.00  0.00    +0.000 A 
ATOM     17  C   UNL     1       5.402   3.817  13.545  0.00  0.00    +0.000 C 
ATOM     18  C   UNL     1       6.811   3.994  12.959  0.00  0.00    +0.000 C 
ATOM     19  C   UNL     1       7.508   5.129  13.724  0.00  0.00    +0.000 C 
ENDBRANCH   9  11
BRANCH   6  20
ATOM     20  C   UNL     1       0.841   8.970  20.890  0.00  0.00    +0.000 A 
ATOM     21  C   UNL     1       0.752   8.696  22.257  0.00  0.00    +0.000 A 
ATOM     22  C   UNL     1       0.103   9.598  23.097  0.00  0.00    +0.000 A 
ATOM     23  C   UNL     1      -0.432  10.775  22.572  0.00  0.00    +0.000 A 
ATOM     24  C   UNL     1      -0.372  11.057  21.201  0.00  0.00    +0.000 A 
ATOM     25  C   UNL     1       0.230  10.120  20.356  0.00  0.00    +0.000 A 
BRANCH  24  26
ATOM     26  N   UNL     1      -0.897  12.268  20.703  0.00  0.00    +0.000 N 
ATOM     27  C   UNL     1      -2.255  12.726  20.907  0.00  0.00    +0.000 C 
ATOM     28  C   UNL     1      -2.179  14.190  20.489  0.00  0.00    +0.000 C 
ATOM     29  N   UNL     1      -1.087  14.207  19.561  0.00  0.00    +0.000 N 
ATOM     30  C   UNL     1      -0.233  13.140  19.817  0.00  0.00    +0.000 C 
ATOM     31  O   UNL     1       0.875  13.046  19.316  0.00  0.00    +0.000 OA
ATOM     32  H   UNL     1      -0.711  15.018  19.089  0.00  0.00    +0.000 HD
ENDBRANCH  24  26
ENDBRANCH   6  20
TORSDOF 3
ENDMDL
MODEL 6
REMARK VINA RESULT:      -8.7      1.828      2.206
REMARK  Name = 
REMARK  4 active torsions:
REMARK  status: ('A' for Active; 'I' for Inactive)
REMARK    1  A    between atoms: C_1  and  C_2
REMARK    2  A    between atoms: C_6  and  C_8
REMARK    3  A    between atoms: C_12  and  N_13
REMARK    4  A    between atoms: C_21  and  C_22
REMARK                            x       y       z     vdW  Elec       q    Type
REMARK                         _______ _______ _______ _____ _____    ______ ____
ROOT
ATOM      1  C   UNL     1       4.417   2.923  18.646  0.00  0.00    +0.000 C 
ATOM      2  C   UNL     1       3.991   4.345  18.512  0.00  0.00    +0.000 A 
ATOM      3  S   UNL     1       2.956   5.042  19.710  0.00  0.00    +0.000 S 
ATOM      4  C   UNL     1       2.934   6.493  18.829  0.00  0.00    +0.000 A 
ATOM      5  N   UNL     1       2.134   7.483  19.344  0.00  0.00    +0.000 N 
ATOM      6  C   UNL     1       1.876   8.631  18.622  0.00  0.00    +0.000 C 
ATOM      7  O   UNL     1       2.220   8.882  17.474  0.00  0.00    +0.000 OA
ATOM      8  N   UNL     1       3.678   6.536  17.765  0.00  0.00    +0.000 NA
ATOM      9  C   UNL     1       4.293   5.310  17.557  0.00  0.00    +0.000 A 
ATOM     10  H   UNL     1       1.779   7.330  20.272  0.00  0.00    +0.000 HD
ENDROOT
BRANCH   9  11
ATOM     11  C   UNL     1       5.170   5.165  16.398  0.00  0.00    +0.000 A 
ATOM     12  C   UNL     1       6.520   5.555  16.412  0.00  0.00    +0.000 A 
ATOM     13  C   UNL     1       7.343   5.377  15.295  0.00  0.00    +0.000 A 
ATOM     14  C   UNL     1       6.815   4.754  14.180  0.00  0.00    +0.000 A 
ATOM     15  C   UNL     1       5.492   4.321  14.162  0.00  0.00    +0.000 A 
ATOM     16  C   UNL     1       4.657   4.537  15.247  0.00  0.00    +0.000 A 
ATOM     17  C   UNL     1       5.156   3.633  12.878  0.00  0.00    +0.000 C 
ATOM     18  C   UNL     1       6.535   3.483  12.216  0.00  0.00    +0.000 C 
ATOM     19  C   UNL     1       7.499   4.474  12.886  0.00  0.00    +0.000 C 
ENDBRANCH   9  11
BRANCH   6  20
ATOM     20  C   UNL     1       1.112   9.678  19.353  0.00  0.00    +0.000 A 
ATOM     21  C   UNL     1       0.374   9.387  20.503  0.00  0.00    +0.000 A 
ATOM     22  C   UNL     1      -0.239  10.422  21.206  0.00  0.00    +0.000 A 
ATOM     23  C   UNL     1      -0.094  11.739  20.770  0.00  0.00    +0.000 A 
ATOM     24  C   UNL     1       0.623  12.049  19.607  0.00  0.00    +0.000 A 
ATOM     25  C   UNL     1       1.188  11.000  18.874  0.00  0.00    +0.000 A 
BRANCH  24  26
ATOM     26  N   UNL     1       0.777  13.394  19.205  0.00  0.00    +0.000 N 
ATOM     27  C   UNL     1      -0.273  14.212  18.637  0.00  0.00    +0.000 C 
ATOM     28  C   UNL     1       0.313  15.615  18.726  0.00  0.00    +0.000 C 
ATOM     29  N   UNL     1       1.727  15.380  18.703  0.00  0.00    +0.000 N 
ATOM     30  C   UNL     1       1.998  14.095  19.159  0.00  0.00    +0.000 C 
ATOM     31  O   UNL     1       3.124  13.718  19.439  0.00  0.00    +0.000 OA
ATOM     32  H   UNL     1       2.454  16.078  18.776  0.00  0.00    +0.000 HD
ENDBRANCH  24  26
ENDBRANCH   6  20
TORSDOF 3
ENDMDL
MODEL 7
REMARK VINA RESULT:      -8.7      3.000      9.582
REMARK  Name = 
REMARK  4 active torsions:
REMARK  status: ('A' for Active; 'I' for Inactive)
REMARK    1  A    between atoms: C_1  and  C_2
REMARK    2  A    between atoms: C_6  and  C_8
REMARK    3  A    between atoms: C_12  and  N_13
REMARK    4  A    between atoms: C_21  and  C_22
REMARK                            x       y       z     vdW  Elec       q    Type
REMARK                         _______ _______ _______ _____ _____    ______ ____
ROOT
ATOM      1  C   UNL     1      -0.668  11.046  22.540  0.00  0.00    +0.000 C 
ATOM      2  C   UNL     1      -0.085  10.099  21.548  0.00  0.00    +0.000 A 
ATOM      3  S   UNL     1       1.242   9.089  22.010  0.00  0.00    +0.000 S 
ATOM      4  C   UNL     1       1.295   8.459  20.435  0.00  0.00    +0.000 A 
ATOM      5  N   UNL     1       2.304   7.561  20.194  0.00  0.00    +0.000 N 
ATOM      6  C   UNL     1       2.577   7.130  18.910  0.00  0.00    +0.000 C 
ATOM      7  O   UNL     1       2.061   7.518  17.870  0.00  0.00    +0.000 OA
ATOM      8  N   UNL     1       0.378   8.874  19.614  0.00  0.00    +0.000 NA
ATOM      9  C   UNL     1      -0.427   9.822  20.229  0.00  0.00    +0.000 A 
ATOM     10  H   UNL     1       2.803   7.226  20.999  0.00  0.00    +0.000 HD
ENDROOT
BRANCH   9  11
ATOM     11  C   UNL     1      -1.517  10.410  19.454  0.00  0.00    +0.000 A 
ATOM     12  C   UNL     1      -2.178  11.588  19.846  0.00  0.00    +0.000 A 
ATOM     13  C   UNL     1      -3.200  12.143  19.069  0.00  0.00    +0.000 A 
ATOM     14  C   UNL     1      -3.518  11.538  17.867  0.00  0.00    +0.000 A 
ATOM     15  C   UNL     1      -2.844  10.397  17.441  0.00  0.00    +0.000 A 
ATOM     16  C   UNL     1      -1.864   9.813  18.228  0.00  0.00    +0.000 A 
ATOM     17  C   UNL     1      -3.317   9.949  16.097  0.00  0.00    +0.000 C 
ATOM     18  C   UNL     1      -4.197  11.127  15.649  0.00  0.00    +0.000 C 
ATOM     19  C   UNL     1      -4.569  11.946  16.894  0.00  0.00    +0.000 C 
ENDBRANCH   9  11
BRANCH   6  20
ATOM     20  C   UNL     1       3.600   6.054  18.809  0.00  0.00    +0.000 A 
ATOM     21  C   UNL     1       3.722   5.056  19.779  0.00  0.00    +0.000 A 
ATOM     22  C   UNL     1       4.627   4.016  19.584  0.00  0.00    +0.000 A 
ATOM     23  C   UNL     1       5.388   3.967  18.415  0.00  0.00    +0.000 A 
ATOM     24  C   UNL     1       5.296   4.969  17.441  0.00  0.00    +0.000 A 
ATOM     25  C   UNL     1       4.427   6.041  17.670  0.00  0.00    +0.000 A 
BRANCH  24  26
ATOM     26  N   UNL     1       6.057   4.878  16.256  0.00  0.00    +0.000 N 
ATOM     27  C   UNL     1       5.917   3.834  15.263  0.00  0.00    +0.000 C 
ATOM     28  C   UNL     1       6.686   4.399  14.075  0.00  0.00    +0.000 C 
ATOM     29  N   UNL     1       7.633   5.281  14.690  0.00  0.00    +0.000 N 
ATOM     30  C   UNL     1       7.157   5.695  15.929  0.00  0.00    +0.000 C 
ATOM     31  O   UNL     1       7.665   6.607  16.560  0.00  0.00    +0.000 OA
ATOM     32  H   UNL     1       8.306   5.867  14.215  0.00  0.00    +0.000 HD
ENDBRANCH  24  26
ENDBRANCH   6  20
TORSDOF 3
ENDMDL
MODEL 8
REMARK VINA RESULT:      -8.6      2.685     10.256
REMARK  Name = 
REMARK  4 active torsions:
REMARK  status: ('A' for Active; 'I' for Inactive)
REMARK    1  A    between atoms: C_1  and  C_2
REMARK    2  A    between atoms: C_6  and  C_8
REMARK    3  A    between atoms: C_12  and  N_13
REMARK    4  A    between atoms: C_21  and  C_22
REMARK                            x       y       z     vdW  Elec       q    Type
REMARK                         _______ _______ _______ _____ _____    ______ ____
ROOT
ATOM      1  C   UNL     1      -0.134  12.925  18.200  0.00  0.00    +0.000 C 
ATOM      2  C   UNL     1       0.279  11.704  18.949  0.00  0.00    +0.000 A 
ATOM      3  S   UNL     1       1.064  10.412  18.107  0.00  0.00    +0.000 S 
ATOM      4  C   UNL     1       1.110   9.518  19.549  0.00  0.00    +0.000 A 
ATOM      5  N   UNL     1       1.631   8.253  19.441  0.00  0.00    +0.000 N 
ATOM      6  C   UNL     1       1.543   7.359  20.491  0.00  0.00    +0.000 C 
ATOM      7  O   UNL     1       0.958   7.516  21.554  0.00  0.00    +0.000 OA
ATOM      8  N   UNL     1       0.662  10.112  20.614  0.00  0.00    +0.000 NA
ATOM      9  C   UNL     1       0.173  11.371  20.294  0.00  0.00    +0.000 A 
ATOM     10  H   UNL     1       2.094   8.035  18.576  0.00  0.00    +0.000 HD
ENDROOT
BRANCH   9  11
ATOM     11  C   UNL     1      -0.381  12.191  21.369  0.00  0.00    +0.000 A 
ATOM     12  C   UNL     1       0.154  13.443  21.722  0.00  0.00    +0.000 A 
ATOM     13  C   UNL     1      -0.416  14.218  22.737  0.00  0.00    +0.000 A 
ATOM     14  C   UNL     1      -1.559  13.753  23.361  0.00  0.00    +0.000 A 
ATOM     15  C   UNL     1      -2.128  12.536  22.995  0.00  0.00    +0.000 A 
ATOM     16  C   UNL     1      -1.542  11.739  22.024  0.00  0.00    +0.000 A 
ATOM     17  C   UNL     1      -3.379  12.262  23.763  0.00  0.00    +0.000 C 
ATOM     18  C   UNL     1      -3.632  13.603  24.469  0.00  0.00    +0.000 C 
ATOM     19  C   UNL     1      -2.320  14.401  24.465  0.00  0.00    +0.000 C 
ENDBRANCH   9  11
BRANCH   6  20
ATOM     20  C   UNL     1       2.270   6.076  20.290  0.00  0.00    +0.000 A 
ATOM     21  C   UNL     1       1.776   4.863  20.776  0.00  0.00    +0.000 A 
ATOM     22  C   UNL     1       2.444   3.679  20.472  0.00  0.00    +0.000 A 
ATOM     23  C   UNL     1       3.584   3.711  19.670  0.00  0.00    +0.000 A 
ATOM     24  C   UNL     1       4.108   4.919  19.192  0.00  0.00    +0.000 A 
ATOM     25  C   UNL     1       3.465   6.109  19.548  0.00  0.00    +0.000 A 
BRANCH  24  26
ATOM     26  N   UNL     1       5.247   4.918  18.358  0.00  0.00    +0.000 N 
ATOM     27  C   UNL     1       5.249   4.532  16.963  0.00  0.00    +0.000 C 
ATOM     28  C   UNL     1       6.599   5.045  16.477  0.00  0.00    +0.000 C 
ATOM     29  N   UNL     1       7.394   5.052  17.670  0.00  0.00    +0.000 N 
ATOM     30  C   UNL     1       6.569   5.150  18.785  0.00  0.00    +0.000 C 
ATOM     31  O   UNL     1       6.996   5.388  19.903  0.00  0.00    +0.000 OA
ATOM     32  H   UNL     1       8.351   5.364  17.754  0.00  0.00    +0.000 HD
ENDBRANCH  24  26
ENDBRANCH   6  20
TORSDOF 3
ENDMDL
MODEL 9
REMARK VINA RESULT:      -8.6      2.514      9.958
REMARK  Name = 
REMARK  4 active torsions:
REMARK  status: ('A' for Active; 'I' for Inactive)
REMARK    1  A    between atoms: C_1  and  C_2
REMARK    2  A    between atoms: C_6  and  C_8
REMARK    3  A    between atoms: C_12  and  N_13
REMARK    4  A    between atoms: C_21  and  C_22
REMARK                            x       y       z     vdW  Elec       q    Type
REMARK                         _______ _______ _______ _____ _____    ______ ____
ROOT
ATOM      1  C   UNL     1      -0.834  11.244  22.736  0.00  0.00    +0.000 C 
ATOM      2  C   UNL     1      -0.109  10.551  21.634  0.00  0.00    +0.000 A 
ATOM      3  S   UNL     1       0.088   8.833  21.691  0.00  0.00    +0.000 S 
ATOM      4  C   UNL     1       0.976   8.899  20.247  0.00  0.00    +0.000 A 
ATOM      5  N   UNL     1       1.484   7.700  19.812  0.00  0.00    +0.000 N 
ATOM      6  C   UNL     1       2.384   7.650  18.766  0.00  0.00    +0.000 C 
ATOM      7  O   UNL     1       2.891   8.594  18.175  0.00  0.00    +0.000 OA
ATOM      8  N   UNL     1       1.083  10.065  19.685  0.00  0.00    +0.000 NA
ATOM      9  C   UNL     1       0.471  11.034  20.467  0.00  0.00    +0.000 A 
ATOM     10  H   UNL     1       1.144   6.877  20.279  0.00  0.00    +0.000 HD
ENDROOT
BRANCH   9  11
ATOM     11  C   UNL     1       0.494  12.417  19.997  0.00  0.00    +0.000 A 
ATOM     12  C   UNL     1       1.403  12.875  19.026  0.00  0.00    +0.000 A 
ATOM     13  C   UNL     1       1.382  14.199  18.575  0.00  0.00    +0.000 A 
ATOM     14  C   UNL     1       0.407  15.048  19.065  0.00  0.00    +0.000 A 
ATOM     15  C   UNL     1      -0.529  14.601  19.993  0.00  0.00    +0.000 A 
ATOM     16  C   UNL     1      -0.485  13.304  20.482  0.00  0.00    +0.000 A 
ATOM     17  C   UNL     1      -1.512  15.671  20.341  0.00  0.00    +0.000 C 
ATOM     18  C   UNL     1      -1.197  16.757  19.301  0.00  0.00    +0.000 C 
ATOM     19  C   UNL     1       0.206  16.487  18.737  0.00  0.00    +0.000 C 
ENDBRANCH   9  11
BRANCH   6  20
ATOM     20  C   UNL     1       2.745   6.280  18.308  0.00  0.00    +0.000 A 
ATOM     21  C   UNL     1       1.862   5.204  18.429  0.00  0.00    +0.000 A 
ATOM     22  C   UNL     1       2.210   3.967  17.891  0.00  0.00    +0.000 A 
ATOM     23  C   UNL     1       3.424   3.818  17.220  0.00  0.00    +0.000 A 
ATOM     24  C   UNL     1       4.332   4.879  17.108  0.00  0.00    +0.000 A 
ATOM     25  C   UNL     1       4.002   6.103  17.699  0.00  0.00    +0.000 A 
BRANCH  24  26
ATOM     26  N   UNL     1       5.540   4.707  16.399  0.00  0.00    +0.000 N 
ATOM     27  C   UNL     1       5.639   4.543  14.964  0.00  0.00    +0.000 C 
ATOM     28  C   UNL     1       7.125   4.756  14.706  0.00  0.00    +0.000 C 
ATOM     29  N   UNL     1       7.729   4.381  15.950  0.00  0.00    +0.000 N 
ATOM     30  C   UNL     1       6.809   4.523  16.983  0.00  0.00    +0.000 C 
ATOM     31  O   UNL     1       7.125   4.476  18.160  0.00  0.00    +0.000 OA
ATOM     32  H   UNL     1       8.714   4.419  16.177  0.00  0.00    +0.000 HD
ENDBRANCH  24  26
ENDBRANCH   6  20
TORSDOF 3
ENDMDL
