MODEL 1
REMARK VINA RESULT:      -8.2      0.000      0.000
REMARK  Name = 
REMARK  11 active torsions:
REMARK  status: ('A' for Active; 'I' for Inactive)
REMARK    1  A    between atoms: C_1  and  C_2
REMARK    2  A    between atoms: C_2  and  C_3
REMARK    3  A    between atoms: C_2  and  C_24
REMARK    4  A    between atoms: C_7  and  N_8
REMARK    5  A    between atoms: C_9  and  C_11
REMARK    6  A    between atoms: C_13  and  C_14
REMARK    7  A    between atoms: C_14  and  C_16
REMARK    8  A    between atoms: C_16  and  C_17
REMARK    9  A    between atoms: C_16  and  C_18
REMARK   10  A    between atoms: C_16  and  O_19
REMARK   11  A    between atoms: N_28  and  C_29
REMARK                            x       y       z     vdW  Elec       q    Type
REMARK                         _______ _______ _______ _____ _____    ______ ____
ROOT
ATOM      1  N   UNL     1       2.012   7.184  18.777  0.00  0.00    +0.000 N 
ATOM      2  C   UNL     1       1.754   7.215  20.143  0.00  0.00    +0.000 C 
ATOM      3  O   UNL     1       1.995   6.316  20.946  0.00  0.00    +0.000 OA
ATOM      4  H   UNL     1       1.878   8.063  18.284  0.00  0.00    +0.000 HD
ENDROOT
BRANCH   1   9
ATOM      5  C   UNL     1       4.557   5.125  16.971  0.00  0.00    +0.000 A 
ATOM      6  C   UNL     1       3.862   3.913  16.839  0.00  0.00    +0.000 A 
ATOM      7  C   UNL     1       2.554   3.794  17.294  0.00  0.00    +0.000 A 
ATOM      8  C   UNL     1       1.930   4.877  17.913  0.00  0.00    +0.000 A 
ATOM      9  C   UNL     1       2.594   6.096  18.079  0.00  0.00    +0.000 A 
ATOM     10  C   UNL     1       3.894   6.227  17.562  0.00  0.00    +0.000 A 
BRANCH   5  12
ATOM     11  C   UNL     1       6.416   3.894  15.801  0.00  0.00    +0.000 C 
ATOM     12  C   UNL     1       6.029   5.169  16.569  0.00  0.00    +0.000 C 
BRANCH  12  13
ATOM     13  C   UNL     1       6.969   5.411  17.714  0.00  0.00    +0.000 A 
ATOM     14  N   UNL     1       7.449   4.491  18.531  0.00  0.00    +0.000 NA
ATOM     15  N   UNL     1       8.332   5.089  19.394  0.00  0.00    +0.000 NA
ATOM     16  C   UNL     1       8.372   6.365  19.096  0.00  0.00    +0.000 A 
ATOM     17  N   UNL     1       7.539   6.617  18.049  0.00  0.00    +0.000 N 
ATOM     18  C   UNL     1       7.347   7.903  17.436  0.00  0.00    +0.000 C 
ENDBRANCH  12  13
ENDBRANCH   5  12
ENDBRANCH   1   9
BRANCH   2  19
ATOM     19  C   UNL     1       1.173   8.489  20.676  0.00  0.00    +0.000 A 
ATOM     20  C   UNL     1       0.884   9.514  19.775  0.00  0.00    +0.000 A 
ATOM     21  C   UNL     1       0.339  10.693  20.264  0.00  0.00    +0.000 A 
ATOM     22  C   UNL     1       0.079  10.805  21.630  0.00  0.00    +0.000 A 
ATOM     23  C   UNL     1       0.406   9.735  22.452  0.00  0.00    +0.000 A 
ATOM     24  N   UNL     1       0.953   8.579  22.015  0.00  0.00    +0.000 NA
BRANCH  21  25
ATOM     25  C   UNL     1      -0.007  11.851  19.380  0.00  0.00    +0.000 C 
ATOM     26  O   UNL     1       0.805  12.775  19.312  0.00  0.00    +0.000 OA
BRANCH  25  27
ATOM     27  C   UNL     1      -1.339  11.863  18.580  0.00  0.00    +0.000 C 
ATOM     28  C   UNL     1      -1.648  10.465  18.029  0.00  0.00    +0.000 C 
ATOM     29  C   UNL     1      -2.495  12.310  19.479  0.00  0.00    +0.000 C 
BRANCH  27  30
ATOM     30  O   UNL     1      -1.268  12.748  17.466  0.00  0.00    +0.000 OA
ATOM     31  H   UNL     1      -0.327  12.954  17.313  0.00  0.00    +0.000 HD
ENDBRANCH  27  30
ENDBRANCH  25  27
ENDBRANCH  21  25
ENDBRANCH   2  19
TORSDOF 7
ENDMDL
MODEL 2
REMARK VINA RESULT:      -8.1      3.036      8.952
REMARK  Name = 
REMARK  11 active torsions:
REMARK  status: ('A' for Active; 'I' for Inactive)
REMARK    1  A    between atoms: C_1  and  C_2
REMARK    2  A    between atoms: C_2  and  C_3
REMARK    3  A    between atoms: C_2  and  C_24
REMARK    4  A    between atoms: C_7  and  N_8
REMARK    5  A    between atoms: C_9  and  C_11
REMARK    6  A    between atoms: C_13  and  C_14
REMARK    7  A    between atoms: C_14  and  C_16
REMARK    8  A    between atoms: C_16  and  C_17
REMARK    9  A    between atoms: C_16  and  C_18
REMARK   10  A    between atoms: C_16  and  O_19
REMARK   11  A    between atoms: N_28  and  C_29
REMARK                            x       y       z     vdW  Elec       q    Type
REMARK                         _______ _______ _______ _____ _____    ______ ____
ROOT
ATOM      1  N   UNL     1       2.196   7.389  20.335  0.00  0.00    +0.000 N 
ATOM      2  C   UNL     1       1.827   6.048  20.320  0.00  0.00    +0.000 C 
ATOM      3  O   UNL     1       0.709   5.603  20.572  0.00  0.00    +0.000 OA
ATOM      4  H   UNL     1       3.123   7.594  19.969  0.00  0.00    +0.000 HD
ENDROOT
BRANCH   1   9
ATOM      5  C   UNL     1       0.069  10.433  19.899  0.00  0.00    +0.000 A 
ATOM      6  C   UNL     1      -0.497  10.537  21.180  0.00  0.00    +0.000 A 
ATOM      7  C   UNL     1      -0.142   9.645  22.185  0.00  0.00    +0.000 A 
ATOM      8  C   UNL     1       0.764   8.619  21.919  0.00  0.00    +0.000 A 
ATOM      9  C   UNL     1       1.338   8.471  20.652  0.00  0.00    +0.000 A 
ATOM     10  C   UNL     1       1.020   9.412  19.659  0.00  0.00    +0.000 A 
BRANCH   5  12
ATOM     11  C   UNL     1       0.148  12.767  18.959  0.00  0.00    +0.000 C 
ATOM     12  C   UNL     1      -0.443  11.356  18.798  0.00  0.00    +0.000 C 
BRANCH  12  13
ATOM     13  C   UNL     1      -1.940  11.410  18.694  0.00  0.00    +0.000 A 
ATOM     14  N   UNL     1      -2.742  12.171  19.418  0.00  0.00    +0.000 NA
ATOM     15  N   UNL     1      -4.029  11.997  18.977  0.00  0.00    +0.000 NA
ATOM     16  C   UNL     1      -3.995  11.130  17.995  0.00  0.00    +0.000 A 
ATOM     17  N   UNL     1      -2.711  10.735  17.777  0.00  0.00    +0.000 N 
ATOM     18  C   UNL     1      -2.292   9.809  16.760  0.00  0.00    +0.000 C 
ENDBRANCH  12  13
ENDBRANCH   5  12
ENDBRANCH   1   9
BRANCH   2  19
ATOM     19  C   UNL     1       2.890   5.075  19.910  0.00  0.00    +0.000 A 
ATOM     20  C   UNL     1       4.159   5.568  19.606  0.00  0.00    +0.000 A 
ATOM     21  C   UNL     1       5.148   4.669  19.233  0.00  0.00    +0.000 A 
ATOM     22  C   UNL     1       4.848   3.307  19.196  0.00  0.00    +0.000 A 
ATOM     23  C   UNL     1       3.556   2.910  19.509  0.00  0.00    +0.000 A 
ATOM     24  N   UNL     1       2.562   3.757  19.860  0.00  0.00    +0.000 NA
BRANCH  21  25
ATOM     25  C   UNL     1       6.541   5.097  18.888  0.00  0.00    +0.000 C 
ATOM     26  O   UNL     1       7.346   5.207  19.815  0.00  0.00    +0.000 OA
BRANCH  25  27
ATOM     27  C   UNL     1       6.938   5.377  17.412  0.00  0.00    +0.000 C 
ATOM     28  C   UNL     1       5.737   5.163  16.482  0.00  0.00    +0.000 C 
ATOM     29  C   UNL     1       7.436   6.816  17.260  0.00  0.00    +0.000 C 
BRANCH  27  30
ATOM     30  O   UNL     1       7.970   4.496  16.977  0.00  0.00    +0.000 OA
ATOM     31  H   UNL     1       7.740   4.195  16.078  0.00  0.00    +0.000 HD
ENDBRANCH  27  30
ENDBRANCH  25  27
ENDBRANCH  21  25
ENDBRANCH   2  19
TORSDOF 7
ENDMDL
MODEL 3
REMARK VINA RESULT:      -8.1      5.267      8.932
REMARK  Name = 
REMARK  11 active torsions:
REMARK  status: ('A' for Active; 'I' for Inactive)
REMARK    1  A    between atoms: C_1  and  C_2
REMARK    2  A    between atoms: C_2  and  C_3
REMARK    3  A    between atoms: C_2  and  C_24
REMARK    4  A    between atoms: C_7  and  N_8
REMARK    5  A    between atoms: C_9  and  C_11
REMARK    6  A    between atoms: C_13  and  C_14
REMARK    7  A    between atoms: C_14  and  C_16
REMARK    8  A    between atoms: C_16  and  C_17
REMARK    9  A    between atoms: C_16  and  C_18
REMARK   10  A    between atoms: C_16  and  O_19
REMARK   11  A    between atoms: N_28  and  C_29
REMARK                            x       y       z     vdW  Elec       q    Type
REMARK                         _______ _______ _______ _____ _____    ______ ____
ROOT
ATOM      1  N   UNL     1       7.874   8.729  17.705  0.00  0.00    +0.000 N 
ATOM      2  C   UNL     1       7.858   7.394  18.096  0.00  0.00    +0.000 C 
ATOM      3  O   UNL     1       8.507   6.903  19.017  0.00  0.00    +0.000 OA
ATOM      4  H   UNL     1       7.175   8.993  17.015  0.00  0.00    +0.000 HD
ENDROOT
BRANCH   1   9
ATOM      5  C   UNL     1       9.751  11.937  18.113  0.00  0.00    +0.000 A 
ATOM      6  C   UNL     1      10.054  11.885  19.483  0.00  0.00    +0.000 A 
ATOM      7  C   UNL     1       9.689  10.783  20.247  0.00  0.00    +0.000 A 
ATOM      8  C   UNL     1       8.991   9.728  19.661  0.00  0.00    +0.000 A 
ATOM      9  C   UNL     1       8.654   9.749  18.304  0.00  0.00    +0.000 A 
ATOM     10  C   UNL     1       9.080  10.838  17.525  0.00  0.00    +0.000 A 
BRANCH   5  12
ATOM     11  C   UNL     1      11.546  13.258  16.944  0.00  0.00    +0.000 C 
ATOM     12  C   UNL     1      10.063  13.218  17.345  0.00  0.00    +0.000 C 
BRANCH  12  13
ATOM     13  C   UNL     1       9.668  14.474  18.066  0.00  0.00    +0.000 A 
ATOM     14  N   UNL     1      10.495  15.346  18.616  0.00  0.00    +0.000 NA
ATOM     15  N   UNL     1       9.762  16.396  19.108  0.00  0.00    +0.000 NA
ATOM     16  C   UNL     1       8.499  16.146  18.858  0.00  0.00    +0.000 A 
ATOM     17  N   UNL     1       8.388  14.957  18.205  0.00  0.00    +0.000 N 
ATOM     18  C   UNL     1       7.154  14.376  17.749  0.00  0.00    +0.000 C 
ENDBRANCH  12  13
ENDBRANCH   5  12
ENDBRANCH   1   9
BRANCH   2  19
ATOM     19  C   UNL     1       6.921   6.498  17.347  0.00  0.00    +0.000 A 
ATOM     20  C   UNL     1       5.725   6.124  17.961  0.00  0.00    +0.000 A 
ATOM     21  C   UNL     1       4.852   5.300  17.267  0.00  0.00    +0.000 A 
ATOM     22  C   UNL     1       5.185   4.892  15.976  0.00  0.00    +0.000 A 
ATOM     23  C   UNL     1       6.400   5.308  15.448  0.00  0.00    +0.000 A 
ATOM     24  N   UNL     1       7.284   6.096  16.099  0.00  0.00    +0.000 NA
BRANCH  21  25
ATOM     25  C   UNL     1       3.545   4.844  17.838  0.00  0.00    +0.000 C 
ATOM     26  O   UNL     1       2.595   5.627  17.775  0.00  0.00    +0.000 OA
BRANCH  25  27
ATOM     27  C   UNL     1       3.410   3.432  18.473  0.00  0.00    +0.000 C 
ATOM     28  C   UNL     1       2.737   3.523  19.849  0.00  0.00    +0.000 C 
ATOM     29  C   UNL     1       2.574   2.522  17.569  0.00  0.00    +0.000 C 
BRANCH  27  30
ATOM     30  O   UNL     1       4.684   2.827  18.667  0.00  0.00    +0.000 OA
ATOM     31  H   UNL     1       4.533   1.897  18.922  0.00  0.00    +0.000 HD
ENDBRANCH  27  30
ENDBRANCH  25  27
ENDBRANCH  21  25
ENDBRANCH   2  19
TORSDOF 7
ENDMDL
MODEL 4
REMARK VINA RESULT:      -8.0      3.045      9.161
REMARK  Name = 
REMARK  11 active torsions:
REMARK  status: ('A' for Active; 'I' for Inactive)
REMARK    1  A    between atoms: C_1  and  C_2
REMARK    2  A    between atoms: C_2  and  C_3
REMARK    3  A    between atoms: C_2  and  C_24
REMARK    4  A    between atoms: C_7  and  N_8
REMARK    5  A    between atoms: C_9  and  C_11
REMARK    6  A    between atoms: C_13  and  C_14
REMARK    7  A    between atoms: C_14  and  C_16
REMARK    8  A    between atoms: C_16  and  C_17
REMARK    9  A    between atoms: C_16  and  C_18
REMARK   10  A    between atoms: C_16  and  O_19
REMARK   11  A    between atoms: N_28  and  C_29
REMARK                            x       y       z     vdW  Elec       q    Type
REMARK                         _______ _______ _______ _____ _____    ______ ____
ROOT
ATOM      1  N   UNL     1       1.533   7.632  20.901  0.00  0.00    +0.000 N 
ATOM      2  C   UNL     1       2.164   7.382  19.687  0.00  0.00    +0.000 C 
ATOM      3  O   UNL     1       2.233   8.157  18.735  0.00  0.00    +0.000 OA
ATOM      4  H   UNL     1       1.689   6.939  21.629  0.00  0.00    +0.000 HD
ENDROOT
BRANCH   1   9
ATOM      5  C   UNL     1      -0.213  10.914  20.506  0.00  0.00    +0.000 A 
ATOM      6  C   UNL     1      -0.644  11.137  21.824  0.00  0.00    +0.000 A 
ATOM      7  C   UNL     1      -0.318  10.242  22.836  0.00  0.00    +0.000 A 
ATOM      8  C   UNL     1       0.420   9.096  22.542  0.00  0.00    +0.000 A 
ATOM      9  C   UNL     1       0.854   8.829  21.240  0.00  0.00    +0.000 A 
ATOM     10  C   UNL     1       0.573   9.769  20.234  0.00  0.00    +0.000 A 
BRANCH   5  12
ATOM     11  C   UNL     1      -0.430  13.321  19.802  0.00  0.00    +0.000 C 
ATOM     12  C   UNL     1      -0.699  11.859  19.411  0.00  0.00    +0.000 C 
BRANCH  12  13
ATOM     13  C   UNL     1      -2.138  11.661  19.027  0.00  0.00    +0.000 A 
ATOM     14  N   UNL     1      -3.174  12.290  19.554  0.00  0.00    +0.000 NA
ATOM     15  N   UNL     1      -4.308  11.897  18.890  0.00  0.00    +0.000 NA
ATOM     16  C   UNL     1      -3.949  11.032  17.973  0.00  0.00    +0.000 A 
ATOM     17  N   UNL     1      -2.600  10.852  18.016  0.00  0.00    +0.000 N 
ATOM     18  C   UNL     1      -1.851   9.993  17.140  0.00  0.00    +0.000 C 
ENDBRANCH  12  13
ENDBRANCH   5  12
ENDBRANCH   1   9
BRANCH   2  19
ATOM     19  C   UNL     1       2.860   6.062  19.565  0.00  0.00    +0.000 A 
ATOM     20  C   UNL     1       3.884   5.935  18.624  0.00  0.00    +0.000 A 
ATOM     21  C   UNL     1       4.535   4.715  18.513  0.00  0.00    +0.000 A 
ATOM     22  C   UNL     1       4.164   3.668  19.356  0.00  0.00    +0.000 A 
ATOM     23  C   UNL     1       3.131   3.884  20.257  0.00  0.00    +0.000 A 
ATOM     24  N   UNL     1       2.461   5.052  20.382  0.00  0.00    +0.000 NA
BRANCH  21  25
ATOM     25  C   UNL     1       5.645   4.479  17.536  0.00  0.00    +0.000 C 
ATOM     26  O   UNL     1       5.392   3.788  16.547  0.00  0.00    +0.000 OA
BRANCH  25  27
ATOM     27  C   UNL     1       7.051   5.096  17.773  0.00  0.00    +0.000 C 
ATOM     28  C   UNL     1       7.223   6.375  16.943  0.00  0.00    +0.000 C 
ATOM     29  C   UNL     1       7.239   5.435  19.255  0.00  0.00    +0.000 C 
BRANCH  27  30
ATOM     30  O   UNL     1       8.085   4.198  17.383  0.00  0.00    +0.000 OA
ATOM     31  H   UNL     1       8.252   4.336  16.432  0.00  0.00    +0.000 HD
ENDBRANCH  27  30
ENDBRANCH  25  27
ENDBRANCH  21  25
ENDBRANCH   2  19
TORSDOF 7
ENDMDL
MODEL 5
REMARK VINA RESULT:      -8.0      3.025      8.728
REMARK  Name = 
REMARK  11 active torsions:
REMARK  status: ('A' for Active; 'I' for Inactive)
REMARK    1  A    between atoms: C_1  and  C_2
REMARK    2  A    between atoms: C_2  and  C_3
REMARK    3  A    between atoms: C_2  and  C_24
REMARK    4  A    between atoms: C_7  and  N_8
REMARK    5  A    between atoms: C_9  and  C_11
REMARK    6  A    between atoms: C_13  and  C_14
REMARK    7  A    between atoms: C_14  and  C_16
REMARK    8  A    between atoms: C_16  and  C_17
REMARK    9  A    between atoms: C_16  and  C_18
REMARK   10  A    between atoms: C_16  and  O_19
REMARK   11  A    between atoms: N_28  and  C_29
REMARK                            x       y       z     vdW  Elec       q    Type
REMARK                         _______ _______ _______ _____ _____    ______ ____
ROOT
ATOM      1  N   UNL     1       2.193   7.417  19.922  0.00  0.00    +0.000 N 
ATOM      2  C   UNL     1       2.046   6.052  20.144  0.00  0.00    +0.000 C 
ATOM      3  O   UNL     1       1.235   5.525  20.903  0.00  0.00    +0.000 OA
ATOM      4  H   UNL     1       2.816   7.674  19.161  0.00  0.00    +0.000 HD
ENDROOT
BRANCH   1   9
ATOM      5  C   UNL     1      -0.157  10.296  20.332  0.00  0.00    +0.000 A 
ATOM      6  C   UNL     1      -0.241  10.363  21.732  0.00  0.00    +0.000 A 
ATOM      7  C   UNL     1       0.507   9.503  22.527  0.00  0.00    +0.000 A 
ATOM      8  C   UNL     1       1.330   8.545  21.936  0.00  0.00    +0.000 A 
ATOM      9  C   UNL     1       1.429   8.434  20.546  0.00  0.00    +0.000 A 
ATOM     10  C   UNL     1       0.717   9.347  19.749  0.00  0.00    +0.000 A 
BRANCH   5  12
ATOM     11  C   UNL     1      -1.344  10.543  18.126  0.00  0.00    +0.000 C 
ATOM     12  C   UNL     1      -1.088  11.176  19.504  0.00  0.00    +0.000 C 
BRANCH  12  13
ATOM     13  C   UNL     1      -0.621  12.597  19.363  0.00  0.00    +0.000 A 
ATOM     14  N   UNL     1       0.415  13.007  18.654  0.00  0.00    +0.000 NA
ATOM     15  N   UNL     1       0.472  14.376  18.710  0.00  0.00    +0.000 NA
ATOM     16  C   UNL     1      -0.526  14.781  19.458  0.00  0.00    +0.000 A 
ATOM     17  N   UNL     1      -1.242  13.706  19.888  0.00  0.00    +0.000 N 
ATOM     18  C   UNL     1      -2.421  13.772  20.708  0.00  0.00    +0.000 C 
ENDBRANCH  12  13
ENDBRANCH   5  12
ENDBRANCH   1   9
BRANCH   2  19
ATOM     19  C   UNL     1       2.934   5.153  19.339  0.00  0.00    +0.000 A 
ATOM     20  C   UNL     1       4.229   5.585  19.050  0.00  0.00    +0.000 A 
ATOM     21  C   UNL     1       5.056   4.751  18.310  0.00  0.00    +0.000 A 
ATOM     22  C   UNL     1       4.576   3.507  17.901  0.00  0.00    +0.000 A 
ATOM     23  C   UNL     1       3.271   3.166  18.229  0.00  0.00    +0.000 A 
ATOM     24  N   UNL     1       2.431   3.957  18.933  0.00  0.00    +0.000 NA
BRANCH  21  25
ATOM     25  C   UNL     1       6.461   5.122  17.949  0.00  0.00    +0.000 C 
ATOM     26  O   UNL     1       7.371   4.551  18.554  0.00  0.00    +0.000 OA
BRANCH  25  27
ATOM     27  C   UNL     1       6.740   6.179  16.846  0.00  0.00    +0.000 C 
ATOM     28  C   UNL     1       5.432   6.606  16.167  0.00  0.00    +0.000 C 
ATOM     29  C   UNL     1       7.414   7.414  17.451  0.00  0.00    +0.000 C 
BRANCH  27  30
ATOM     30  O   UNL     1       7.591   5.656  15.829  0.00  0.00    +0.000 OA
ATOM     31  H   UNL     1       7.724   4.708  16.015  0.00  0.00    +0.000 HD
ENDBRANCH  27  30
ENDBRANCH  25  27
ENDBRANCH  21  25
ENDBRANCH   2  19
TORSDOF 7
ENDMDL
MODEL 6
REMARK VINA RESULT:      -7.9      2.980      8.912
REMARK  Name = 
REMARK  11 active torsions:
REMARK  status: ('A' for Active; 'I' for Inactive)
REMARK    1  A    between atoms: C_1  and  C_2
REMARK    2  A    between atoms: C_2  and  C_3
REMARK    3  A    between atoms: C_2  and  C_24
REMARK    4  A    between atoms: C_7  and  N_8
REMARK    5  A    between atoms: C_9  and  C_11
REMARK    6  A    between atoms: C_13  and  C_14
REMARK    7  A    between atoms: C_14  and  C_16
REMARK    8  A    between atoms: C_16  and  C_17
REMARK    9  A    between atoms: C_16  and  C_18
REMARK   10  A    between atoms: C_16  and  O_19
REMARK   11  A    between atoms: N_28  and  C_29
REMARK                            x       y       z     vdW  Elec       q    Type
REMARK                         _______ _______ _______ _____ _____    ______ ____
ROOT
ATOM      1  N   UNL     1       2.284   7.257  19.560  0.00  0.00    +0.000 N 
ATOM      2  C   UNL     1       2.087   5.917  19.879  0.00  0.00    +0.000 C 
ATOM      3  O   UNL     1       1.275   5.480  20.692  0.00  0.00    +0.000 OA
ATOM      4  H   UNL     1       2.898   7.434  18.769  0.00  0.00    +0.000 HD
ENDROOT
BRANCH   1   9
ATOM      5  C   UNL     1       0.397  10.474  19.816  0.00  0.00    +0.000 A 
ATOM      6  C   UNL     1       0.032  10.452  21.171  0.00  0.00    +0.000 A 
ATOM      7  C   UNL     1       0.447   9.415  21.998  0.00  0.00    +0.000 A 
ATOM      8  C   UNL     1       1.210   8.371  21.478  0.00  0.00    +0.000 A 
ATOM      9  C   UNL     1       1.580   8.347  20.130  0.00  0.00    +0.000 A 
ATOM     10  C   UNL     1       1.209   9.429  19.314  0.00  0.00    +0.000 A 
BRANCH   5  12
ATOM     11  C   UNL     1       0.328  12.949  19.359  0.00  0.00    +0.000 C 
ATOM     12  C   UNL     1      -0.184  11.566  18.922  0.00  0.00    +0.000 C 
BRANCH  12  13
ATOM     13  C   UNL     1      -1.683  11.551  18.835  0.00  0.00    +0.000 A 
ATOM     14  N   UNL     1      -2.509  12.291  19.554  0.00  0.00    +0.000 NA
ATOM     15  N   UNL     1      -3.792  12.051  19.132  0.00  0.00    +0.000 NA
ATOM     16  C   UNL     1      -3.731  11.165  18.168  0.00  0.00    +0.000 A 
ATOM     17  N   UNL     1      -2.432  10.823  17.942  0.00  0.00    +0.000 N 
ATOM     18  C   UNL     1      -1.984   9.896  16.939  0.00  0.00    +0.000 C 
ENDBRANCH  12  13
ENDBRANCH   5  12
ENDBRANCH   1   9
BRANCH   2  19
ATOM     19  C   UNL     1       2.914   4.928  19.117  0.00  0.00    +0.000 A 
ATOM     20  C   UNL     1       3.760   5.403  18.114  0.00  0.00    +0.000 A 
ATOM     21  C   UNL     1       4.533   4.490  17.411  0.00  0.00    +0.000 A 
ATOM     22  C   UNL     1       4.456   3.138  17.744  0.00  0.00    +0.000 A 
ATOM     23  C   UNL     1       3.582   2.757  18.752  0.00  0.00    +0.000 A 
ATOM     24  N   UNL     1       2.801   3.614  19.447  0.00  0.00    +0.000 NA
BRANCH  21  25
ATOM     25  C   UNL     1       5.471   4.899  16.318  0.00  0.00    +0.000 C 
ATOM     26  O   UNL     1       5.101   4.718  15.156  0.00  0.00    +0.000 OA
BRANCH  25  27
ATOM     27  C   UNL     1       6.848   5.534  16.656  0.00  0.00    +0.000 C 
ATOM     28  C   UNL     1       6.662   6.930  17.263  0.00  0.00    +0.000 C 
ATOM     29  C   UNL     1       7.608   4.655  17.653  0.00  0.00    +0.000 C 
BRANCH  27  30
ATOM     30  O   UNL     1       7.651   5.686  15.489  0.00  0.00    +0.000 OA
ATOM     31  H   UNL     1       8.091   6.554  15.544  0.00  0.00    +0.000 HD
ENDBRANCH  27  30
ENDBRANCH  25  27
ENDBRANCH  21  25
ENDBRANCH   2  19
TORSDOF 7
ENDMDL
MODEL 7
REMARK VINA RESULT:      -7.9      2.823      4.271
REMARK  Name = 
REMARK  11 active torsions:
REMARK  status: ('A' for Active; 'I' for Inactive)
REMARK    1  A    between atoms: C_1  and  C_2
REMARK    2  A    between atoms: C_2  and  C_3
REMARK    3  A    between atoms: C_2  and  C_24
REMARK    4  A    between atoms: C_7  and  N_8
REMARK    5  A    between atoms: C_9  and  C_11
REMARK    6  A    between atoms: C_13  and  C_14
REMARK    7  A    between atoms: C_14  and  C_16
REMARK    8  A    between atoms: C_16  and  C_17
REMARK    9  A    between atoms: C_16  and  C_18
REMARK   10  A    between atoms: C_16  and  O_19
REMARK   11  A    between atoms: N_28  and  C_29
REMARK                            x       y       z     vdW  Elec       q    Type
REMARK                         _______ _______ _______ _____ _____    ______ ____
ROOT
ATOM      1  N   UNL     1       2.118   8.671  17.889  0.00  0.00    +0.000 N 
ATOM      2  C   UNL     1       1.490   9.180  19.021  0.00  0.00    +0.000 C 
ATOM      3  O   UNL     1       1.534   8.697  20.150  0.00  0.00    +0.000 OA
ATOM      4  H   UNL     1       2.092   9.268  17.066  0.00  0.00    +0.000 HD
ENDROOT
BRANCH   1   9
ATOM      5  C   UNL     1       3.062   5.059  18.099  0.00  0.00    +0.000 A 
ATOM      6  C   UNL     1       4.383   5.111  17.626  0.00  0.00    +0.000 A 
ATOM      7  C   UNL     1       4.968   6.326  17.293  0.00  0.00    +0.000 A 
ATOM      8  C   UNL     1       4.234   7.506  17.400  0.00  0.00    +0.000 A 
ATOM      9  C   UNL     1       2.910   7.497  17.850  0.00  0.00    +0.000 A 
ATOM     10  C   UNL     1       2.346   6.272  18.243  0.00  0.00    +0.000 A 
BRANCH   5  12
ATOM     11  C   UNL     1       1.063   3.604  17.627  0.00  0.00    +0.000 C 
ATOM     12  C   UNL     1       2.425   3.693  18.335  0.00  0.00    +0.000 C 
BRANCH  12  13
ATOM     13  C   UNL     1       2.302   3.318  19.784  0.00  0.00    +0.000 A 
ATOM     14  N   UNL     1       1.248   3.528  20.553  0.00  0.00    +0.000 NA
ATOM     15  N   UNL     1       1.489   2.977  21.786  0.00  0.00    +0.000 NA
ATOM     16  C   UNL     1       2.686   2.446  21.753  0.00  0.00    +0.000 A 
ATOM     17  N   UNL     1       3.236   2.630  20.522  0.00  0.00    +0.000 N 
ATOM     18  C   UNL     1       4.532   2.157  20.115  0.00  0.00    +0.000 C 
ENDBRANCH  12  13
ENDBRANCH   5  12
ENDBRANCH   1   9
BRANCH   2  19
ATOM     19  C   UNL     1       0.738  10.462  18.838  0.00  0.00    +0.000 A 
ATOM     20  C   UNL     1      -0.654  10.408  18.755  0.00  0.00    +0.000 A 
ATOM     21  C   UNL     1      -1.355  11.595  18.593  0.00  0.00    +0.000 A 
ATOM     22  C   UNL     1      -0.650  12.798  18.542  0.00  0.00    +0.000 A 
ATOM     23  C   UNL     1       0.734  12.753  18.627  0.00  0.00    +0.000 A 
ATOM     24  N   UNL     1       1.452  11.616  18.767  0.00  0.00    +0.000 NA
BRANCH  21  25
ATOM     25  C   UNL     1      -2.848  11.645  18.494  0.00  0.00    +0.000 C 
ATOM     26  O   UNL     1      -3.451  12.305  19.342  0.00  0.00    +0.000 OA
BRANCH  25  27
ATOM     27  C   UNL     1      -3.589  10.894  17.353  0.00  0.00    +0.000 C 
ATOM     28  C   UNL     1      -4.994  11.476  17.151  0.00  0.00    +0.000 C 
ATOM     29  C   UNL     1      -2.807  11.015  16.043  0.00  0.00    +0.000 C 
BRANCH  27  30
ATOM     30  O   UNL     1      -3.746   9.511  17.657  0.00  0.00    +0.000 OA
ATOM     31  H   UNL     1      -3.021   9.029  17.218  0.00  0.00    +0.000 HD
ENDBRANCH  27  30
ENDBRANCH  25  27
ENDBRANCH  21  25
ENDBRANCH   2  19
TORSDOF 7
ENDMDL
MODEL 8
REMARK VINA RESULT:      -7.9      3.026      9.223
REMARK  Name = 
REMARK  11 active torsions:
REMARK  status: ('A' for Active; 'I' for Inactive)
REMARK    1  A    between atoms: C_1  and  C_2
REMARK    2  A    between atoms: C_2  and  C_3
REMARK    3  A    between atoms: C_2  and  C_24
REMARK    4  A    between atoms: C_7  and  N_8
REMARK    5  A    between atoms: C_9  and  C_11
REMARK    6  A    between atoms: C_13  and  C_14
REMARK    7  A    between atoms: C_14  and  C_16
REMARK    8  A    between atoms: C_16  and  C_17
REMARK    9  A    between atoms: C_16  and  C_18
REMARK   10  A    between atoms: C_16  and  O_19
REMARK   11  A    between atoms: N_28  and  C_29
REMARK                            x       y       z     vdW  Elec       q    Type
REMARK                         _______ _______ _______ _____ _____    ______ ____
ROOT
ATOM      1  N   UNL     1       2.079   7.932  19.526  0.00  0.00    +0.000 N 
ATOM      2  C   UNL     1       2.561   7.950  18.221  0.00  0.00    +0.000 C 
ATOM      3  O   UNL     1       2.304   8.795  17.367  0.00  0.00    +0.000 OA
ATOM      4  H   UNL     1       2.500   7.239  20.141  0.00  0.00    +0.000 HD
ENDROOT
BRANCH   1   9
ATOM      5  C   UNL     1      -0.258  10.840  19.767  0.00  0.00    +0.000 A 
ATOM      6  C   UNL     1      -0.687  10.716  21.098  0.00  0.00    +0.000 A 
ATOM      7  C   UNL     1      -0.173   9.718  21.917  0.00  0.00    +0.000 A 
ATOM      8  C   UNL     1       0.758   8.811  21.411  0.00  0.00    +0.000 A 
ATOM      9  C   UNL     1       1.198   8.890  20.086  0.00  0.00    +0.000 A 
ATOM     10  C   UNL     1       0.720   9.939  19.283  0.00  0.00    +0.000 A 
BRANCH   5  12
ATOM     11  C   UNL     1      -0.702  13.293  19.412  0.00  0.00    +0.000 C 
ATOM     12  C   UNL     1      -0.941  11.872  18.874  0.00  0.00    +0.000 C 
BRANCH  12  13
ATOM     13  C   UNL     1      -2.405  11.620  18.658  0.00  0.00    +0.000 A 
ATOM     14  N   UNL     1      -3.397  12.194  19.315  0.00  0.00    +0.000 NA
ATOM     15  N   UNL     1      -4.585  11.764  18.780  0.00  0.00    +0.000 NA
ATOM     16  C   UNL     1      -4.301  10.930  17.810  0.00  0.00    +0.000 A 
ATOM     17  N   UNL     1      -2.950  10.808  17.691  0.00  0.00    +0.000 N 
ATOM     18  C   UNL     1      -2.275   9.996  16.715  0.00  0.00    +0.000 C 
ENDBRANCH  12  13
ENDBRANCH   5  12
ENDBRANCH   1   9
BRANCH   2  19
ATOM     19  C   UNL     1       3.520   6.858  17.857  0.00  0.00    +0.000 A 
ATOM     20  C   UNL     1       3.446   5.650  18.552  0.00  0.00    +0.000 A 
ATOM     21  C   UNL     1       4.328   4.634  18.211  0.00  0.00    +0.000 A 
ATOM     22  C   UNL     1       5.239   4.845  17.176  0.00  0.00    +0.000 A 
ATOM     23  C   UNL     1       5.243   6.081  16.545  0.00  0.00    +0.000 A 
ATOM     24  N   UNL     1       4.413   7.100  16.860  0.00  0.00    +0.000 NA
BRANCH  21  25
ATOM     25  C   UNL     1       4.328   3.303  18.896  0.00  0.00    +0.000 C 
ATOM     26  O   UNL     1       5.235   3.079  19.700  0.00  0.00    +0.000 OA
BRANCH  25  27
ATOM     27  C   UNL     1       3.215   2.261  18.598  0.00  0.00    +0.000 C 
ATOM     28  C   UNL     1       2.196   2.220  19.745  0.00  0.00    +0.000 C 
ATOM     29  C   UNL     1       2.487   2.618  17.299  0.00  0.00    +0.000 C 
BRANCH  27  30
ATOM     30  O   UNL     1       3.753   0.949  18.466  0.00  0.00    +0.000 OA
ATOM     31  H   UNL     1       3.477   0.603  17.597  0.00  0.00    +0.000 HD
ENDBRANCH  27  30
ENDBRANCH  25  27
ENDBRANCH  21  25
ENDBRANCH   2  19
TORSDOF 7
ENDMDL
MODEL 9
REMARK VINA RESULT:      -7.8      4.902      8.746
REMARK  Name = 
REMARK  11 active torsions:
REMARK  status: ('A' for Active; 'I' for Inactive)
REMARK    1  A    between atoms: C_1  and  C_2
REMARK    2  A    between atoms: C_2  and  C_3
REMARK    3  A    between atoms: C_2  and  C_24
REMARK    4  A    between atoms: C_7  and  N_8
REMARK    5  A    between atoms: C_9  and  C_11
REMARK    6  A    between atoms: C_13  and  C_14
REMARK    7  A    between atoms: C_14  and  C_16
REMARK    8  A    between atoms: C_16  and  C_17
REMARK    9  A    between atoms: C_16  and  C_18
REMARK   10  A    between atoms: C_16  and  O_19
REMARK   11  A    between atoms: N_28  and  C_29
REMARK                            x       y       z     vdW  Elec       q    Type
REMARK                         _______ _______ _______ _____ _____    ______ ____
ROOT
ATOM      1  N   UNL     1       7.907   8.693  17.756  0.00  0.00    +0.000 N 
ATOM      2  C   UNL     1       7.918   7.364  18.164  0.00  0.00    +0.000 C 
ATOM      3  O   UNL     1       8.580   6.897  19.089  0.00  0.00    +0.000 OA
ATOM      4  H   UNL     1       7.201   8.935  17.065  0.00  0.00    +0.000 HD
ENDROOT
BRANCH   1   9
ATOM      5  C   UNL     1       9.724  11.941  18.118  0.00  0.00    +0.000 A 
ATOM      6  C   UNL     1      10.030  11.913  19.488  0.00  0.00    +0.000 A 
ATOM      7  C   UNL     1       9.685  10.816  20.268  0.00  0.00    +0.000 A 
ATOM      8  C   UNL     1       9.006   9.740  19.698  0.00  0.00    +0.000 A 
ATOM      9  C   UNL     1       8.668   9.736  18.341  0.00  0.00    +0.000 A 
ATOM     10  C   UNL     1       9.074  10.821  17.546  0.00  0.00    +0.000 A 
BRANCH   5  12
ATOM     11  C   UNL     1      11.479  13.246  16.872  0.00  0.00    +0.000 C 
ATOM     12  C   UNL     1      10.012  13.216  17.332  0.00  0.00    +0.000 C 
BRANCH  12  13
ATOM     13  C   UNL     1       9.653  14.478  18.062  0.00  0.00    +0.000 A 
ATOM     14  N   UNL     1      10.504  15.321  18.621  0.00  0.00    +0.000 NA
ATOM     15  N   UNL     1       9.801  16.388  19.119  0.00  0.00    +0.000 NA
ATOM     16  C   UNL     1       8.532  16.178  18.864  0.00  0.00    +0.000 A 
ATOM     17  N   UNL     1       8.387  14.998  18.201  0.00  0.00    +0.000 N 
ATOM     18  C   UNL     1       7.138  14.458  17.738  0.00  0.00    +0.000 C 
ENDBRANCH  12  13
ENDBRANCH   5  12
ENDBRANCH   1   9
BRANCH   2  19
ATOM     19  C   UNL     1       6.997   6.440  17.429  0.00  0.00    +0.000 A 
ATOM     20  C   UNL     1       5.960   5.833  18.138  0.00  0.00    +0.000 A 
ATOM     21  C   UNL     1       5.100   4.982  17.458  0.00  0.00    +0.000 A 
ATOM     22  C   UNL     1       5.286   4.780  16.091  0.00  0.00    +0.000 A 
ATOM     23  C   UNL     1       6.349   5.421  15.470  0.00  0.00    +0.000 A 
ATOM     24  N   UNL     1       7.217   6.243  16.101  0.00  0.00    +0.000 NA
BRANCH  21  25
ATOM     25  C   UNL     1       3.957   4.284  18.128  0.00  0.00    +0.000 C 
ATOM     26  O   UNL     1       3.922   3.055  18.054  0.00  0.00    +0.000 OA
BRANCH  25  27
ATOM     27  C   UNL     1       2.874   5.096  18.890  0.00  0.00    +0.000 C 
ATOM     28  C   UNL     1       2.512   6.369  18.115  0.00  0.00    +0.000 C 
ATOM     29  C   UNL     1       1.611   4.251  19.078  0.00  0.00    +0.000 C 
BRANCH  27  30
ATOM     30  O   UNL     1       3.338   5.502  20.175  0.00  0.00    +0.000 OA
ATOM     31  H   UNL     1       3.101   4.801  20.809  0.00  0.00    +0.000 HD
ENDBRANCH  27  30
ENDBRANCH  25  27
ENDBRANCH  21  25
ENDBRANCH   2  19
TORSDOF 7
ENDMDL
