MODEL 1
REMARK VINA RESULT:      -8.9      0.000      0.000
REMARK  Name = 
REMARK  3 active torsions:
REMARK  status: ('A' for Active; 'I' for Inactive)
REMARK    1  A    between atoms: C_2  and  C_18
REMARK    2  A    between atoms: C_7  and  C_8
REMARK    3  A    between atoms: C_8  and  C_9
REMARK                            x       y       z     vdW  Elec       q    Type
REMARK                         _______ _______ _______ _____ _____    ______ ____
ROOT
ATOM      1  O   UNL     1       7.433   9.986  17.427  0.00  0.00    +0.000 OA
ATOM      2  C   UNL     1       8.345   9.498  18.086  0.00  0.00    +0.000 C 
ATOM      3  N   UNL     1       8.517   8.170  18.413  0.00  0.00    +0.000 N 
ATOM      4  C   UNL     1       7.609   7.241  17.969  0.00  0.00    +0.000 A 
ATOM      5  N   UNL     1       6.700   7.375  17.041  0.00  0.00    +0.000 NA
ATOM      6  C   UNL     1       5.917   6.246  16.985  0.00  0.00    +0.000 A 
ATOM      7  C   UNL     1       6.249   5.248  17.879  0.00  0.00    +0.000 A 
ATOM      8  S   UNL     1       7.658   5.722  18.753  0.00  0.00    +0.000 S 
ATOM      9  H   UNL     1       9.187   7.879  19.107  0.00  0.00    +0.000 HD
ENDROOT
BRANCH   2  10
ATOM     10  C   UNL     1       9.336  10.451  18.645  0.00  0.00    +0.000 A 
ATOM     11  C   UNL     1       9.310  10.656  20.036  0.00  0.00    +0.000 A 
ATOM     12  C   UNL     1      10.121  11.612  20.653  0.00  0.00    +0.000 A 
ATOM     13  C   UNL     1      10.938  12.359  19.807  0.00  0.00    +0.000 A 
ATOM     14  N   UNL     1      11.805  13.396  20.048  0.00  0.00    +0.000 N 
ATOM     15  C   UNL     1      12.331  13.789  18.851  0.00  0.00    +0.000 A 
ATOM     16  N   UNL     1      11.873  13.061  17.856  0.00  0.00    +0.000 NA
ATOM     17  C   UNL     1      10.995  12.174  18.429  0.00  0.00    +0.000 A 
ATOM     18  C   UNL     1      10.189  11.196  17.821  0.00  0.00    +0.000 A 
ATOM     19  H   UNL     1      11.995  13.812  20.948  0.00  0.00    +0.000 HD
ENDBRANCH   2  10
BRANCH   7  20
ATOM     20  C   UNL     1       5.540   3.953  18.127  0.00  0.00    +0.000 C 
BRANCH  20  21
ATOM     21  C   UNL     1       4.115   4.174  18.589  0.00  0.00    +0.000 A 
ATOM     22  C   UNL     1       3.799   4.231  19.957  0.00  0.00    +0.000 A 
ATOM     23  C   UNL     1       2.471   4.353  20.365  0.00  0.00    +0.000 A 
ATOM     24  F   UNL     1       2.188   4.396  21.673  0.00  0.00    +0.000 F 
ATOM     25  C   UNL     1       1.438   4.423  19.442  0.00  0.00    +0.000 A 
ATOM     26  C   UNL     1       1.751   4.378  18.090  0.00  0.00    +0.000 A 
ATOM     27  F   UNL     1       0.768   4.442  17.184  0.00  0.00    +0.000 F 
ATOM     28  C   UNL     1       3.070   4.256  17.657  0.00  0.00    +0.000 A 
ENDBRANCH  20  21
ENDBRANCH   7  20
TORSDOF 3
ENDMDL
MODEL 2
REMARK VINA RESULT:      -8.8      0.818      1.440
REMARK  Name = 
REMARK  3 active torsions:
REMARK  status: ('A' for Active; 'I' for Inactive)
REMARK    1  A    between atoms: C_2  and  C_18
REMARK    2  A    between atoms: C_7  and  C_8
REMARK    3  A    between atoms: C_8  and  C_9
REMARK                            x       y       z     vdW  Elec       q    Type
REMARK                         _______ _______ _______ _____ _____    ______ ____
ROOT
ATOM      1  O   UNL     1       7.635   9.988  17.400  0.00  0.00    +0.000 OA
ATOM      2  C   UNL     1       8.487   9.554  18.167  0.00  0.00    +0.000 C 
ATOM      3  N   UNL     1       8.627   8.255  18.608  0.00  0.00    +0.000 N 
ATOM      4  C   UNL     1       7.755   7.293  18.163  0.00  0.00    +0.000 A 
ATOM      5  N   UNL     1       6.925   7.353  17.156  0.00  0.00    +0.000 NA
ATOM      6  C   UNL     1       6.146   6.222  17.122  0.00  0.00    +0.000 A 
ATOM      7  C   UNL     1       6.399   5.296  18.114  0.00  0.00    +0.000 A 
ATOM      8  S   UNL     1       7.733   5.839  19.062  0.00  0.00    +0.000 S 
ATOM      9  H   UNL     1       9.236   8.020  19.375  0.00  0.00    +0.000 HD
ENDROOT
BRANCH   2  10
ATOM     10  C   UNL     1       9.432  10.549  18.732  0.00  0.00    +0.000 A 
ATOM     11  C   UNL     1       9.379  10.764  20.121  0.00  0.00    +0.000 A 
ATOM     12  C   UNL     1      10.143  11.756  20.740  0.00  0.00    +0.000 A 
ATOM     13  C   UNL     1      10.943  12.528  19.899  0.00  0.00    +0.000 A 
ATOM     14  N   UNL     1      11.766  13.600  20.143  0.00  0.00    +0.000 N 
ATOM     15  C   UNL     1      12.294  14.003  18.950  0.00  0.00    +0.000 A 
ATOM     16  N   UNL     1      11.878  13.249  17.955  0.00  0.00    +0.000 NA
ATOM     17  C   UNL     1      11.027  12.334  18.524  0.00  0.00    +0.000 A 
ATOM     18  C   UNL     1      10.268  11.320  17.914  0.00  0.00    +0.000 A 
ATOM     19  H   UNL     1      11.927  14.030  21.041  0.00  0.00    +0.000 HD
ENDBRANCH   2  10
BRANCH   7  20
ATOM     20  C   UNL     1       5.667   4.022  18.401  0.00  0.00    +0.000 C 
BRANCH  20  21
ATOM     21  C   UNL     1       4.224   4.279  18.781  0.00  0.00    +0.000 A 
ATOM     22  C   UNL     1       3.198   3.425  18.343  0.00  0.00    +0.000 A 
ATOM     23  C   UNL     1       1.867   3.722  18.634  0.00  0.00    +0.000 A 
ATOM     24  F   UNL     1       0.901   2.903  18.200  0.00  0.00    +0.000 F 
ATOM     25  C   UNL     1       1.524   4.855  19.358  0.00  0.00    +0.000 A 
ATOM     26  C   UNL     1       2.538   5.692  19.800  0.00  0.00    +0.000 A 
ATOM     27  F   UNL     1       2.227   6.792  20.498  0.00  0.00    +0.000 F 
ATOM     28  C   UNL     1       3.876   5.417  19.522  0.00  0.00    +0.000 A 
ENDBRANCH  20  21
ENDBRANCH   7  20
TORSDOF 3
ENDMDL
MODEL 3
REMARK VINA RESULT:      -8.7      1.141      1.491
REMARK  Name = 
REMARK  3 active torsions:
REMARK  status: ('A' for Active; 'I' for Inactive)
REMARK    1  A    between atoms: C_2  and  C_18
REMARK    2  A    between atoms: C_7  and  C_8
REMARK    3  A    between atoms: C_8  and  C_9
REMARK                            x       y       z     vdW  Elec       q    Type
REMARK                         _______ _______ _______ _____ _____    ______ ____
ROOT
ATOM      1  O   UNL     1       7.758   9.721  17.161  0.00  0.00    +0.000 OA
ATOM      2  C   UNL     1       8.446   9.350  18.106  0.00  0.00    +0.000 C 
ATOM      3  N   UNL     1       8.447   8.105  18.697  0.00  0.00    +0.000 N 
ATOM      4  C   UNL     1       7.619   7.125  18.210  0.00  0.00    +0.000 A 
ATOM      5  N   UNL     1       6.976   7.098  17.073  0.00  0.00    +0.000 NA
ATOM      6  C   UNL     1       6.161   5.992  17.022  0.00  0.00    +0.000 A 
ATOM      7  C   UNL     1       6.197   5.175  18.133  0.00  0.00    +0.000 A 
ATOM      8  S   UNL     1       7.375   5.780  19.237  0.00  0.00    +0.000 S 
ATOM      9  H   UNL     1       8.905   7.939  19.578  0.00  0.00    +0.000 HD
ENDROOT
BRANCH   2  10
ATOM     10  C   UNL     1       9.328  10.375  18.720  0.00  0.00    +0.000 A 
ATOM     11  C   UNL     1       9.266  10.515  20.118  0.00  0.00    +0.000 A 
ATOM     12  C   UNL     1       9.968  11.521  20.786  0.00  0.00    +0.000 A 
ATOM     13  C   UNL     1      10.714  12.384  19.985  0.00  0.00    +0.000 A 
ATOM     14  N   UNL     1      11.467  13.493  20.282  0.00  0.00    +0.000 N 
ATOM     15  C   UNL     1      11.963  13.989  19.111  0.00  0.00    +0.000 A 
ATOM     16  N   UNL     1      11.593  13.261  18.079  0.00  0.00    +0.000 NA
ATOM     17  C   UNL     1      10.804  12.266  18.602  0.00  0.00    +0.000 A 
ATOM     18  C   UNL     1      10.109  11.238  17.941  0.00  0.00    +0.000 A 
ATOM     19  H   UNL     1      11.604  13.887  21.202  0.00  0.00    +0.000 HD
ENDBRANCH   2  10
BRANCH   7  20
ATOM     20  C   UNL     1       5.367   3.962  18.419  0.00  0.00    +0.000 C 
BRANCH  20  21
ATOM     21  C   UNL     1       4.100   4.315  19.169  0.00  0.00    +0.000 A 
ATOM     22  C   UNL     1       3.571   5.615  19.123  0.00  0.00    +0.000 A 
ATOM     23  C   UNL     1       2.450   5.943  19.885  0.00  0.00    +0.000 A 
ATOM     24  F   UNL     1       1.964   7.189  19.836  0.00  0.00    +0.000 F 
ATOM     25  C   UNL     1       1.833   5.003  20.699  0.00  0.00    +0.000 A 
ATOM     26  C   UNL     1       2.350   3.716  20.737  0.00  0.00    +0.000 A 
ATOM     27  F   UNL     1       1.770   2.797  21.518  0.00  0.00    +0.000 F 
ATOM     28  C   UNL     1       3.469   3.364  19.984  0.00  0.00    +0.000 A 
ENDBRANCH  20  21
ENDBRANCH   7  20
TORSDOF 3
ENDMDL
MODEL 4
REMARK VINA RESULT:      -8.6      6.247      8.828
REMARK  Name = 
REMARK  3 active torsions:
REMARK  status: ('A' for Active; 'I' for Inactive)
REMARK    1  A    between atoms: C_2  and  C_18
REMARK    2  A    between atoms: C_7  and  C_8
REMARK    3  A    between atoms: C_8  and  C_9
REMARK                            x       y       z     vdW  Elec       q    Type
REMARK                         _______ _______ _______ _____ _____    ______ ____
ROOT
ATOM      1  O   UNL     1       2.146   6.074  19.586  0.00  0.00    +0.000 OA
ATOM      2  C   UNL     1       2.703   6.652  18.659  0.00  0.00    +0.000 C 
ATOM      3  N   UNL     1       2.579   7.980  18.311  0.00  0.00    +0.000 N 
ATOM      4  C   UNL     1       1.769   8.801  19.055  0.00  0.00    +0.000 A 
ATOM      5  N   UNL     1       1.261   8.583  20.239  0.00  0.00    +0.000 NA
ATOM      6  C   UNL     1       0.408   9.606  20.579  0.00  0.00    +0.000 A 
ATOM      7  C   UNL     1       0.279  10.610  19.640  0.00  0.00    +0.000 A 
ATOM      8  S   UNL     1       1.348  10.289  18.326  0.00  0.00    +0.000 S 
ATOM      9  H   UNL     1       2.925   8.331  17.433  0.00  0.00    +0.000 HD
ENDROOT
BRANCH   2  10
ATOM     10  C   UNL     1       3.553   5.814  17.778  0.00  0.00    +0.000 A 
ATOM     11  C   UNL     1       3.354   4.423  17.833  0.00  0.00    +0.000 A 
ATOM     12  C   UNL     1       4.173   3.535  17.131  0.00  0.00    +0.000 A 
ATOM     13  C   UNL     1       5.206   4.109  16.392  0.00  0.00    +0.000 A 
ATOM     14  N   UNL     1       6.214   3.557  15.640  0.00  0.00    +0.000 N 
ATOM     15  C   UNL     1       6.978   4.577  15.151  0.00  0.00    +0.000 A 
ATOM     16  N   UNL     1       6.518   5.752  15.524  0.00  0.00    +0.000 NA
ATOM     17  C   UNL     1       5.423   5.481  16.307  0.00  0.00    +0.000 A 
ATOM     18  C   UNL     1       4.581   6.366  17.002  0.00  0.00    +0.000 A 
ATOM     19  H   UNL     1       6.376   2.571  15.500  0.00  0.00    +0.000 HD
ENDBRANCH   2  10
BRANCH   7  20
ATOM     20  C   UNL     1      -0.632  11.796  19.671  0.00  0.00    +0.000 C 
BRANCH  20  21
ATOM     21  C   UNL     1      -1.937  11.521  18.954  0.00  0.00    +0.000 A 
ATOM     22  C   UNL     1      -3.132  12.133  19.365  0.00  0.00    +0.000 A 
ATOM     23  C   UNL     1      -4.337  11.805  18.745  0.00  0.00    +0.000 A 
ATOM     24  F   UNL     1      -5.468  12.392  19.157  0.00  0.00    +0.000 F 
ATOM     25  C   UNL     1      -4.387  10.877  17.716  0.00  0.00    +0.000 A 
ATOM     26  C   UNL     1      -3.205  10.280  17.301  0.00  0.00    +0.000 A 
ATOM     27  F   UNL     1      -3.234   9.380  16.311  0.00  0.00    +0.000 F 
ATOM     28  C   UNL     1      -1.988  10.591  17.905  0.00  0.00    +0.000 A 
ENDBRANCH  20  21
ENDBRANCH   7  20
TORSDOF 3
ENDMDL
MODEL 5
REMARK VINA RESULT:      -8.5      6.300      8.681
REMARK  Name = 
REMARK  3 active torsions:
REMARK  status: ('A' for Active; 'I' for Inactive)
REMARK    1  A    between atoms: C_2  and  C_18
REMARK    2  A    between atoms: C_7  and  C_8
REMARK    3  A    between atoms: C_8  and  C_9
REMARK                            x       y       z     vdW  Elec       q    Type
REMARK                         _______ _______ _______ _____ _____    ______ ____
ROOT
ATOM      1  O   UNL     1       0.897  10.161  18.896  0.00  0.00    +0.000 OA
ATOM      2  C   UNL     1       0.779   9.658  20.008  0.00  0.00    +0.000 C 
ATOM      3  N   UNL     1       1.280   8.445  20.431  0.00  0.00    +0.000 N 
ATOM      4  C   UNL     1       2.013   7.676  19.561  0.00  0.00    +0.000 A 
ATOM      5  N   UNL     1       2.548   8.027  18.422  0.00  0.00    +0.000 NA
ATOM      6  C   UNL     1       3.096   6.929  17.804  0.00  0.00    +0.000 A 
ATOM      7  C   UNL     1       2.978   5.738  18.492  0.00  0.00    +0.000 A 
ATOM      8  S   UNL     1       2.229   6.042  20.015  0.00  0.00    +0.000 S 
ATOM      9  H   UNL     1       0.985   8.024  21.296  0.00  0.00    +0.000 HD
ENDROOT
BRANCH   2  10
ATOM     10  C   UNL     1      -0.048  10.408  20.986  0.00  0.00    +0.000 A 
ATOM     11  C   UNL     1      -0.152   9.870  22.281  0.00  0.00    +0.000 A 
ATOM     12  C   UNL     1      -0.992  10.433  23.245  0.00  0.00    +0.000 A 
ATOM     13  C   UNL     1      -1.732  11.543  22.840  0.00  0.00    +0.000 A 
ATOM     14  N   UNL     1      -2.676  12.302  23.485  0.00  0.00    +0.000 N 
ATOM     15  C   UNL     1      -3.112  13.258  22.613  0.00  0.00    +0.000 A 
ATOM     16  N   UNL     1      -2.498  13.175  21.453  0.00  0.00    +0.000 NA
ATOM     17  C   UNL     1      -1.645  12.105  21.570  0.00  0.00    +0.000 A 
ATOM     18  C   UNL     1      -0.781  11.543  20.614  0.00  0.00    +0.000 A 
ATOM     19  H   UNL     1      -3.008  12.159  24.428  0.00  0.00    +0.000 HD
ENDBRANCH   2  10
BRANCH   7  20
ATOM     20  C   UNL     1       3.383   4.367  18.049  0.00  0.00    +0.000 C 
BRANCH  20  21
ATOM     21  C   UNL     1       4.796   4.349  17.506  0.00  0.00    +0.000 A 
ATOM     22  C   UNL     1       5.890   4.668  18.328  0.00  0.00    +0.000 A 
ATOM     23  C   UNL     1       7.176   4.725  17.792  0.00  0.00    +0.000 A 
ATOM     24  F   UNL     1       8.206   5.041  18.587  0.00  0.00    +0.000 F 
ATOM     25  C   UNL     1       7.408   4.470  16.448  0.00  0.00    +0.000 A 
ATOM     26  C   UNL     1       6.329   4.144  15.638  0.00  0.00    +0.000 A 
ATOM     27  F   UNL     1       6.532   3.897  14.338  0.00  0.00    +0.000 F 
ATOM     28  C   UNL     1       5.034   4.080  16.151  0.00  0.00    +0.000 A 
ENDBRANCH  20  21
ENDBRANCH   7  20
TORSDOF 3
ENDMDL
MODEL 6
REMARK VINA RESULT:      -8.4      6.428      8.336
REMARK  Name = 
REMARK  3 active torsions:
REMARK  status: ('A' for Active; 'I' for Inactive)
REMARK    1  A    between atoms: C_2  and  C_18
REMARK    2  A    between atoms: C_7  and  C_8
REMARK    3  A    between atoms: C_8  and  C_9
REMARK                            x       y       z     vdW  Elec       q    Type
REMARK                         _______ _______ _______ _____ _____    ______ ____
ROOT
ATOM      1  O   UNL     1       2.128   5.907  20.127  0.00  0.00    +0.000 OA
ATOM      2  C   UNL     1       2.261   6.942  19.482  0.00  0.00    +0.000 C 
ATOM      3  N   UNL     1       3.102   7.153  18.411  0.00  0.00    +0.000 N 
ATOM      4  C   UNL     1       3.894   6.126  17.960  0.00  0.00    +0.000 A 
ATOM      5  N   UNL     1       3.802   4.852  18.233  0.00  0.00    +0.000 NA
ATOM      6  C   UNL     1       4.861   4.176  17.675  0.00  0.00    +0.000 A 
ATOM      7  C   UNL     1       5.756   4.953  16.968  0.00  0.00    +0.000 A 
ATOM      8  S   UNL     1       5.183   6.578  16.932  0.00  0.00    +0.000 S 
ATOM      9  H   UNL     1       3.285   8.078  18.056  0.00  0.00    +0.000 HD
ENDROOT
BRANCH   2  10
ATOM     10  C   UNL     1       1.475   8.112  19.947  0.00  0.00    +0.000 A 
ATOM     11  C   UNL     1       1.407   9.220  19.083  0.00  0.00    +0.000 A 
ATOM     12  C   UNL     1       0.790  10.413  19.466  0.00  0.00    +0.000 A 
ATOM     13  C   UNL     1       0.266  10.445  20.757  0.00  0.00    +0.000 A 
ATOM     14  N   UNL     1      -0.347  11.441  21.475  0.00  0.00    +0.000 N 
ATOM     15  C   UNL     1      -0.639  10.947  22.714  0.00  0.00    +0.000 A 
ATOM     16  N   UNL     1      -0.270   9.690  22.835  0.00  0.00    +0.000 NA
ATOM     17  C   UNL     1       0.307   9.364  21.632  0.00  0.00    +0.000 A 
ATOM     18  C   UNL     1       0.914   8.161  21.229  0.00  0.00    +0.000 A 
ATOM     19  H   UNL     1      -0.523  12.382  21.152  0.00  0.00    +0.000 HD
ENDBRANCH   2  10
BRANCH   7  20
ATOM     20  C   UNL     1       7.045   4.534  16.331  0.00  0.00    +0.000 C 
BRANCH  20  21
ATOM     21  C   UNL     1       6.948   4.531  14.820  0.00  0.00    +0.000 A 
ATOM     22  C   UNL     1       6.156   3.585  14.149  0.00  0.00    +0.000 A 
ATOM     23  C   UNL     1       6.142   3.545  12.755  0.00  0.00    +0.000 A 
ATOM     24  F   UNL     1       5.389   2.630  12.131  0.00  0.00    +0.000 F 
ATOM     25  C   UNL     1       6.901   4.429  12.002  0.00  0.00    +0.000 A 
ATOM     26  C   UNL     1       7.676   5.370  12.665  0.00  0.00    +0.000 A 
ATOM     27  F   UNL     1       8.417   6.231  11.956  0.00  0.00    +0.000 F 
ATOM     28  C   UNL     1       7.706   5.431  14.057  0.00  0.00    +0.000 A 
ENDBRANCH  20  21
ENDBRANCH   7  20
TORSDOF 3
ENDMDL
MODEL 7
REMARK VINA RESULT:      -8.4      6.342      8.879
REMARK  Name = 
REMARK  3 active torsions:
REMARK  status: ('A' for Active; 'I' for Inactive)
REMARK    1  A    between atoms: C_2  and  C_18
REMARK    2  A    between atoms: C_7  and  C_8
REMARK    3  A    between atoms: C_8  and  C_9
REMARK                            x       y       z     vdW  Elec       q    Type
REMARK                         _______ _______ _______ _____ _____    ______ ____
ROOT
ATOM      1  O   UNL     1       0.775  10.160  18.873  0.00  0.00    +0.000 OA
ATOM      2  C   UNL     1       0.702   9.682  19.999  0.00  0.00    +0.000 C 
ATOM      3  N   UNL     1       1.253   8.497  20.439  0.00  0.00    +0.000 N 
ATOM      4  C   UNL     1       1.987   7.730  19.569  0.00  0.00    +0.000 A 
ATOM      5  N   UNL     1       2.481   8.068  18.408  0.00  0.00    +0.000 NA
ATOM      6  C   UNL     1       3.049   6.972  17.803  0.00  0.00    +0.000 A 
ATOM      7  C   UNL     1       2.987   5.796  18.523  0.00  0.00    +0.000 A 
ATOM      8  S   UNL     1       2.268   6.116  20.057  0.00  0.00    +0.000 S 
ATOM      9  H   UNL     1       0.993   8.089  21.322  0.00  0.00    +0.000 HD
ENDROOT
BRANCH   2  10
ATOM     10  C   UNL     1      -0.124  10.431  20.980  0.00  0.00    +0.000 A 
ATOM     11  C   UNL     1      -0.187   9.916  22.287  0.00  0.00    +0.000 A 
ATOM     12  C   UNL     1      -1.021  10.477  23.257  0.00  0.00    +0.000 A 
ATOM     13  C   UNL     1      -1.797  11.559  22.847  0.00  0.00    +0.000 A 
ATOM     14  N   UNL     1      -2.746  12.308  23.497  0.00  0.00    +0.000 N 
ATOM     15  C   UNL     1      -3.224  13.235  22.617  0.00  0.00    +0.000 A 
ATOM     16  N   UNL     1      -2.632  13.144  21.445  0.00  0.00    +0.000 NA
ATOM     17  C   UNL     1      -1.750  12.099  21.565  0.00  0.00    +0.000 A 
ATOM     18  C   UNL     1      -0.893  11.539  20.602  0.00  0.00    +0.000 A 
ATOM     19  H   UNL     1      -3.055  12.175  24.449  0.00  0.00    +0.000 HD
ENDBRANCH   2  10
BRANCH   7  20
ATOM     20  C   UNL     1       3.424   4.428  18.103  0.00  0.00    +0.000 C 
BRANCH  20  21
ATOM     21  C   UNL     1       4.791   4.452  17.454  0.00  0.00    +0.000 A 
ATOM     22  C   UNL     1       4.948   4.162  16.088  0.00  0.00    +0.000 A 
ATOM     23  C   UNL     1       6.223   4.108  15.525  0.00  0.00    +0.000 A 
ATOM     24  F   UNL     1       6.354   3.821  14.224  0.00  0.00    +0.000 F 
ATOM     25  C   UNL     1       7.357   4.338  16.289  0.00  0.00    +0.000 A 
ATOM     26  C   UNL     1       7.202   4.635  17.636  0.00  0.00    +0.000 A 
ATOM     27  F   UNL     1       8.285   4.858  18.390  0.00  0.00    +0.000 F 
ATOM     28  C   UNL     1       5.939   4.695  18.222  0.00  0.00    +0.000 A 
ENDBRANCH  20  21
ENDBRANCH   7  20
TORSDOF 3
ENDMDL
MODEL 8
REMARK VINA RESULT:      -8.3      6.300      8.310
REMARK  Name = 
REMARK  3 active torsions:
REMARK  status: ('A' for Active; 'I' for Inactive)
REMARK    1  A    between atoms: C_2  and  C_18
REMARK    2  A    between atoms: C_7  and  C_8
REMARK    3  A    between atoms: C_8  and  C_9
REMARK                            x       y       z     vdW  Elec       q    Type
REMARK                         _______ _______ _______ _____ _____    ______ ____
ROOT
ATOM      1  O   UNL     1       2.305   9.227  17.275  0.00  0.00    +0.000 OA
ATOM      2  C   UNL     1       2.168   8.628  18.337  0.00  0.00    +0.000 C 
ATOM      3  N   UNL     1       2.784   7.455  18.717  0.00  0.00    +0.000 N 
ATOM      4  C   UNL     1       3.669   6.849  17.861  0.00  0.00    +0.000 A 
ATOM      5  N   UNL     1       4.239   7.347  16.797  0.00  0.00    +0.000 NA
ATOM      6  C   UNL     1       4.965   6.373  16.153  0.00  0.00    +0.000 A 
ATOM      7  C   UNL     1       4.945   5.127  16.747  0.00  0.00    +0.000 A 
ATOM      8  S   UNL     1       4.053   5.222  18.220  0.00  0.00    +0.000 S 
ATOM      9  H   UNL     1       2.480   6.936  19.524  0.00  0.00    +0.000 HD
ENDROOT
BRANCH   2  10
ATOM     10  C   UNL     1       1.183   9.197  19.291  0.00  0.00    +0.000 A 
ATOM     11  C   UNL     1       0.358  10.232  18.815  0.00  0.00    +0.000 A 
ATOM     12  C   UNL     1      -0.524  10.914  19.657  0.00  0.00    +0.000 A 
ATOM     13  C   UNL     1      -0.522  10.520  20.994  0.00  0.00    +0.000 A 
ATOM     14  N   UNL     1      -1.201  10.990  22.091  0.00  0.00    +0.000 N 
ATOM     15  C   UNL     1      -0.803  10.260  23.174  0.00  0.00    +0.000 A 
ATOM     16  N   UNL     1       0.076   9.339  22.844  0.00  0.00    +0.000 NA
ATOM     17  C   UNL     1       0.273   9.493  21.494  0.00  0.00    +0.000 A 
ATOM     18  C   UNL     1       1.143   8.801  20.633  0.00  0.00    +0.000 A 
ATOM     19  H   UNL     1      -1.856  11.758  22.098  0.00  0.00    +0.000 HD
ENDBRANCH   2  10
BRANCH   7  20
ATOM     20  C   UNL     1       5.550   3.853  16.247  0.00  0.00    +0.000 C 
BRANCH  20  21
ATOM     21  C   UNL     1       6.074   3.998  14.834  0.00  0.00    +0.000 A 
ATOM     22  C   UNL     1       7.202   4.787  14.559  0.00  0.00    +0.000 A 
ATOM     23  C   UNL     1       7.622   4.975  13.243  0.00  0.00    +0.000 A 
ATOM     24  F   UNL     1       8.694   5.739  12.998  0.00  0.00    +0.000 F 
ATOM     25  C   UNL     1       6.944   4.393  12.181  0.00  0.00    +0.000 A 
ATOM     26  C   UNL     1       5.836   3.605  12.453  0.00  0.00    +0.000 A 
ATOM     27  F   UNL     1       5.167   3.037  11.442  0.00  0.00    +0.000 F 
ATOM     28  C   UNL     1       5.397   3.401  13.761  0.00  0.00    +0.000 A 
ENDBRANCH  20  21
ENDBRANCH   7  20
TORSDOF 3
ENDMDL
MODEL 9
REMARK VINA RESULT:      -8.3      6.309      9.061
REMARK  Name = 
REMARK  3 active torsions:
REMARK  status: ('A' for Active; 'I' for Inactive)
REMARK    1  A    between atoms: C_2  and  C_18
REMARK    2  A    between atoms: C_7  and  C_8
REMARK    3  A    between atoms: C_8  and  C_9
REMARK                            x       y       z     vdW  Elec       q    Type
REMARK                         _______ _______ _______ _____ _____    ______ ____
ROOT
ATOM      1  O   UNL     1       1.992   6.393  19.571  0.00  0.00    +0.000 OA
ATOM      2  C   UNL     1       2.599   6.923  18.646  0.00  0.00    +0.000 C 
ATOM      3  N   UNL     1       2.532   8.242  18.253  0.00  0.00    +0.000 N 
ATOM      4  C   UNL     1       1.724   9.112  18.943  0.00  0.00    +0.000 A 
ATOM      5  N   UNL     1       1.170   8.949  20.114  0.00  0.00    +0.000 NA
ATOM      6  C   UNL     1       0.340  10.009  20.392  0.00  0.00    +0.000 A 
ATOM      7  C   UNL     1       0.276  10.985  19.418  0.00  0.00    +0.000 A 
ATOM      8  S   UNL     1       1.378  10.589  18.153  0.00  0.00    +0.000 S 
ATOM      9  H   UNL     1       2.918   8.553  17.377  0.00  0.00    +0.000 HD
ENDROOT
BRANCH   2  10
ATOM     10  C   UNL     1       3.451   6.030  17.821  0.00  0.00    +0.000 A 
ATOM     11  C   UNL     1       3.142   4.658  17.839  0.00  0.00    +0.000 A 
ATOM     12  C   UNL     1       3.944   3.716  17.190  0.00  0.00    +0.000 A 
ATOM     13  C   UNL     1       5.073   4.215  16.543  0.00  0.00    +0.000 A 
ATOM     14  N   UNL     1       6.093   3.594  15.865  0.00  0.00    +0.000 N 
ATOM     15  C   UNL     1       6.970   4.557  15.454  0.00  0.00    +0.000 A 
ATOM     16  N   UNL     1       6.572   5.760  15.808  0.00  0.00    +0.000 NA
ATOM     17  C   UNL     1       5.401   5.566  16.498  0.00  0.00    +0.000 A 
ATOM     18  C   UNL     1       4.576   6.507  17.138  0.00  0.00    +0.000 A 
ATOM     19  H   UNL     1       6.190   2.599  15.723  0.00  0.00    +0.000 HD
ENDBRANCH   2  10
BRANCH   7  20
ATOM     20  C   UNL     1      -0.596  12.202  19.381  0.00  0.00    +0.000 C 
BRANCH  20  21
ATOM     21  C   UNL     1      -1.960  11.895  18.801  0.00  0.00    +0.000 A 
ATOM     22  C   UNL     1      -2.095  11.405  17.492  0.00  0.00    +0.000 A 
ATOM     23  C   UNL     1      -3.362  11.206  16.945  0.00  0.00    +0.000 A 
ATOM     24  F   UNL     1      -3.472  10.746  15.692  0.00  0.00    +0.000 F 
ATOM     25  C   UNL     1      -4.511  11.483  17.671  0.00  0.00    +0.000 A 
ATOM     26  C   UNL     1      -4.378  11.957  18.968  0.00  0.00    +0.000 A 
ATOM     27  F   UNL     1      -5.475  12.233  19.685  0.00  0.00    +0.000 F 
ATOM     28  C   UNL     1      -3.122  12.165  19.537  0.00  0.00    +0.000 A 
ENDBRANCH  20  21
ENDBRANCH   7  20
TORSDOF 3
ENDMDL
