MODEL 1
REMARK VINA RESULT:      -8.9      0.000      0.000
REMARK  Name = 
REMARK  4 active torsions:
REMARK  status: ('A' for Active; 'I' for Inactive)
REMARK    1  A    between atoms: C_1  and  C_2
REMARK    2  A    between atoms: C_2  and  C_4
REMARK    3  A    between atoms: C_8  and  C_9
REMARK    4  A    between atoms: C_16  and  C_17
REMARK                            x       y       z     vdW  Elec       q    Type
REMARK                         _______ _______ _______ _____ _____    ______ ____
ROOT
ATOM      1  C   UNL     1       4.104   4.941  16.877  0.00  0.00    +0.000 C 
ATOM      2  C   UNL     1       3.432   3.970  17.533  0.00  0.00    +0.000 C 
ATOM      3  C   UNL     1       2.620   4.595  18.578  0.00  0.00    +0.000 A 
ATOM      4  C   UNL     1       2.885   5.974  18.546  0.00  0.00    +0.000 A 
ATOM      5  C   UNL     1       2.493   6.832  19.561  0.00  0.00    +0.000 A 
ATOM      6  C   UNL     1       1.800   6.292  20.637  0.00  0.00    +0.000 A 
ATOM      7  C   UNL     1       1.433   4.939  20.631  0.00  0.00    +0.000 A 
ATOM      8  C   UNL     1       1.809   4.081  19.579  0.00  0.00    +0.000 A 
ATOM      9  C   UNL     1       3.659   6.319  17.310  0.00  0.00    +0.000 C 
ENDROOT
BRANCH   1  14
ATOM     10  C   UNL     1       6.198   4.036  13.832  0.00  0.00    +0.000 A 
ATOM     11  C   UNL     1       7.375   4.738  14.110  0.00  0.00    +0.000 A 
ATOM     12  C   UNL     1       7.490   5.479  15.284  0.00  0.00    +0.000 A 
ATOM     13  C   UNL     1       6.435   5.509  16.201  0.00  0.00    +0.000 A 
ATOM     14  C   UNL     1       5.252   4.803  15.962  0.00  0.00    +0.000 A 
ATOM     15  C   UNL     1       5.141   4.079  14.762  0.00  0.00    +0.000 A 
BRANCH  10  17
ATOM     16  C   UNL     1       4.742   3.497  11.867  0.00  0.00    +0.000 C 
ATOM     17  C   UNL     1       6.071   3.229  12.559  0.00  0.00    +0.000 C 
ATOM     18  F   UNL     1       7.066   3.505  11.665  0.00  0.00    +0.000 F 
ENDBRANCH  10  17
ENDBRANCH   1  14
BRANCH   8  19
ATOM     19  C   UNL     1       1.279   2.667  19.594  0.00  0.00    +0.000 C 
ATOM     20  F   UNL     1       0.311   2.404  18.673  0.00  0.00    +0.000 F 
ATOM     21  F   UNL     1       2.252   1.735  19.391  0.00  0.00    +0.000 F 
ATOM     22  F   UNL     1       0.723   2.351  20.802  0.00  0.00    +0.000 F 
ENDBRANCH   8  19
TORSDOF 3
ENDMDL
MODEL 2
REMARK VINA RESULT:      -8.4      0.702      1.129
REMARK  Name = 
REMARK  4 active torsions:
REMARK  status: ('A' for Active; 'I' for Inactive)
REMARK    1  A    between atoms: C_1  and  C_2
REMARK    2  A    between atoms: C_2  and  C_4
REMARK    3  A    between atoms: C_8  and  C_9
REMARK    4  A    between atoms: C_16  and  C_17
REMARK                            x       y       z     vdW  Elec       q    Type
REMARK                         _______ _______ _______ _____ _____    ______ ____
ROOT
ATOM      1  C   UNL     1       4.013   4.871  16.934  0.00  0.00    +0.000 C 
ATOM      2  C   UNL     1       3.372   3.948  17.683  0.00  0.00    +0.000 C 
ATOM      3  C   UNL     1       2.598   4.645  18.713  0.00  0.00    +0.000 A 
ATOM      4  C   UNL     1       2.855   6.019  18.571  0.00  0.00    +0.000 A 
ATOM      5  C   UNL     1       2.499   6.946  19.537  0.00  0.00    +0.000 A 
ATOM      6  C   UNL     1       1.851   6.483  20.675  0.00  0.00    +0.000 A 
ATOM      7  C   UNL     1       1.491   5.133  20.781  0.00  0.00    +0.000 A 
ATOM      8  C   UNL     1       1.830   4.202  19.779  0.00  0.00    +0.000 A 
ATOM      9  C   UNL     1       3.578   6.276  17.285  0.00  0.00    +0.000 C 
ENDROOT
BRANCH   1  14
ATOM     10  C   UNL     1       5.932   4.178  13.722  0.00  0.00    +0.000 A 
ATOM     11  C   UNL     1       7.230   4.513  14.119  0.00  0.00    +0.000 A 
ATOM     12  C   UNL     1       7.478   4.940  15.423  0.00  0.00    +0.000 A 
ATOM     13  C   UNL     1       6.431   5.016  16.346  0.00  0.00    +0.000 A 
ATOM     14  C   UNL     1       5.126   4.670  15.987  0.00  0.00    +0.000 A 
ATOM     15  C   UNL     1       4.886   4.264  14.662  0.00  0.00    +0.000 A 
BRANCH  10  17
ATOM     16  C   UNL     1       6.415   2.428  11.997  0.00  0.00    +0.000 C 
ATOM     17  C   UNL     1       5.660   3.713  12.310  0.00  0.00    +0.000 C 
ATOM     18  F   UNL     1       4.333   3.479  12.083  0.00  0.00    +0.000 F 
ENDBRANCH  10  17
ENDBRANCH   1  14
BRANCH   8  19
ATOM     19  C   UNL     1       1.308   2.792  19.916  0.00  0.00    +0.000 C 
ATOM     20  F   UNL     1       0.800   2.482  21.141  0.00  0.00    +0.000 F 
ATOM     21  F   UNL     1       0.323   2.503  19.019  0.00  0.00    +0.000 F 
ATOM     22  F   UNL     1       2.288   1.868  19.687  0.00  0.00    +0.000 F 
ENDBRANCH   8  19
TORSDOF 3
ENDMDL
MODEL 3
REMARK VINA RESULT:      -8.4      2.655      7.100
REMARK  Name = 
REMARK  4 active torsions:
REMARK  status: ('A' for Active; 'I' for Inactive)
REMARK    1  A    between atoms: C_1  and  C_2
REMARK    2  A    between atoms: C_2  and  C_4
REMARK    3  A    between atoms: C_8  and  C_9
REMARK    4  A    between atoms: C_16  and  C_17
REMARK                            x       y       z     vdW  Elec       q    Type
REMARK                         _______ _______ _______ _____ _____    ______ ____
ROOT
ATOM      1  C   UNL     1       2.962   7.021  18.351  0.00  0.00    +0.000 C 
ATOM      2  C   UNL     1       2.779   5.685  18.427  0.00  0.00    +0.000 C 
ATOM      3  C   UNL     1       3.764   5.033  17.562  0.00  0.00    +0.000 A 
ATOM      4  C   UNL     1       4.502   6.047  16.930  0.00  0.00    +0.000 A 
ATOM      5  C   UNL     1       5.336   5.799  15.852  0.00  0.00    +0.000 A 
ATOM      6  C   UNL     1       5.445   4.490  15.402  0.00  0.00    +0.000 A 
ATOM      7  C   UNL     1       4.801   3.452  16.090  0.00  0.00    +0.000 A 
ATOM      8  C   UNL     1       3.980   3.710  17.205  0.00  0.00    +0.000 A 
ATOM      9  C   UNL     1       4.207   7.370  17.568  0.00  0.00    +0.000 C 
ENDROOT
BRANCH   1  14
ATOM     10  C   UNL     1       0.763   9.204  20.558  0.00  0.00    +0.000 A 
ATOM     11  C   UNL     1       0.511  10.275  19.694  0.00  0.00    +0.000 A 
ATOM     12  C   UNL     1       1.036  10.274  18.403  0.00  0.00    +0.000 A 
ATOM     13  C   UNL     1       1.801   9.191  17.958  0.00  0.00    +0.000 A 
ATOM     14  C   UNL     1       2.055   8.097  18.790  0.00  0.00    +0.000 A 
ATOM     15  C   UNL     1       1.539   8.122  20.099  0.00  0.00    +0.000 A 
BRANCH  10  17
ATOM     16  C   UNL     1      -0.355  10.571  22.334  0.00  0.00    +0.000 C 
ATOM     17  C   UNL     1       0.192   9.202  21.958  0.00  0.00    +0.000 C 
ATOM     18  F   UNL     1      -0.820   8.296  22.108  0.00  0.00    +0.000 F 
ENDBRANCH  10  17
ENDBRANCH   1  14
BRANCH   8  19
ATOM     19  C   UNL     1       3.414   2.529  17.956  0.00  0.00    +0.000 C 
ATOM     20  F   UNL     1       2.070   2.354  17.828  0.00  0.00    +0.000 F 
ATOM     21  F   UNL     1       3.982   1.346  17.588  0.00  0.00    +0.000 F 
ATOM     22  F   UNL     1       3.638   2.634  19.301  0.00  0.00    +0.000 F 
ENDBRANCH   8  19
TORSDOF 3
ENDMDL
MODEL 4
REMARK VINA RESULT:      -8.3      2.575      3.346
REMARK  Name = 
REMARK  4 active torsions:
REMARK  status: ('A' for Active; 'I' for Inactive)
REMARK    1  A    between atoms: C_1  and  C_2
REMARK    2  A    between atoms: C_2  and  C_4
REMARK    3  A    between atoms: C_8  and  C_9
REMARK    4  A    between atoms: C_16  and  C_17
REMARK                            x       y       z     vdW  Elec       q    Type
REMARK                         _______ _______ _______ _____ _____    ______ ____
ROOT
ATOM      1  C   UNL     1       5.226   4.591  15.931  0.00  0.00    +0.000 C 
ATOM      2  C   UNL     1       4.543   5.673  16.364  0.00  0.00    +0.000 C 
ATOM      3  C   UNL     1       3.717   5.273  17.503  0.00  0.00    +0.000 A 
ATOM      4  C   UNL     1       3.902   3.893  17.691  0.00  0.00    +0.000 A 
ATOM      5  C   UNL     1       3.079   3.135  18.509  0.00  0.00    +0.000 A 
ATOM      6  C   UNL     1       2.046   3.785  19.172  0.00  0.00    +0.000 A 
ATOM      7  C   UNL     1       1.916   5.178  19.082  0.00  0.00    +0.000 A 
ATOM      8  C   UNL     1       2.777   5.944  18.272  0.00  0.00    +0.000 A 
ATOM      9  C   UNL     1       5.053   3.412  16.862  0.00  0.00    +0.000 C 
ENDROOT
BRANCH   1  14
ATOM     10  C   UNL     1       6.023   3.552  12.358  0.00  0.00    +0.000 A 
ATOM     11  C   UNL     1       7.209   4.259  12.142  0.00  0.00    +0.000 A 
ATOM     12  C   UNL     1       7.751   5.049  13.154  0.00  0.00    +0.000 A 
ATOM     13  C   UNL     1       7.121   5.121  14.400  0.00  0.00    +0.000 A 
ATOM     14  C   UNL     1       5.945   4.410  14.656  0.00  0.00    +0.000 A 
ATOM     15  C   UNL     1       5.395   3.638  13.617  0.00  0.00    +0.000 A 
BRANCH  10  17
ATOM     16  C   UNL     1       6.002   1.283  11.301  0.00  0.00    +0.000 C 
ATOM     17  C   UNL     1       5.433   2.694  11.262  0.00  0.00    +0.000 C 
ATOM     18  F   UNL     1       4.073   2.595  11.352  0.00  0.00    +0.000 F 
ENDBRANCH  10  17
ENDBRANCH   1  14
BRANCH   8  19
ATOM     19  C   UNL     1       2.641   7.447  18.318  0.00  0.00    +0.000 C 
ATOM     20  F   UNL     1       3.749   8.139  17.930  0.00  0.00    +0.000 F 
ATOM     21  F   UNL     1       1.621   7.909  17.541  0.00  0.00    +0.000 F 
ATOM     22  F   UNL     1       2.363   7.889  19.581  0.00  0.00    +0.000 F 
ENDBRANCH   8  19
TORSDOF 3
ENDMDL
MODEL 5
REMARK VINA RESULT:      -8.2      3.886      6.936
REMARK  Name = 
REMARK  4 active torsions:
REMARK  status: ('A' for Active; 'I' for Inactive)
REMARK    1  A    between atoms: C_1  and  C_2
REMARK    2  A    between atoms: C_2  and  C_4
REMARK    3  A    between atoms: C_8  and  C_9
REMARK    4  A    between atoms: C_16  and  C_17
REMARK                            x       y       z     vdW  Elec       q    Type
REMARK                         _______ _______ _______ _____ _____    ______ ____
ROOT
ATOM      1  C   UNL     1       2.340   6.761  19.074  0.00  0.00    +0.000 C 
ATOM      2  C   UNL     1       2.116   5.844  20.039  0.00  0.00    +0.000 C 
ATOM      3  C   UNL     1       2.463   4.523  19.512  0.00  0.00    +0.000 A 
ATOM      4  C   UNL     1       2.851   4.696  18.173  0.00  0.00    +0.000 A 
ATOM      5  C   UNL     1       2.991   3.633  17.295  0.00  0.00    +0.000 A 
ATOM      6  C   UNL     1       2.749   2.354  17.780  0.00  0.00    +0.000 A 
ATOM      7  C   UNL     1       2.468   2.156  19.139  0.00  0.00    +0.000 A 
ATOM      8  C   UNL     1       2.359   3.241  20.031  0.00  0.00    +0.000 A 
ATOM      9  C   UNL     1       3.031   6.153  17.875  0.00  0.00    +0.000 C 
ENDROOT
BRANCH   1  14
ATOM     10  C   UNL     1       0.822  10.102  20.077  0.00  0.00    +0.000 A 
ATOM     11  C   UNL     1       1.193  10.894  18.986  0.00  0.00    +0.000 A 
ATOM     12  C   UNL     1       1.913  10.339  17.929  0.00  0.00    +0.000 A 
ATOM     13  C   UNL     1       2.249   8.982  17.946  0.00  0.00    +0.000 A 
ATOM     14  C   UNL     1       1.875   8.159  19.012  0.00  0.00    +0.000 A 
ATOM     15  C   UNL     1       1.171   8.738  20.083  0.00  0.00    +0.000 A 
BRANCH  10  17
ATOM     16  C   UNL     1       0.085   9.801  22.452  0.00  0.00    +0.000 C 
ATOM     17  C   UNL     1       0.039  10.701  21.225  0.00  0.00    +0.000 C 
ATOM     18  F   UNL     1       0.511  11.929  21.594  0.00  0.00    +0.000 F 
ENDBRANCH  10  17
ENDBRANCH   1  14
BRANCH   8  19
ATOM     19  C   UNL     1       2.166   2.936  21.497  0.00  0.00    +0.000 C 
ATOM     20  F   UNL     1       0.916   2.518  21.840  0.00  0.00    +0.000 F 
ATOM     21  F   UNL     1       3.019   1.977  21.954  0.00  0.00    +0.000 F 
ATOM     22  F   UNL     1       2.405   4.033  22.275  0.00  0.00    +0.000 F 
ENDBRANCH   8  19
TORSDOF 3
ENDMDL
MODEL 6
REMARK VINA RESULT:      -8.2      2.616      3.285
REMARK  Name = 
REMARK  4 active torsions:
REMARK  status: ('A' for Active; 'I' for Inactive)
REMARK    1  A    between atoms: C_1  and  C_2
REMARK    2  A    between atoms: C_2  and  C_4
REMARK    3  A    between atoms: C_8  and  C_9
REMARK    4  A    between atoms: C_16  and  C_17
REMARK                            x       y       z     vdW  Elec       q    Type
REMARK                         _______ _______ _______ _____ _____    ______ ____
ROOT
ATOM      1  C   UNL     1       5.451   5.059  16.257  0.00  0.00    +0.000 C 
ATOM      2  C   UNL     1       4.563   6.037  16.536  0.00  0.00    +0.000 C 
ATOM      3  C   UNL     1       4.005   5.792  17.866  0.00  0.00    +0.000 A 
ATOM      4  C   UNL     1       4.565   4.593  18.340  0.00  0.00    +0.000 A 
ATOM      5  C   UNL     1       4.068   3.925  19.447  0.00  0.00    +0.000 A 
ATOM      6  C   UNL     1       2.983   4.485  20.111  0.00  0.00    +0.000 A 
ATOM      7  C   UNL     1       2.484   5.733  19.717  0.00  0.00    +0.000 A 
ATOM      8  C   UNL     1       3.016   6.421  18.608  0.00  0.00    +0.000 A 
ATOM      9  C   UNL     1       5.700   4.173  17.457  0.00  0.00    +0.000 C 
ENDROOT
BRANCH   1  14
ATOM     10  C   UNL     1       5.896   3.544  12.796  0.00  0.00    +0.000 A 
ATOM     11  C   UNL     1       7.056   4.200  12.373  0.00  0.00    +0.000 A 
ATOM     12  C   UNL     1       7.695   5.109  13.215  0.00  0.00    +0.000 A 
ATOM     13  C   UNL     1       7.189   5.355  14.494  0.00  0.00    +0.000 A 
ATOM     14  C   UNL     1       6.042   4.701  14.955  0.00  0.00    +0.000 A 
ATOM     15  C   UNL     1       5.394   3.805  14.086  0.00  0.00    +0.000 A 
BRANCH  10  17
ATOM     16  C   UNL     1       4.131   3.236  11.047  0.00  0.00    +0.000 C 
ATOM     17  C   UNL     1       5.202   2.555  11.886  0.00  0.00    +0.000 C 
ATOM     18  F   UNL     1       6.069   1.937  11.030  0.00  0.00    +0.000 F 
ENDBRANCH  10  17
ENDBRANCH   1  14
BRANCH   8  19
ATOM     19  C   UNL     1       2.498   7.809  18.319  0.00  0.00    +0.000 C 
ATOM     20  F   UNL     1       1.522   7.875  17.371  0.00  0.00    +0.000 F 
ATOM     21  F   UNL     1       1.988   8.423  19.424  0.00  0.00    +0.000 F 
ATOM     22  F   UNL     1       3.491   8.634  17.873  0.00  0.00    +0.000 F 
ENDBRANCH   8  19
TORSDOF 3
ENDMDL
MODEL 7
REMARK VINA RESULT:      -8.2      3.856      5.843
REMARK  Name = 
REMARK  4 active torsions:
REMARK  status: ('A' for Active; 'I' for Inactive)
REMARK    1  A    between atoms: C_1  and  C_2
REMARK    2  A    between atoms: C_2  and  C_4
REMARK    3  A    between atoms: C_8  and  C_9
REMARK    4  A    between atoms: C_16  and  C_17
REMARK                            x       y       z     vdW  Elec       q    Type
REMARK                         _______ _______ _______ _____ _____    ______ ____
ROOT
ATOM      1  C   UNL     1       2.028   7.780  18.667  0.00  0.00    +0.000 C 
ATOM      2  C   UNL     1       1.572   7.995  19.920  0.00  0.00    +0.000 C 
ATOM      3  C   UNL     1       1.148   9.392  20.024  0.00  0.00    +0.000 A 
ATOM      4  C   UNL     1       1.425  10.007  18.792  0.00  0.00    +0.000 A 
ATOM      5  C   UNL     1       1.396  11.382  18.623  0.00  0.00    +0.000 A 
ATOM      6  C   UNL     1       1.064  12.166  19.721  0.00  0.00    +0.000 A 
ATOM      7  C   UNL     1       0.679  11.563  20.926  0.00  0.00    +0.000 A 
ATOM      8  C   UNL     1       0.681  10.162  21.080  0.00  0.00    +0.000 A 
ATOM      9  C   UNL     1       1.778   8.971  17.769  0.00  0.00    +0.000 C 
ENDROOT
BRANCH   1  14
ATOM     10  C   UNL     1       3.008   4.277  17.553  0.00  0.00    +0.000 A 
ATOM     11  C   UNL     1       4.262   4.527  16.987  0.00  0.00    +0.000 A 
ATOM     12  C   UNL     1       4.788   5.817  16.987  0.00  0.00    +0.000 A 
ATOM     13  C   UNL     1       4.072   6.866  17.571  0.00  0.00    +0.000 A 
ATOM     14  C   UNL     1       2.824   6.646  18.163  0.00  0.00    +0.000 A 
ATOM     15  C   UNL     1       2.295   5.344  18.134  0.00  0.00    +0.000 A 
BRANCH  10  17
ATOM     16  C   UNL     1       3.400   1.888  18.193  0.00  0.00    +0.000 C 
ATOM     17  C   UNL     1       2.435   2.878  17.556  0.00  0.00    +0.000 C 
ATOM     18  F   UNL     1       1.253   2.799  18.237  0.00  0.00    +0.000 F 
ENDBRANCH  10  17
ENDBRANCH   1  14
BRANCH   8  19
ATOM     19  C   UNL     1       0.147   9.591  22.371  0.00  0.00    +0.000 C 
ATOM     20  F   UNL     1      -0.697   8.532  22.227  0.00  0.00    +0.000 F 
ATOM     21  F   UNL     1       1.133   9.171  23.212  0.00  0.00    +0.000 F 
ATOM     22  F   UNL     1      -0.560  10.522  23.079  0.00  0.00    +0.000 F 
ENDBRANCH   8  19
TORSDOF 3
ENDMDL
MODEL 8
REMARK VINA RESULT:      -8.1      4.045      5.617
REMARK  Name = 
REMARK  4 active torsions:
REMARK  status: ('A' for Active; 'I' for Inactive)
REMARK    1  A    between atoms: C_1  and  C_2
REMARK    2  A    between atoms: C_2  and  C_4
REMARK    3  A    between atoms: C_8  and  C_9
REMARK    4  A    between atoms: C_16  and  C_17
REMARK                            x       y       z     vdW  Elec       q    Type
REMARK                         _______ _______ _______ _____ _____    ______ ____
ROOT
ATOM      1  C   UNL     1       2.101   7.794  19.121  0.00  0.00    +0.000 C 
ATOM      2  C   UNL     1       1.560   8.017  20.337  0.00  0.00    +0.000 C 
ATOM      3  C   UNL     1       0.939   9.343  20.331  0.00  0.00    +0.000 A 
ATOM      4  C   UNL     1       1.186   9.915  19.072  0.00  0.00    +0.000 A 
ATOM      5  C   UNL     1       0.973  11.258  18.809  0.00  0.00    +0.000 A 
ATOM      6  C   UNL     1       0.482  12.052  19.839  0.00  0.00    +0.000 A 
ATOM      7  C   UNL     1       0.128  11.475  21.066  0.00  0.00    +0.000 A 
ATOM      8  C   UNL     1       0.319  10.101  21.314  0.00  0.00    +0.000 A 
ATOM      9  C   UNL     1       1.730   8.879  18.136  0.00  0.00    +0.000 C 
ENDROOT
BRANCH   1  14
ATOM     10  C   UNL     1       4.764   5.907  17.165  0.00  0.00    +0.000 A 
ATOM     11  C   UNL     1       5.094   4.903  18.081  0.00  0.00    +0.000 A 
ATOM     12  C   UNL     1       4.443   4.832  19.311  0.00  0.00    +0.000 A 
ATOM     13  C   UNL     1       3.440   5.753  19.627  0.00  0.00    +0.000 A 
ATOM     14  C   UNL     1       3.072   6.757  18.726  0.00  0.00    +0.000 A 
ATOM     15  C   UNL     1       3.755   6.832  17.499  0.00  0.00    +0.000 A 
BRANCH  10  17
ATOM     16  C   UNL     1       5.479   4.632  15.131  0.00  0.00    +0.000 C 
ATOM     17  C   UNL     1       5.467   5.985  15.829  0.00  0.00    +0.000 C 
ATOM     18  F   UNL     1       4.881   6.883  14.982  0.00  0.00    +0.000 F 
ENDBRANCH  10  17
ENDBRANCH   1  14
BRANCH   8  19
ATOM     19  C   UNL     1      -0.191   9.539  22.618  0.00  0.00    +0.000 C 
ATOM     20  F   UNL     1       0.774   9.172  23.506  0.00  0.00    +0.000 F 
ATOM     21  F   UNL     1      -1.004  10.406  23.286  0.00  0.00    +0.000 F 
ATOM     22  F   UNL     1      -0.946   8.416  22.422  0.00  0.00    +0.000 F 
ENDBRANCH   8  19
TORSDOF 3
ENDMDL
MODEL 9
REMARK VINA RESULT:      -8.1      3.859      5.960
REMARK  Name = 
REMARK  4 active torsions:
REMARK  status: ('A' for Active; 'I' for Inactive)
REMARK    1  A    between atoms: C_1  and  C_2
REMARK    2  A    between atoms: C_2  and  C_4
REMARK    3  A    between atoms: C_8  and  C_9
REMARK    4  A    between atoms: C_16  and  C_17
REMARK                            x       y       z     vdW  Elec       q    Type
REMARK                         _______ _______ _______ _____ _____    ______ ____
ROOT
ATOM      1  C   UNL     1       1.967   7.666  18.807  0.00  0.00    +0.000 C 
ATOM      2  C   UNL     1       1.525   7.941  20.053  0.00  0.00    +0.000 C 
ATOM      3  C   UNL     1       1.130   9.350  20.103  0.00  0.00    +0.000 A 
ATOM      4  C   UNL     1       1.410   9.908  18.844  0.00  0.00    +0.000 A 
ATOM      5  C   UNL     1       1.407  11.275  18.618  0.00  0.00    +0.000 A 
ATOM      6  C   UNL     1       1.099  12.109  19.685  0.00  0.00    +0.000 A 
ATOM      7  C   UNL     1       0.711  11.564  20.918  0.00  0.00    +0.000 A 
ATOM      8  C   UNL     1       0.687  10.171  21.129  0.00  0.00    +0.000 A 
ATOM      9  C   UNL     1       1.734   8.824  17.863  0.00  0.00    +0.000 C 
ENDROOT
BRANCH   1  14
ATOM     10  C   UNL     1       2.944   4.072  18.031  0.00  0.00    +0.000 A 
ATOM     11  C   UNL     1       4.092   4.276  17.259  0.00  0.00    +0.000 A 
ATOM     12  C   UNL     1       4.551   5.569  17.012  0.00  0.00    +0.000 A 
ATOM     13  C   UNL     1       3.876   6.668  17.553  0.00  0.00    +0.000 A 
ATOM     14  C   UNL     1       2.737   6.496  18.345  0.00  0.00    +0.000 A 
ATOM     15  C   UNL     1       2.271   5.188  18.565  0.00  0.00    +0.000 A 
BRANCH  10  17
ATOM     16  C   UNL     1       0.991   2.680  18.752  0.00  0.00    +0.000 C 
ATOM     17  C   UNL     1       2.445   2.670  18.302  0.00  0.00    +0.000 C 
ATOM     18  F   UNL     1       2.532   1.864  17.202  0.00  0.00    +0.000 F 
ENDBRANCH  10  17
ENDBRANCH   1  14
BRANCH   8  19
ATOM     19  C   UNL     1       0.151   9.664  22.446  0.00  0.00    +0.000 C 
ATOM     20  F   UNL     1       1.094   9.204  23.314  0.00  0.00    +0.000 F 
ATOM     21  F   UNL     1      -0.556  10.609  23.128  0.00  0.00    +0.000 F 
ATOM     22  F   UNL     1      -0.716   8.623  22.269  0.00  0.00    +0.000 F 
ENDBRANCH   8  19
TORSDOF 3
ENDMDL
