MODEL 1
REMARK VINA RESULT:      -7.3      0.000      0.000
REMARK  Name = 
REMARK  8 active torsions:
REMARK  status: ('A' for Active; 'I' for Inactive)
REMARK    1  A    between atoms: C_1  and  C_2
REMARK    2  A    between atoms: C_2  and  C_3
REMARK    3  A    between atoms: C_5  and  C_6
REMARK    4  A    between atoms: C_6  and  C_7
REMARK    5  A    between atoms: C_7  and  C_8
REMARK    6  A    between atoms: N_12  and  C_13
REMARK    7  A    between atoms: C_15  and  N_16
REMARK    8  A    between atoms: C_23  and  C_24
REMARK                            x       y       z     vdW  Elec       q    Type
REMARK                         _______ _______ _______ _____ _____    ______ ____
ROOT
ATOM      1  C   UNL     1      -2.721  11.468  18.108  0.00  0.00    +0.000 A 
ATOM      2  C   UNL     1      -3.770  11.665  19.022  0.00  0.00    +0.000 A 
ATOM      3  C   UNL     1      -3.640  12.586  20.061  0.00  0.00    +0.000 A 
ATOM      4  C   UNL     1      -2.497  13.376  20.115  0.00  0.00    +0.000 A 
ATOM      5  C   UNL     1      -1.351  12.973  19.414  0.00  0.00    +0.000 A 
ATOM      6  C   UNL     1      -1.481  12.079  18.353  0.00  0.00    +0.000 A 
ENDROOT
BRANCH   5   7
ATOM      7  N   UNL     1      -0.087  13.017  20.128  0.00  0.00    +0.000 N 
ATOM      8  C   UNL     1       0.911  12.135  19.454  0.00  0.00    +0.000 C 
ATOM      9  C   UNL     1       0.859  10.865  20.254  0.00  0.00    +0.000 A 
ATOM     10  C   UNL     1       0.338  11.185  21.512  0.00  0.00    +0.000 A 
ATOM     11  C   UNL     1      -0.047  10.226  22.431  0.00  0.00    +0.000 A 
ATOM     12  C   UNL     1       0.066   8.892  22.046  0.00  0.00    +0.000 A 
ATOM     13  C   UNL     1       0.584   8.550  20.784  0.00  0.00    +0.000 A 
ATOM     14  C   UNL     1       1.018   9.534  19.866  0.00  0.00    +0.000 A 
ATOM     15  C   UNL     1      -0.155  12.576  21.471  0.00  0.00    +0.000 C 
ATOM     16  O   UNL     1      -0.681  13.138  22.419  0.00  0.00    +0.000 OA
BRANCH  14  17
ATOM     17  C   UNL     1       1.511   9.107  18.505  0.00  0.00    +0.000 C 
ATOM     18  F   UNL     1       1.952   7.824  18.463  0.00  0.00    +0.000 F 
ATOM     19  F   UNL     1       0.537   9.193  17.551  0.00  0.00    +0.000 F 
ATOM     20  F   UNL     1       2.542   9.871  18.047  0.00  0.00    +0.000 F 
ENDBRANCH  14  17
ENDBRANCH   5   7
BRANCH   1  22
ATOM     21  C   UNL     1      -3.179  11.158  15.666  0.00  0.00    +0.000 C 
ATOM     22  C   UNL     1      -2.885  10.472  16.990  0.00  0.00    +0.000 C 
ENDBRANCH   1  22
BRANCH   3  23
ATOM     23  C   UNL     1      -4.511  12.520  21.289  0.00  0.00    +0.000 C 
BRANCH  23  24
ATOM     24  C   UNL     1      -5.459  13.695  21.498  0.00  0.00    +0.000 C 
BRANCH  24  25
ATOM     25  C   UNL     1      -6.425  13.385  22.591  0.00  0.00    +0.000 A 
ATOM     26  N   UNL     1      -7.060  12.245  22.776  0.00  0.00    +0.000 NA
ATOM     27  N   UNL     1      -7.885  12.388  23.868  0.00  0.00    +0.000 NA
ATOM     28  C   UNL     1      -7.740  13.611  24.322  0.00  0.00    +0.000 A 
ATOM     29  N   UNL     1      -6.840  14.274  23.550  0.00  0.00    +0.000 N 
ATOM     30  C   UNL     1      -6.430  15.642  23.705  0.00  0.00    +0.000 C 
ENDBRANCH  24  25
ENDBRANCH  23  24
ENDBRANCH   3  23
TORSDOF 6
ENDMDL
MODEL 2
REMARK VINA RESULT:      -7.2      4.405      8.295
REMARK  Name = 
REMARK  8 active torsions:
REMARK  status: ('A' for Active; 'I' for Inactive)
REMARK    1  A    between atoms: C_1  and  C_2
REMARK    2  A    between atoms: C_2  and  C_3
REMARK    3  A    between atoms: C_5  and  C_6
REMARK    4  A    between atoms: C_6  and  C_7
REMARK    5  A    between atoms: C_7  and  C_8
REMARK    6  A    between atoms: N_12  and  C_13
REMARK    7  A    between atoms: C_15  and  N_16
REMARK    8  A    between atoms: C_23  and  C_24
REMARK                            x       y       z     vdW  Elec       q    Type
REMARK                         _______ _______ _______ _____ _____    ______ ____
ROOT
ATOM      1  C   UNL     1       0.503   9.491  21.688  0.00  0.00    +0.000 A 
ATOM      2  C   UNL     1       1.148   8.338  21.208  0.00  0.00    +0.000 A 
ATOM      3  C   UNL     1       1.719   8.324  19.936  0.00  0.00    +0.000 A 
ATOM      4  C   UNL     1       1.727   9.501  19.194  0.00  0.00    +0.000 A 
ATOM      5  C   UNL     1       0.835  10.529  19.530  0.00  0.00    +0.000 A 
ATOM      6  C   UNL     1       0.289  10.566  20.812  0.00  0.00    +0.000 A 
ENDROOT
BRANCH   5   7
ATOM      7  N   UNL     1       0.090  11.141  18.445  0.00  0.00    +0.000 N 
ATOM      8  C   UNL     1       0.334  12.613  18.424  0.00  0.00    +0.000 C 
ATOM      9  C   UNL     1      -0.855  13.180  19.146  0.00  0.00    +0.000 A 
ATOM     10  C   UNL     1      -1.877  12.227  19.079  0.00  0.00    +0.000 A 
ATOM     11  C   UNL     1      -3.043  12.324  19.817  0.00  0.00    +0.000 A 
ATOM     12  C   UNL     1      -3.160  13.408  20.684  0.00  0.00    +0.000 A 
ATOM     13  C   UNL     1      -2.141  14.374  20.768  0.00  0.00    +0.000 A 
ATOM     14  C   UNL     1      -0.972  14.294  19.979  0.00  0.00    +0.000 A 
ATOM     15  C   UNL     1      -1.314  10.978  18.531  0.00  0.00    +0.000 C 
ATOM     16  O   UNL     1      -1.961   9.956  18.367  0.00  0.00    +0.000 OA
BRANCH  14  17
ATOM     17  C   UNL     1       0.111  15.330  20.156  0.00  0.00    +0.000 C 
ATOM     18  F   UNL     1       0.521  15.894  18.991  0.00  0.00    +0.000 F 
ATOM     19  F   UNL     1      -0.292  16.369  20.946  0.00  0.00    +0.000 F 
ATOM     20  F   UNL     1       1.233  14.834  20.746  0.00  0.00    +0.000 F 
ENDBRANCH  14  17
ENDBRANCH   5   7
BRANCH   1  22
ATOM     21  C   UNL     1      -1.150  10.573  23.226  0.00  0.00    +0.000 C 
ATOM     22  C   UNL     1      -0.102   9.484  23.068  0.00  0.00    +0.000 C 
ENDBRANCH   1  22
BRANCH   3  23
ATOM     23  C   UNL     1       2.014   7.034  19.217  0.00  0.00    +0.000 C 
BRANCH  23  24
ATOM     24  C   UNL     1       2.192   5.804  20.098  0.00  0.00    +0.000 C 
BRANCH  24  25
ATOM     25  C   UNL     1       1.859   4.570  19.329  0.00  0.00    +0.000 A 
ATOM     26  N   UNL     1       1.827   4.450  18.018  0.00  0.00    +0.000 NA
ATOM     27  N   UNL     1       1.435   3.165  17.716  0.00  0.00    +0.000 NA
ATOM     28  C   UNL     1       1.232   2.533  18.848  0.00  0.00    +0.000 A 
ATOM     29  N   UNL     1       1.479   3.375  19.884  0.00  0.00    +0.000 N 
ATOM     30  C   UNL     1       1.342   3.068  21.281  0.00  0.00    +0.000 C 
ENDBRANCH  24  25
ENDBRANCH  23  24
ENDBRANCH   3  23
TORSDOF 6
ENDMDL
MODEL 3
REMARK VINA RESULT:      -7.1      3.113      4.037
REMARK  Name = 
REMARK  8 active torsions:
REMARK  status: ('A' for Active; 'I' for Inactive)
REMARK    1  A    between atoms: C_1  and  C_2
REMARK    2  A    between atoms: C_2  and  C_3
REMARK    3  A    between atoms: C_5  and  C_6
REMARK    4  A    between atoms: C_6  and  C_7
REMARK    5  A    between atoms: C_7  and  C_8
REMARK    6  A    between atoms: N_12  and  C_13
REMARK    7  A    between atoms: C_15  and  N_16
REMARK    8  A    between atoms: C_23  and  C_24
REMARK                            x       y       z     vdW  Elec       q    Type
REMARK                         _______ _______ _______ _____ _____    ______ ____
ROOT
ATOM      1  C   UNL     1      -2.921  10.547  17.353  0.00  0.00    +0.000 A 
ATOM      2  C   UNL     1      -4.051  11.182  17.896  0.00  0.00    +0.000 A 
ATOM      3  C   UNL     1      -3.937  11.977  19.036  0.00  0.00    +0.000 A 
ATOM      4  C   UNL     1      -2.672  12.212  19.563  0.00  0.00    +0.000 A 
ATOM      5  C   UNL     1      -1.617  11.353  19.223  0.00  0.00    +0.000 A 
ATOM      6  C   UNL     1      -1.713  10.581  18.067  0.00  0.00    +0.000 A 
ENDROOT
BRANCH   5   7
ATOM      7  N   UNL     1      -0.780  10.870  20.307  0.00  0.00    +0.000 N 
ATOM      8  C   UNL     1      -1.086  11.619  21.561  0.00  0.00    +0.000 C 
ATOM      9  C   UNL     1      -0.015  12.670  21.616  0.00  0.00    +0.000 A 
ATOM     10  C   UNL     1       1.050  12.224  20.827  0.00  0.00    +0.000 A 
ATOM     11  C   UNL     1       2.117  13.032  20.479  0.00  0.00    +0.000 A 
ATOM     12  C   UNL     1       2.085  14.354  20.917  0.00  0.00    +0.000 A 
ATOM     13  C   UNL     1       1.021  14.823  21.708  0.00  0.00    +0.000 A 
ATOM     14  C   UNL     1      -0.045  13.980  22.098  0.00  0.00    +0.000 A 
ATOM     15  C   UNL     1       0.611  11.024  20.087  0.00  0.00    +0.000 C 
ATOM     16  O   UNL     1       1.318  10.414  19.302  0.00  0.00    +0.000 OA
BRANCH  14  17
ATOM     17  C   UNL     1      -1.187  14.556  22.900  0.00  0.00    +0.000 C 
ATOM     18  F   UNL     1      -0.924  15.782  23.419  0.00  0.00    +0.000 F 
ATOM     19  F   UNL     1      -2.319  14.708  22.151  0.00  0.00    +0.000 F 
ATOM     20  F   UNL     1      -1.546  13.773  23.954  0.00  0.00    +0.000 F 
ENDBRANCH  14  17
ENDBRANCH   5   7
BRANCH   1  22
ATOM     21  C   UNL     1      -3.127  10.542  14.858  0.00  0.00    +0.000 C 
ATOM     22  C   UNL     1      -3.068   9.696  16.118  0.00  0.00    +0.000 C 
ENDBRANCH   1  22
BRANCH   3  23
ATOM     23  C   UNL     1      -5.132  12.304  19.894  0.00  0.00    +0.000 C 
BRANCH  23  24
ATOM     24  C   UNL     1      -4.965  13.480  20.849  0.00  0.00    +0.000 C 
BRANCH  24  25
ATOM     25  C   UNL     1      -5.291  13.058  22.242  0.00  0.00    +0.000 A 
ATOM     26  N   UNL     1      -4.484  12.447  23.084  0.00  0.00    +0.000 NA
ATOM     27  N   UNL     1      -5.184  12.199  24.243  0.00  0.00    +0.000 NA
ATOM     28  C   UNL     1      -6.402  12.659  24.081  0.00  0.00    +0.000 A 
ATOM     29  N   UNL     1      -6.517  13.200  22.840  0.00  0.00    +0.000 N 
ATOM     30  C   UNL     1      -7.702  13.781  22.273  0.00  0.00    +0.000 C 
ENDBRANCH  24  25
ENDBRANCH  23  24
ENDBRANCH   3  23
TORSDOF 6
ENDMDL
MODEL 4
REMARK VINA RESULT:      -7.0      4.501      8.587
REMARK  Name = 
REMARK  8 active torsions:
REMARK  status: ('A' for Active; 'I' for Inactive)
REMARK    1  A    between atoms: C_1  and  C_2
REMARK    2  A    between atoms: C_2  and  C_3
REMARK    3  A    between atoms: C_5  and  C_6
REMARK    4  A    between atoms: C_6  and  C_7
REMARK    5  A    between atoms: C_7  and  C_8
REMARK    6  A    between atoms: N_12  and  C_13
REMARK    7  A    between atoms: C_15  and  N_16
REMARK    8  A    between atoms: C_23  and  C_24
REMARK                            x       y       z     vdW  Elec       q    Type
REMARK                         _______ _______ _______ _____ _____    ______ ____
ROOT
ATOM      1  C   UNL     1       0.538   9.450  21.847  0.00  0.00    +0.000 A 
ATOM      2  C   UNL     1       1.157   8.251  21.455  0.00  0.00    +0.000 A 
ATOM      3  C   UNL     1       1.757   8.141  20.201  0.00  0.00    +0.000 A 
ATOM      4  C   UNL     1       1.820   9.268  19.389  0.00  0.00    +0.000 A 
ATOM      5  C   UNL     1       0.953  10.342  19.638  0.00  0.00    +0.000 A 
ATOM      6  C   UNL     1       0.378  10.475  20.900  0.00  0.00    +0.000 A 
ENDROOT
BRANCH   5   7
ATOM      7  N   UNL     1       0.253  10.907  18.498  0.00  0.00    +0.000 N 
ATOM      8  C   UNL     1       0.541  12.367  18.395  0.00  0.00    +0.000 C 
ATOM      9  C   UNL     1      -0.648  13.010  19.050  0.00  0.00    +0.000 A 
ATOM     10  C   UNL     1      -1.696  12.084  19.013  0.00  0.00    +0.000 A 
ATOM     11  C   UNL     1      -2.876  12.258  19.714  0.00  0.00    +0.000 A 
ATOM     12  C   UNL     1      -2.983  13.396  20.510  0.00  0.00    +0.000 A 
ATOM     13  C   UNL     1      -1.939  14.337  20.563  0.00  0.00    +0.000 A 
ATOM     14  C   UNL     1      -0.753  14.176  19.811  0.00  0.00    +0.000 A 
ATOM     15  C   UNL     1      -1.157  10.788  18.557  0.00  0.00    +0.000 C 
ATOM     16  O   UNL     1      -1.829   9.776  18.438  0.00  0.00    +0.000 OA
BRANCH  14  17
ATOM     17  C   UNL     1       0.355  15.190  19.953  0.00  0.00    +0.000 C 
ATOM     18  F   UNL     1      -0.002  16.292  20.662  0.00  0.00    +0.000 F 
ATOM     19  F   UNL     1       1.446  14.677  20.596  0.00  0.00    +0.000 F 
ATOM     20  F   UNL     1       0.817  15.648  18.756  0.00  0.00    +0.000 F 
ENDBRANCH  14  17
ENDBRANCH   5   7
BRANCH   1  22
ATOM     21  C   UNL     1      -1.150  10.644  23.258  0.00  0.00    +0.000 C 
ATOM     22  C   UNL     1      -0.100   9.548  23.208  0.00  0.00    +0.000 C 
ENDBRANCH   1  22
BRANCH   3  23
ATOM     23  C   UNL     1       2.028   6.800  19.570  0.00  0.00    +0.000 C 
BRANCH  23  24
ATOM     24  C   UNL     1       1.753   5.583  20.445  0.00  0.00    +0.000 C 
BRANCH  24  25
ATOM     25  C   UNL     1       2.769   4.523  20.181  0.00  0.00    +0.000 A 
ATOM     26  N   UNL     1       3.827   4.628  19.403  0.00  0.00    +0.000 NA
ATOM     27  N   UNL     1       4.478   3.415  19.401  0.00  0.00    +0.000 NA
ATOM     28  C   UNL     1       3.801   2.597  20.171  0.00  0.00    +0.000 A 
ATOM     29  N   UNL     1       2.719   3.245  20.676  0.00  0.00    +0.000 N 
ATOM     30  C   UNL     1       1.718   2.683  21.540  0.00  0.00    +0.000 C 
ENDBRANCH  24  25
ENDBRANCH  23  24
ENDBRANCH   3  23
TORSDOF 6
ENDMDL
MODEL 5
REMARK VINA RESULT:      -7.0      3.709      7.455
REMARK  Name = 
REMARK  8 active torsions:
REMARK  status: ('A' for Active; 'I' for Inactive)
REMARK    1  A    between atoms: C_1  and  C_2
REMARK    2  A    between atoms: C_2  and  C_3
REMARK    3  A    between atoms: C_5  and  C_6
REMARK    4  A    between atoms: C_6  and  C_7
REMARK    5  A    between atoms: C_7  and  C_8
REMARK    6  A    between atoms: N_12  and  C_13
REMARK    7  A    between atoms: C_15  and  N_16
REMARK    8  A    between atoms: C_23  and  C_24
REMARK                            x       y       z     vdW  Elec       q    Type
REMARK                         _______ _______ _______ _____ _____    ______ ____
ROOT
ATOM      1  C   UNL     1      -3.747  11.400  17.477  0.00  0.00    +0.000 A 
ATOM      2  C   UNL     1      -2.402  11.401  17.885  0.00  0.00    +0.000 A 
ATOM      3  C   UNL     1      -2.047  11.873  19.148  0.00  0.00    +0.000 A 
ATOM      4  C   UNL     1      -3.054  12.245  20.031  0.00  0.00    +0.000 A 
ATOM      5  C   UNL     1      -4.332  12.534  19.531  0.00  0.00    +0.000 A 
ATOM      6  C   UNL     1      -4.704  12.036  18.283  0.00  0.00    +0.000 A 
ENDROOT
BRANCH   5   7
ATOM      7  N   UNL     1      -4.973  13.746  20.008  0.00  0.00    +0.000 N 
ATOM      8  C   UNL     1      -4.488  14.074  21.381  0.00  0.00    +0.000 C 
ATOM      9  C   UNL     1      -5.561  13.525  22.276  0.00  0.00    +0.000 A 
ATOM     10  C   UNL     1      -6.728  13.417  21.512  0.00  0.00    +0.000 A 
ATOM     11  C   UNL     1      -7.857  12.751  21.955  0.00  0.00    +0.000 A 
ATOM     12  C   UNL     1      -7.787  12.140  23.204  0.00  0.00    +0.000 A 
ATOM     13  C   UNL     1      -6.621  12.233  23.986  0.00  0.00    +0.000 A 
ATOM     14  C   UNL     1      -5.487  12.953  23.547  0.00  0.00    +0.000 A 
ATOM     15  C   UNL     1      -6.384  13.668  20.098  0.00  0.00    +0.000 C 
ATOM     16  O   UNL     1      -7.193  13.630  19.185  0.00  0.00    +0.000 OA
BRANCH  14  17
ATOM     17  C   UNL     1      -4.246  12.969  24.406  0.00  0.00    +0.000 C 
ATOM     18  F   UNL     1      -3.176  12.364  23.829  0.00  0.00    +0.000 F 
ATOM     19  F   UNL     1      -3.836  14.240  24.698  0.00  0.00    +0.000 F 
ATOM     20  F   UNL     1      -4.420  12.354  25.609  0.00  0.00    +0.000 F 
ENDBRANCH  14  17
ENDBRANCH   5   7
BRANCH   1  22
ATOM     21  C   UNL     1      -2.873  10.543  15.293  0.00  0.00    +0.000 C 
ATOM     22  C   UNL     1      -4.108  10.881  16.109  0.00  0.00    +0.000 C 
ENDBRANCH   1  22
BRANCH   3  23
ATOM     23  C   UNL     1      -0.638  12.305  19.463  0.00  0.00    +0.000 C 
BRANCH  23  24
ATOM     24  C   UNL     1       0.152  11.386  20.387  0.00  0.00    +0.000 C 
BRANCH  24  25
ATOM     25  C   UNL     1       0.888  10.365  19.586  0.00  0.00    +0.000 A 
ATOM     26  N   UNL     1       1.336  10.509  18.355  0.00  0.00    +0.000 NA
ATOM     27  N   UNL     1       1.917   9.322  17.971  0.00  0.00    +0.000 NA
ATOM     28  C   UNL     1       1.806   8.480  18.971  0.00  0.00    +0.000 A 
ATOM     29  N   UNL     1       1.163   9.087  20.001  0.00  0.00    +0.000 N 
ATOM     30  C   UNL     1       0.824   8.489  21.263  0.00  0.00    +0.000 C 
ENDBRANCH  24  25
ENDBRANCH  23  24
ENDBRANCH   3  23
TORSDOF 6
ENDMDL
MODEL 6
REMARK VINA RESULT:      -7.0      3.663      7.009
REMARK  Name = 
REMARK  8 active torsions:
REMARK  status: ('A' for Active; 'I' for Inactive)
REMARK    1  A    between atoms: C_1  and  C_2
REMARK    2  A    between atoms: C_2  and  C_3
REMARK    3  A    between atoms: C_5  and  C_6
REMARK    4  A    between atoms: C_6  and  C_7
REMARK    5  A    between atoms: C_7  and  C_8
REMARK    6  A    between atoms: N_12  and  C_13
REMARK    7  A    between atoms: C_15  and  N_16
REMARK    8  A    between atoms: C_23  and  C_24
REMARK                            x       y       z     vdW  Elec       q    Type
REMARK                         _______ _______ _______ _____ _____    ______ ____
ROOT
ATOM      1  C   UNL     1      -3.814  11.370  17.337  0.00  0.00    +0.000 A 
ATOM      2  C   UNL     1      -2.532  11.511  17.895  0.00  0.00    +0.000 A 
ATOM      3  C   UNL     1      -2.373  12.021  19.184  0.00  0.00    +0.000 A 
ATOM      4  C   UNL     1      -3.508  12.290  19.941  0.00  0.00    +0.000 A 
ATOM      5  C   UNL     1      -4.743  12.444  19.295  0.00  0.00    +0.000 A 
ATOM      6  C   UNL     1      -4.917  11.906  18.021  0.00  0.00    +0.000 A 
ENDROOT
BRANCH   5   7
ATOM      7  N   UNL     1      -5.554  13.585  19.679  0.00  0.00    +0.000 N 
ATOM      8  C   UNL     1      -4.938  14.280  20.847  0.00  0.00    +0.000 C 
ATOM      9  C   UNL     1      -5.698  13.738  22.023  0.00  0.00    +0.000 A 
ATOM     10  C   UNL     1      -6.919  13.253  21.543  0.00  0.00    +0.000 A 
ATOM     11  C   UNL     1      -7.780  12.493  22.314  0.00  0.00    +0.000 A 
ATOM     12  C   UNL     1      -7.371  12.182  23.608  0.00  0.00    +0.000 A 
ATOM     13  C   UNL     1      -6.145  12.658  24.108  0.00  0.00    +0.000 A 
ATOM     14  C   UNL     1      -5.290  13.471  23.331  0.00  0.00    +0.000 A 
ATOM     15  C   UNL     1      -6.876  13.262  20.067  0.00  0.00    +0.000 C 
ATOM     16  O   UNL     1      -7.794  12.879  19.359  0.00  0.00    +0.000 OA
BRANCH  14  17
ATOM     17  C   UNL     1      -3.961  13.903  23.902  0.00  0.00    +0.000 C 
ATOM     18  F   UNL     1      -3.769  13.512  25.188  0.00  0.00    +0.000 F 
ATOM     19  F   UNL     1      -2.906  13.392  23.200  0.00  0.00    +0.000 F 
ATOM     20  F   UNL     1      -3.790  15.254  23.891  0.00  0.00    +0.000 F 
ENDBRANCH  14  17
ENDBRANCH   5   7
BRANCH   1  22
ATOM     21  C   UNL     1      -2.778   9.943  15.560  0.00  0.00    +0.000 C 
ATOM     22  C   UNL     1      -3.963  10.813  15.946  0.00  0.00    +0.000 C 
ENDBRANCH   1  22
BRANCH   3  23
ATOM     23  C   UNL     1      -1.061  12.597  19.649  0.00  0.00    +0.000 C 
BRANCH  23  24
ATOM     24  C   UNL     1      -0.573  12.128  21.014  0.00  0.00    +0.000 C 
BRANCH  24  25
ATOM     25  C   UNL     1       0.083  10.794  20.892  0.00  0.00    +0.000 A 
ATOM     26  N   UNL     1       0.718  10.327  19.837  0.00  0.00    +0.000 NA
ATOM     27  N   UNL     1       1.136   9.046  20.122  0.00  0.00    +0.000 NA
ATOM     28  C   UNL     1       0.742   8.759  21.340  0.00  0.00    +0.000 A 
ATOM     29  N   UNL     1       0.073   9.821  21.859  0.00  0.00    +0.000 N 
ATOM     30  C   UNL     1      -0.539   9.888  23.158  0.00  0.00    +0.000 C 
ENDBRANCH  24  25
ENDBRANCH  23  24
ENDBRANCH   3  23
TORSDOF 6
ENDMDL
MODEL 7
REMARK VINA RESULT:      -7.0      4.258      8.187
REMARK  Name = 
REMARK  8 active torsions:
REMARK  status: ('A' for Active; 'I' for Inactive)
REMARK    1  A    between atoms: C_1  and  C_2
REMARK    2  A    between atoms: C_2  and  C_3
REMARK    3  A    between atoms: C_5  and  C_6
REMARK    4  A    between atoms: C_6  and  C_7
REMARK    5  A    between atoms: C_7  and  C_8
REMARK    6  A    between atoms: N_12  and  C_13
REMARK    7  A    between atoms: C_15  and  N_16
REMARK    8  A    between atoms: C_23  and  C_24
REMARK                            x       y       z     vdW  Elec       q    Type
REMARK                         _______ _______ _______ _____ _____    ______ ____
ROOT
ATOM      1  C   UNL     1       0.921   9.422  21.146  0.00  0.00    +0.000 A 
ATOM      2  C   UNL     1       1.470   8.376  20.384  0.00  0.00    +0.000 A 
ATOM      3  C   UNL     1       1.800   8.575  19.044  0.00  0.00    +0.000 A 
ATOM      4  C   UNL     1       1.671   9.851  18.506  0.00  0.00    +0.000 A 
ATOM      5  C   UNL     1       0.853  10.789  19.153  0.00  0.00    +0.000 A 
ATOM      6  C   UNL     1       0.549  10.612  20.501  0.00  0.00    +0.000 A 
ENDROOT
BRANCH   5   7
ATOM      7  N   UNL     1      -0.079  11.537  18.329  0.00  0.00    +0.000 N 
ATOM      8  C   UNL     1       0.170  13.001  18.477  0.00  0.00    +0.000 C 
ATOM      9  C   UNL     1      -0.855  13.435  19.485  0.00  0.00    +0.000 A 
ATOM     10  C   UNL     1      -1.880  12.483  19.473  0.00  0.00    +0.000 A 
ATOM     11  C   UNL     1      -2.884  12.450  20.424  0.00  0.00    +0.000 A 
ATOM     12  C   UNL     1      -2.826  13.394  21.446  0.00  0.00    +0.000 A 
ATOM     13  C   UNL     1      -1.801  14.357  21.477  0.00  0.00    +0.000 A 
ATOM     14  C   UNL     1      -0.803  14.414  20.478  0.00  0.00    +0.000 A 
ATOM     15  C   UNL     1      -1.442  11.336  18.653  0.00  0.00    +0.000 C 
ATOM     16  O   UNL     1      -2.118  10.337  18.467  0.00  0.00    +0.000 OA
BRANCH  14  17
ATOM     17  C   UNL     1       0.303  15.434  20.597  0.00  0.00    +0.000 C 
ATOM     18  F   UNL     1       0.097  16.349  21.577  0.00  0.00    +0.000 F 
ATOM     19  F   UNL     1       1.510  14.857  20.878  0.00  0.00    +0.000 F 
ATOM     20  F   UNL     1       0.496  16.148  19.453  0.00  0.00    +0.000 F 
ENDBRANCH  14  17
ENDBRANCH   5   7
BRANCH   1  22
ATOM     21  C   UNL     1      -0.603  10.033  23.036  0.00  0.00    +0.000 C 
ATOM     22  C   UNL     1       0.577   9.185  22.594  0.00  0.00    +0.000 C 
ENDBRANCH   1  22
BRANCH   3  23
ATOM     23  C   UNL     1       1.962   7.420  18.090  0.00  0.00    +0.000 C 
BRANCH  23  24
ATOM     24  C   UNL     1       2.887   6.300  18.550  0.00  0.00    +0.000 C 
BRANCH  24  25
ATOM     25  C   UNL     1       2.147   5.005  18.578  0.00  0.00    +0.000 A 
ATOM     26  N   UNL     1       1.632   4.374  17.542  0.00  0.00    +0.000 NA
ATOM     27  N   UNL     1       0.999   3.242  18.003  0.00  0.00    +0.000 NA
ATOM     28  C   UNL     1       1.137   3.210  19.307  0.00  0.00    +0.000 A 
ATOM     29  N   UNL     1       1.843   4.297  19.713  0.00  0.00    +0.000 N 
ATOM     30  C   UNL     1       2.178   4.636  21.068  0.00  0.00    +0.000 C 
ENDBRANCH  24  25
ENDBRANCH  23  24
ENDBRANCH   3  23
TORSDOF 6
ENDMDL
MODEL 8
REMARK VINA RESULT:      -7.0      4.005      7.585
REMARK  Name = 
REMARK  8 active torsions:
REMARK  status: ('A' for Active; 'I' for Inactive)
REMARK    1  A    between atoms: C_1  and  C_2
REMARK    2  A    between atoms: C_2  and  C_3
REMARK    3  A    between atoms: C_5  and  C_6
REMARK    4  A    between atoms: C_6  and  C_7
REMARK    5  A    between atoms: C_7  and  C_8
REMARK    6  A    between atoms: N_12  and  C_13
REMARK    7  A    between atoms: C_15  and  N_16
REMARK    8  A    between atoms: C_23  and  C_24
REMARK                            x       y       z     vdW  Elec       q    Type
REMARK                         _______ _______ _______ _____ _____    ______ ____
ROOT
ATOM      1  C   UNL     1      -1.423  11.455  22.887  0.00  0.00    +0.000 A 
ATOM      2  C   UNL     1      -0.801  10.195  22.846  0.00  0.00    +0.000 A 
ATOM      3  C   UNL     1       0.295   9.974  22.013  0.00  0.00    +0.000 A 
ATOM      4  C   UNL     1       0.823  11.047  21.303  0.00  0.00    +0.000 A 
ATOM      5  C   UNL     1       0.036  12.191  21.105  0.00  0.00    +0.000 A 
ATOM      6  C   UNL     1      -1.040  12.434  21.957  0.00  0.00    +0.000 A 
ENDROOT
BRANCH   5   7
ATOM      7  N   UNL     1      -0.011  12.740  19.762  0.00  0.00    +0.000 N 
ATOM      8  C   UNL     1      -1.378  13.264  19.472  0.00  0.00    +0.000 C 
ATOM      9  C   UNL     1      -2.029  12.149  18.705  0.00  0.00    +0.000 A 
ATOM     10  C   UNL     1      -1.007  11.365  18.160  0.00  0.00    +0.000 A 
ATOM     11  C   UNL     1      -1.239  10.135  17.571  0.00  0.00    +0.000 A 
ATOM     12  C   UNL     1      -2.550   9.666  17.567  0.00  0.00    +0.000 A 
ATOM     13  C   UNL     1      -3.591  10.439  18.113  0.00  0.00    +0.000 A 
ATOM     14  C   UNL     1      -3.355  11.715  18.674  0.00  0.00    +0.000 A 
ATOM     15  C   UNL     1       0.277  11.808  18.736  0.00  0.00    +0.000 C 
ATOM     16  O   UNL     1       1.354  11.301  18.465  0.00  0.00    +0.000 OA
BRANCH  14  17
ATOM     17  C   UNL     1      -4.504  12.472  19.296  0.00  0.00    +0.000 C 
ATOM     18  F   UNL     1      -4.114  13.534  20.046  0.00  0.00    +0.000 F 
ATOM     19  F   UNL     1      -5.358  12.978  18.357  0.00  0.00    +0.000 F 
ATOM     20  F   UNL     1      -5.272  11.699  20.113  0.00  0.00    +0.000 F 
ENDBRANCH  14  17
ENDBRANCH   5   7
BRANCH   1  22
ATOM     21  C   UNL     1      -3.602  12.647  23.200  0.00  0.00    +0.000 C 
ATOM     22  C   UNL     1      -2.602  11.672  23.799  0.00  0.00    +0.000 C 
ENDBRANCH   1  22
BRANCH   3  23
ATOM     23  C   UNL     1       0.707   8.584  21.601  0.00  0.00    +0.000 C 
BRANCH  23  24
ATOM     24  C   UNL     1       1.476   8.478  20.289  0.00  0.00    +0.000 C 
BRANCH  24  25
ATOM     25  C   UNL     1       1.927   7.072  20.074  0.00  0.00    +0.000 A 
ATOM     26  N   UNL     1       1.697   6.045  20.866  0.00  0.00    +0.000 NA
ATOM     27  N   UNL     1       2.320   4.942  20.328  0.00  0.00    +0.000 NA
ATOM     28  C   UNL     1       2.920   5.321  19.224  0.00  0.00    +0.000 A 
ATOM     29  N   UNL     1       2.707   6.648  19.028  0.00  0.00    +0.000 N 
ATOM     30  C   UNL     1       3.222   7.441  17.947  0.00  0.00    +0.000 C 
ENDBRANCH  24  25
ENDBRANCH  23  24
ENDBRANCH   3  23
TORSDOF 6
ENDMDL
MODEL 9
REMARK VINA RESULT:      -7.0      4.666      8.691
REMARK  Name = 
REMARK  8 active torsions:
REMARK  status: ('A' for Active; 'I' for Inactive)
REMARK    1  A    between atoms: C_1  and  C_2
REMARK    2  A    between atoms: C_2  and  C_3
REMARK    3  A    between atoms: C_5  and  C_6
REMARK    4  A    between atoms: C_6  and  C_7
REMARK    5  A    between atoms: C_7  and  C_8
REMARK    6  A    between atoms: N_12  and  C_13
REMARK    7  A    between atoms: C_15  and  N_16
REMARK    8  A    between atoms: C_23  and  C_24
REMARK                            x       y       z     vdW  Elec       q    Type
REMARK                         _______ _______ _______ _____ _____    ______ ____
ROOT
ATOM      1  C   UNL     1       0.466   8.986  21.851  0.00  0.00    +0.000 A 
ATOM      2  C   UNL     1       0.962   7.697  21.592  0.00  0.00    +0.000 A 
ATOM      3  C   UNL     1       1.695   7.439  20.434  0.00  0.00    +0.000 A 
ATOM      4  C   UNL     1       2.011   8.501  19.593  0.00  0.00    +0.000 A 
ATOM      5  C   UNL     1       1.273   9.690  19.683  0.00  0.00    +0.000 A 
ATOM      6  C   UNL     1       0.567   9.967  20.851  0.00  0.00    +0.000 A 
ENDROOT
BRANCH   5   7
ATOM      7  N   UNL     1       0.805  10.275  18.439  0.00  0.00    +0.000 N 
ATOM      8  C   UNL     1       1.647  11.454  18.080  0.00  0.00    +0.000 C 
ATOM      9  C   UNL     1       0.845  12.624  18.572  0.00  0.00    +0.000 A 
ATOM     10  C   UNL     1      -0.486  12.206  18.673  0.00  0.00    +0.000 A 
ATOM     11  C   UNL     1      -1.465  12.960  19.295  0.00  0.00    +0.000 A 
ATOM     12  C   UNL     1      -1.071  14.167  19.867  0.00  0.00    +0.000 A 
ATOM     13  C   UNL     1       0.263  14.604  19.779  0.00  0.00    +0.000 A 
ATOM     14  C   UNL     1       1.249  13.850  19.104  0.00  0.00    +0.000 A 
ATOM     15  C   UNL     1      -0.531  10.744  18.477  0.00  0.00    +0.000 C 
ATOM     16  O   UNL     1      -1.556  10.083  18.523  0.00  0.00    +0.000 OA
BRANCH  14  17
ATOM     17  C   UNL     1       2.676  14.343  19.093  0.00  0.00    +0.000 C 
ATOM     18  F   UNL     1       3.284  14.221  17.885  0.00  0.00    +0.000 F 
ATOM     19  F   UNL     1       2.768  15.666  19.420  0.00  0.00    +0.000 F 
ATOM     20  F   UNL     1       3.474  13.688  19.982  0.00  0.00    +0.000 F 
ENDBRANCH  14  17
ENDBRANCH   5   7
BRANCH   1  22
ATOM     21  C   UNL     1      -0.986  10.607  23.089  0.00  0.00    +0.000 C 
ATOM     22  C   UNL     1      -0.318   9.242  23.111  0.00  0.00    +0.000 C 
ENDBRANCH   1  22
BRANCH   3  23
ATOM     23  C   UNL     1       1.859   6.041  19.897  0.00  0.00    +0.000 C 
BRANCH  23  24
ATOM     24  C   UNL     1       2.443   5.929  18.494  0.00  0.00    +0.000 C 
BRANCH  24  25
ATOM     25  C   UNL     1       2.567   4.494  18.105  0.00  0.00    +0.000 A 
ATOM     26  N   UNL     1       1.645   3.760  17.516  0.00  0.00    +0.000 NA
ATOM     27  N   UNL     1       2.142   2.485  17.371  0.00  0.00    +0.000 NA
ATOM     28  C   UNL     1       3.352   2.467  17.879  0.00  0.00    +0.000 A 
ATOM     29  N   UNL     1       3.658   3.702  18.355  0.00  0.00    +0.000 N 
ATOM     30  C   UNL     1       4.879   4.082  19.011  0.00  0.00    +0.000 C 
ENDBRANCH  24  25
ENDBRANCH  23  24
ENDBRANCH   3  23
TORSDOF 6
ENDMDL
