MODEL 1
REMARK VINA RESULT:      -8.9      0.000      0.000
REMARK  Name = 
REMARK  5 active torsions:
REMARK  status: ('A' for Active; 'I' for Inactive)
REMARK    1  A    between atoms: C_1  and  O_2
REMARK    2  A    between atoms: O_2  and  C_3
REMARK    3  A    between atoms: C_3  and  C_5
REMARK    4  A    between atoms: C_8  and  C_9
REMARK    5  A    between atoms: C_11  and  C_12
REMARK                            x       y       z     vdW  Elec       q    Type
REMARK                         _______ _______ _______ _____ _____    ______ ____
ROOT
ATOM      1  C   UNL     1       5.287   5.628  17.630  0.00  0.00    +0.000 C 
ATOM      2  C   UNL     1       5.474   5.320  16.150  0.00  0.00    +0.000 C 
ATOM      3  C   UNL     1       6.670   4.916  15.678  0.00  0.00    +0.000 C 
ATOM      4  N   UNL     1       7.754   4.731  16.512  0.00  0.00    +0.000 N 
ATOM      5  C   UNL     1       7.685   4.938  17.845  0.00  0.00    +0.000 A 
ATOM      6  N   UNL     1       8.568   4.840  18.808  0.00  0.00    +0.000 NA
ATOM      7  N   UNL     1       7.910   5.225  19.962  0.00  0.00    +0.000 NA
ATOM      8  N   UNL     1       6.651   5.569  19.711  0.00  0.00    +0.000 NA
ATOM      9  N   UNL     1       6.502   5.350  18.395  0.00  0.00    +0.000 N 
ATOM     10  H   UNL     1       8.636   4.470  16.082  0.00  0.00    +0.000 HD
ENDROOT
BRANCH   1  14
ATOM     11  C   UNL     1       1.844   3.546  19.241  0.00  0.00    +0.000 A 
ATOM     12  C   UNL     1       1.973   4.927  19.435  0.00  0.00    +0.000 A 
ATOM     13  C   UNL     1       3.089   5.601  18.935  0.00  0.00    +0.000 A 
ATOM     14  C   UNL     1       4.090   4.907  18.232  0.00  0.00    +0.000 A 
ATOM     15  C   UNL     1       3.951   3.520  18.048  0.00  0.00    +0.000 A 
ATOM     16  C   UNL     1       2.833   2.846  18.544  0.00  0.00    +0.000 A 
BRANCH  11  17
ATOM     17  C   UNL     1       0.667   2.793  19.733  0.00  0.00    +0.000 C 
ATOM     18  O   UNL     1      -0.043   2.105  19.017  0.00  0.00    +0.000 OA
BRANCH  17  20
ATOM     19  C   UNL     1       1.694   2.479  21.801  0.00  0.00    +0.000 C 
ATOM     20  O   UNL     1       0.553   2.939  21.076  0.00  0.00    +0.000 OA
ENDBRANCH  17  20
ENDBRANCH  11  17
ENDBRANCH   1  14
BRANCH   3  21
ATOM     21  C   UNL     1       6.866   4.713  14.238  0.00  0.00    +0.000 A 
ATOM     22  C   UNL     1       6.153   3.704  13.577  0.00  0.00    +0.000 A 
ATOM     23  C   UNL     1       6.347   3.480  12.213  0.00  0.00    +0.000 A 
ATOM     24  C   UNL     1       7.251   4.264  11.499  0.00  0.00    +0.000 A 
ATOM     25  C   UNL     1       7.960   5.275  12.149  0.00  0.00    +0.000 A 
ATOM     26  C   UNL     1       7.772   5.500  13.515  0.00  0.00    +0.000 A 
ENDBRANCH   3  21
TORSDOF 4
ENDMDL
MODEL 2
REMARK VINA RESULT:      -8.3      0.749      1.150
REMARK  Name = 
REMARK  5 active torsions:
REMARK  status: ('A' for Active; 'I' for Inactive)
REMARK    1  A    between atoms: C_1  and  O_2
REMARK    2  A    between atoms: O_2  and  C_3
REMARK    3  A    between atoms: C_3  and  C_5
REMARK    4  A    between atoms: C_8  and  C_9
REMARK    5  A    between atoms: C_11  and  C_12
REMARK                            x       y       z     vdW  Elec       q    Type
REMARK                         _______ _______ _______ _____ _____    ______ ____
ROOT
ATOM      1  C   UNL     1       5.498   5.602  18.059  0.00  0.00    +0.000 C 
ATOM      2  C   UNL     1       5.506   5.235  16.581  0.00  0.00    +0.000 C 
ATOM      3  C   UNL     1       6.629   4.779  15.991  0.00  0.00    +0.000 C 
ATOM      4  N   UNL     1       7.796   4.594  16.702  0.00  0.00    +0.000 N 
ATOM      5  C   UNL     1       7.888   4.852  18.025  0.00  0.00    +0.000 A 
ATOM      6  N   UNL     1       8.873   4.765  18.884  0.00  0.00    +0.000 NA
ATOM      7  N   UNL     1       8.363   5.211  20.089  0.00  0.00    +0.000 NA
ATOM      8  N   UNL     1       7.091   5.581  19.970  0.00  0.00    +0.000 NA
ATOM      9  N   UNL     1       6.786   5.318  18.690  0.00  0.00    +0.000 N 
ATOM     10  H   UNL     1       8.617   4.293  16.185  0.00  0.00    +0.000 HD
ENDROOT
BRANCH   1  14
ATOM     11  C   UNL     1       2.242   3.645  20.145  0.00  0.00    +0.000 A 
ATOM     12  C   UNL     1       2.155   5.011  19.849  0.00  0.00    +0.000 A 
ATOM     13  C   UNL     1       3.209   5.653  19.194  0.00  0.00    +0.000 A 
ATOM     14  C   UNL     1       4.361   4.939  18.822  0.00  0.00    +0.000 A 
ATOM     15  C   UNL     1       4.438   3.568  19.129  0.00  0.00    +0.000 A 
ATOM     16  C   UNL     1       3.383   2.925  19.779  0.00  0.00    +0.000 A 
BRANCH  11  17
ATOM     17  C   UNL     1       1.140   2.917  20.817  0.00  0.00    +0.000 C 
ATOM     18  O   UNL     1       1.140   2.636  22.004  0.00  0.00    +0.000 OA
BRANCH  17  20
ATOM     19  C   UNL     1       0.579   2.099  18.709  0.00  0.00    +0.000 C 
ATOM     20  O   UNL     1       0.138   2.681  19.935  0.00  0.00    +0.000 OA
ENDBRANCH  17  20
ENDBRANCH  11  17
ENDBRANCH   1  14
BRANCH   3  21
ATOM     21  C   UNL     1       6.651   4.518  14.547  0.00  0.00    +0.000 A 
ATOM     22  C   UNL     1       5.700   3.658  13.984  0.00  0.00    +0.000 A 
ATOM     23  C   UNL     1       5.724   3.377  12.617  0.00  0.00    +0.000 A 
ATOM     24  C   UNL     1       6.696   3.957  11.803  0.00  0.00    +0.000 A 
ATOM     25  C   UNL     1       7.644   4.818  12.356  0.00  0.00    +0.000 A 
ATOM     26  C   UNL     1       7.625   5.099  13.724  0.00  0.00    +0.000 A 
ENDBRANCH   3  21
TORSDOF 4
ENDMDL
MODEL 3
REMARK VINA RESULT:      -8.3      4.241      7.778
REMARK  Name = 
REMARK  5 active torsions:
REMARK  status: ('A' for Active; 'I' for Inactive)
REMARK    1  A    between atoms: C_1  and  O_2
REMARK    2  A    between atoms: O_2  and  C_3
REMARK    3  A    between atoms: C_3  and  C_5
REMARK    4  A    between atoms: C_8  and  C_9
REMARK    5  A    between atoms: C_11  and  C_12
REMARK                            x       y       z     vdW  Elec       q    Type
REMARK                         _______ _______ _______ _____ _____    ______ ____
ROOT
ATOM      1  C   UNL     1       2.328   5.134  18.394  0.00  0.00    +0.000 C 
ATOM      2  C   UNL     1       2.006   6.581  18.745  0.00  0.00    +0.000 C 
ATOM      3  C   UNL     1       1.833   6.955  20.028  0.00  0.00    +0.000 C 
ATOM      4  N   UNL     1       1.974   6.061  21.069  0.00  0.00    +0.000 N 
ATOM      5  C   UNL     1       2.297   4.764  20.871  0.00  0.00    +0.000 A 
ATOM      6  N   UNL     1       2.469   3.754  21.687  0.00  0.00    +0.000 NA
ATOM      7  N   UNL     1       2.745   2.663  20.884  0.00  0.00    +0.000 NA
ATOM      8  N   UNL     1       2.728   2.993  19.596  0.00  0.00    +0.000 NA
ATOM      9  N   UNL     1       2.488   4.313  19.593  0.00  0.00    +0.000 N 
ATOM     10  H   UNL     1       1.784   6.400  22.007  0.00  0.00    +0.000 HD
ENDROOT
BRANCH   1  14
ATOM     11  C   UNL     1       5.732   4.836  15.727  0.00  0.00    +0.000 A 
ATOM     12  C   UNL     1       5.036   3.679  16.096  0.00  0.00    +0.000 A 
ATOM     13  C   UNL     1       3.950   3.765  16.970  0.00  0.00    +0.000 A 
ATOM     14  C   UNL     1       3.541   5.008  17.484  0.00  0.00    +0.000 A 
ATOM     15  C   UNL     1       4.251   6.163  17.109  0.00  0.00    +0.000 A 
ATOM     16  C   UNL     1       5.334   6.078  16.232  0.00  0.00    +0.000 A 
BRANCH  11  17
ATOM     17  C   UNL     1       6.874   4.797  14.784  0.00  0.00    +0.000 C 
ATOM     18  O   UNL     1       7.819   5.567  14.835  0.00  0.00    +0.000 OA
BRANCH  17  20
ATOM     19  C   UNL     1       6.761   4.139  12.552  0.00  0.00    +0.000 C 
ATOM     20  O   UNL     1       6.729   3.757  13.927  0.00  0.00    +0.000 OA
ENDBRANCH  17  20
ENDBRANCH  11  17
ENDBRANCH   1  14
BRANCH   3  21
ATOM     21  C   UNL     1       1.430   8.329  20.349  0.00  0.00    +0.000 A 
ATOM     22  C   UNL     1       1.146   8.676  21.675  0.00  0.00    +0.000 A 
ATOM     23  C   UNL     1       0.735   9.971  21.995  0.00  0.00    +0.000 A 
ATOM     24  C   UNL     1       0.610  10.930  20.992  0.00  0.00    +0.000 A 
ATOM     25  C   UNL     1       0.896  10.593  19.668  0.00  0.00    +0.000 A 
ATOM     26  C   UNL     1       1.304   9.298  19.344  0.00  0.00    +0.000 A 
ENDBRANCH   3  21
TORSDOF 4
ENDMDL
MODEL 4
REMARK VINA RESULT:      -8.3      4.400      5.676
REMARK  Name = 
REMARK  5 active torsions:
REMARK  status: ('A' for Active; 'I' for Inactive)
REMARK    1  A    between atoms: C_1  and  O_2
REMARK    2  A    between atoms: O_2  and  C_3
REMARK    3  A    between atoms: C_3  and  C_5
REMARK    4  A    between atoms: C_8  and  C_9
REMARK    5  A    between atoms: C_11  and  C_12
REMARK                            x       y       z     vdW  Elec       q    Type
REMARK                         _______ _______ _______ _____ _____    ______ ____
ROOT
ATOM      1  C   UNL     1       3.089   6.103  19.360  0.00  0.00    +0.000 C 
ATOM      2  C   UNL     1       4.084   6.017  18.211  0.00  0.00    +0.000 C 
ATOM      3  C   UNL     1       4.143   4.918  17.433  0.00  0.00    +0.000 C 
ATOM      4  N   UNL     1       3.291   3.850  17.621  0.00  0.00    +0.000 N 
ATOM      5  C   UNL     1       2.346   3.839  18.586  0.00  0.00    +0.000 A 
ATOM      6  N   UNL     1       1.454   2.951  18.951  0.00  0.00    +0.000 NA
ATOM      7  N   UNL     1       0.799   3.499  20.038  0.00  0.00    +0.000 NA
ATOM      8  N   UNL     1       1.289   4.696  20.347  0.00  0.00    +0.000 NA
ATOM      9  N   UNL     1       2.228   4.923  19.414  0.00  0.00    +0.000 N 
ATOM     10  H   UNL     1       3.423   3.036  17.029  0.00  0.00    +0.000 HD
ENDROOT
BRANCH   1  14
ATOM     11  C   UNL     1       0.819   9.793  19.229  0.00  0.00    +0.000 A 
ATOM     12  C   UNL     1       0.963   9.109  20.442  0.00  0.00    +0.000 A 
ATOM     13  C   UNL     1       1.677   7.910  20.489  0.00  0.00    +0.000 A 
ATOM     14  C   UNL     1       2.260   7.378  19.325  0.00  0.00    +0.000 A 
ATOM     15  C   UNL     1       2.105   8.072  18.111  0.00  0.00    +0.000 A 
ATOM     16  C   UNL     1       1.395   9.273  18.065  0.00  0.00    +0.000 A 
BRANCH  11  17
ATOM     17  C   UNL     1       0.091  11.080  19.135  0.00  0.00    +0.000 C 
ATOM     18  O   UNL     1       0.607  12.165  19.342  0.00  0.00    +0.000 OA
BRANCH  17  20
ATOM     19  C   UNL     1      -1.714  11.900  17.910  0.00  0.00    +0.000 C 
ATOM     20  O   UNL     1      -1.185  10.859  18.731  0.00  0.00    +0.000 OA
ENDBRANCH  17  20
ENDBRANCH  11  17
ENDBRANCH   1  14
BRANCH   3  21
ATOM     21  C   UNL     1       5.168   4.807  16.388  0.00  0.00    +0.000 A 
ATOM     22  C   UNL     1       6.451   5.317  16.619  0.00  0.00    +0.000 A 
ATOM     23  C   UNL     1       7.430   5.244  15.627  0.00  0.00    +0.000 A 
ATOM     24  C   UNL     1       7.135   4.656  14.398  0.00  0.00    +0.000 A 
ATOM     25  C   UNL     1       5.860   4.140  14.162  0.00  0.00    +0.000 A 
ATOM     26  C   UNL     1       4.877   4.215  15.152  0.00  0.00    +0.000 A 
ENDBRANCH   3  21
TORSDOF 4
ENDMDL
MODEL 5
REMARK VINA RESULT:      -8.3      4.325      5.503
REMARK  Name = 
REMARK  5 active torsions:
REMARK  status: ('A' for Active; 'I' for Inactive)
REMARK    1  A    between atoms: C_1  and  O_2
REMARK    2  A    between atoms: O_2  and  C_3
REMARK    3  A    between atoms: C_3  and  C_5
REMARK    4  A    between atoms: C_8  and  C_9
REMARK    5  A    between atoms: C_11  and  C_12
REMARK                            x       y       z     vdW  Elec       q    Type
REMARK                         _______ _______ _______ _____ _____    ______ ____
ROOT
ATOM      1  C   UNL     1       3.098   6.083  19.316  0.00  0.00    +0.000 C 
ATOM      2  C   UNL     1       4.104   6.019  18.174  0.00  0.00    +0.000 C 
ATOM      3  C   UNL     1       4.172   4.934  17.377  0.00  0.00    +0.000 C 
ATOM      4  N   UNL     1       3.318   3.862  17.538  0.00  0.00    +0.000 N 
ATOM      5  C   UNL     1       2.364   3.834  18.493  0.00  0.00    +0.000 A 
ATOM      6  N   UNL     1       1.468   2.939  18.832  0.00  0.00    +0.000 NA
ATOM      7  N   UNL     1       0.802   3.467  19.922  0.00  0.00    +0.000 NA
ATOM      8  N   UNL     1       1.289   4.658  20.258  0.00  0.00    +0.000 NA
ATOM      9  N   UNL     1       2.237   4.902  19.339  0.00  0.00    +0.000 N 
ATOM     10  H   UNL     1       3.456   3.059  16.932  0.00  0.00    +0.000 HD
ENDROOT
BRANCH   1  14
ATOM     11  C   UNL     1       0.828   9.774  19.225  0.00  0.00    +0.000 A 
ATOM     12  C   UNL     1       0.991   9.089  20.435  0.00  0.00    +0.000 A 
ATOM     13  C   UNL     1       1.705   7.889  20.469  0.00  0.00    +0.000 A 
ATOM     14  C   UNL     1       2.269   7.359  19.295  0.00  0.00    +0.000 A 
ATOM     15  C   UNL     1       2.095   8.054  18.085  0.00  0.00    +0.000 A 
ATOM     16  C   UNL     1       1.385   9.256  18.052  0.00  0.00    +0.000 A 
BRANCH  11  17
ATOM     17  C   UNL     1       0.099  11.061  19.145  0.00  0.00    +0.000 C 
ATOM     18  O   UNL     1       0.617  12.112  18.806  0.00  0.00    +0.000 OA
BRANCH  17  20
ATOM     19  C   UNL     1      -2.038  10.698  18.289  0.00  0.00    +0.000 C 
ATOM     20  O   UNL     1      -1.211  10.869  19.440  0.00  0.00    +0.000 OA
ENDBRANCH  17  20
ENDBRANCH  11  17
ENDBRANCH   1  14
BRANCH   3  21
ATOM     21  C   UNL     1       5.207   4.842  16.341  0.00  0.00    +0.000 A 
ATOM     22  C   UNL     1       4.910   4.228  15.118  0.00  0.00    +0.000 A 
ATOM     23  C   UNL     1       5.890   4.108  14.132  0.00  0.00    +0.000 A 
ATOM     24  C   UNL     1       7.173   4.604  14.359  0.00  0.00    +0.000 A 
ATOM     25  C   UNL     1       7.475   5.221  15.573  0.00  0.00    +0.000 A 
ATOM     26  C   UNL     1       6.498   5.341  16.564  0.00  0.00    +0.000 A 
ENDBRANCH   3  21
TORSDOF 4
ENDMDL
MODEL 6
REMARK VINA RESULT:      -8.2      4.342      5.576
REMARK  Name = 
REMARK  5 active torsions:
REMARK  status: ('A' for Active; 'I' for Inactive)
REMARK    1  A    between atoms: C_1  and  O_2
REMARK    2  A    between atoms: O_2  and  C_3
REMARK    3  A    between atoms: C_3  and  C_5
REMARK    4  A    between atoms: C_8  and  C_9
REMARK    5  A    between atoms: C_11  and  C_12
REMARK                            x       y       z     vdW  Elec       q    Type
REMARK                         _______ _______ _______ _____ _____    ______ ____
ROOT
ATOM      1  C   UNL     1       3.027   5.959  19.552  0.00  0.00    +0.000 C 
ATOM      2  C   UNL     1       4.039   5.917  18.414  0.00  0.00    +0.000 C 
ATOM      3  C   UNL     1       4.102   4.854  17.588  0.00  0.00    +0.000 C 
ATOM      4  N   UNL     1       3.239   3.786  17.715  0.00  0.00    +0.000 N 
ATOM      5  C   UNL     1       2.279   3.739  18.664  0.00  0.00    +0.000 A 
ATOM      6  N   UNL     1       1.375   2.843  18.974  0.00  0.00    +0.000 NA
ATOM      7  N   UNL     1       0.707   3.346  20.075  0.00  0.00    +0.000 NA
ATOM      8  N   UNL     1       1.202   4.523  20.446  0.00  0.00    +0.000 NA
ATOM      9  N   UNL     1       2.156   4.784  19.539  0.00  0.00    +0.000 N 
ATOM     10  H   UNL     1       3.373   2.998  17.088  0.00  0.00    +0.000 HD
ENDROOT
BRANCH   1  14
ATOM     11  C   UNL     1       0.789   9.670  19.558  0.00  0.00    +0.000 A 
ATOM     12  C   UNL     1       0.876   8.910  20.730  0.00  0.00    +0.000 A 
ATOM     13  C   UNL     1       1.580   7.704  20.731  0.00  0.00    +0.000 A 
ATOM     14  C   UNL     1       2.209   7.241  19.562  0.00  0.00    +0.000 A 
ATOM     15  C   UNL     1       2.110   8.011  18.389  0.00  0.00    +0.000 A 
ATOM     16  C   UNL     1       1.411   9.219  18.389  0.00  0.00    +0.000 A 
BRANCH  11  17
ATOM     17  C   UNL     1       0.074  10.967  19.515  0.00  0.00    +0.000 C 
ATOM     18  O   UNL     1      -0.698  11.285  18.625  0.00  0.00    +0.000 OA
BRANCH  17  20
ATOM     19  C   UNL     1       1.425  12.623  20.443  0.00  0.00    +0.000 C 
ATOM     20  O   UNL     1       0.362  11.689  20.626  0.00  0.00    +0.000 OA
ENDBRANCH  17  20
ENDBRANCH  11  17
ENDBRANCH   1  14
BRANCH   3  21
ATOM     21  C   UNL     1       5.142   4.782  16.555  0.00  0.00    +0.000 A 
ATOM     22  C   UNL     1       4.801   4.386  15.256  0.00  0.00    +0.000 A 
ATOM     23  C   UNL     1       5.782   4.286  14.268  0.00  0.00    +0.000 A 
ATOM     24  C   UNL     1       7.109   4.584  14.570  0.00  0.00    +0.000 A 
ATOM     25  C   UNL     1       7.455   4.985  15.861  0.00  0.00    +0.000 A 
ATOM     26  C   UNL     1       6.478   5.083  16.853  0.00  0.00    +0.000 A 
ENDBRANCH   3  21
TORSDOF 4
ENDMDL
MODEL 7
REMARK VINA RESULT:      -8.1      0.338      1.409
REMARK  Name = 
REMARK  5 active torsions:
REMARK  status: ('A' for Active; 'I' for Inactive)
REMARK    1  A    between atoms: C_1  and  O_2
REMARK    2  A    between atoms: O_2  and  C_3
REMARK    3  A    between atoms: C_3  and  C_5
REMARK    4  A    between atoms: C_8  and  C_9
REMARK    5  A    between atoms: C_11  and  C_12
REMARK                            x       y       z     vdW  Elec       q    Type
REMARK                         _______ _______ _______ _____ _____    ______ ____
ROOT
ATOM      1  C   UNL     1       5.257   5.605  17.641  0.00  0.00    +0.000 C 
ATOM      2  C   UNL     1       5.451   5.282  16.165  0.00  0.00    +0.000 C 
ATOM      3  C   UNL     1       6.650   4.878  15.701  0.00  0.00    +0.000 C 
ATOM      4  N   UNL     1       7.732   4.707  16.541  0.00  0.00    +0.000 N 
ATOM      5  C   UNL     1       7.658   4.927  17.871  0.00  0.00    +0.000 A 
ATOM      6  N   UNL     1       8.537   4.843  18.839  0.00  0.00    +0.000 NA
ATOM      7  N   UNL     1       7.874   5.238  19.986  0.00  0.00    +0.000 NA
ATOM      8  N   UNL     1       6.614   5.573  19.727  0.00  0.00    +0.000 NA
ATOM      9  N   UNL     1       6.471   5.340  18.413  0.00  0.00    +0.000 N 
ATOM     10  H   UNL     1       8.617   4.445  16.116  0.00  0.00    +0.000 HD
ENDROOT
BRANCH   1  14
ATOM     11  C   UNL     1       1.882   3.589  19.466  0.00  0.00    +0.000 A 
ATOM     12  C   UNL     1       2.851   2.842  18.784  0.00  0.00    +0.000 A 
ATOM     13  C   UNL     1       3.931   3.487  18.177  0.00  0.00    +0.000 A 
ATOM     14  C   UNL     1       4.061   4.885  18.246  0.00  0.00    +0.000 A 
ATOM     15  C   UNL     1       3.079   5.624  18.929  0.00  0.00    +0.000 A 
ATOM     16  C   UNL     1       2.002   4.980  19.540  0.00  0.00    +0.000 A 
BRANCH  11  17
ATOM     17  C   UNL     1       0.732   2.947  20.144  0.00  0.00    +0.000 C 
ATOM     18  O   UNL     1      -0.376   2.842  19.645  0.00  0.00    +0.000 OA
BRANCH  17  20
ATOM     19  C   UNL     1       2.119   3.246  21.993  0.00  0.00    +0.000 C 
ATOM     20  O   UNL     1       1.122   2.455  21.346  0.00  0.00    +0.000 OA
ENDBRANCH  17  20
ENDBRANCH  11  17
ENDBRANCH   1  14
BRANCH   3  21
ATOM     21  C   UNL     1       6.852   4.661  14.264  0.00  0.00    +0.000 A 
ATOM     22  C   UNL     1       7.734   5.486  13.555  0.00  0.00    +0.000 A 
ATOM     23  C   UNL     1       7.917   5.311  12.183  0.00  0.00    +0.000 A 
ATOM     24  C   UNL     1       7.223   4.307  11.509  0.00  0.00    +0.000 A 
ATOM     25  C   UNL     1       6.346   3.478  12.209  0.00  0.00    +0.000 A 
ATOM     26  C   UNL     1       6.158   3.652  13.582  0.00  0.00    +0.000 A 
ENDBRANCH   3  21
TORSDOF 4
ENDMDL
MODEL 8
REMARK VINA RESULT:      -8.1      4.213      5.472
REMARK  Name = 
REMARK  5 active torsions:
REMARK  status: ('A' for Active; 'I' for Inactive)
REMARK    1  A    between atoms: C_1  and  O_2
REMARK    2  A    between atoms: O_2  and  C_3
REMARK    3  A    between atoms: C_3  and  C_5
REMARK    4  A    between atoms: C_8  and  C_9
REMARK    5  A    between atoms: C_11  and  C_12
REMARK                            x       y       z     vdW  Elec       q    Type
REMARK                         _______ _______ _______ _____ _____    ______ ____
ROOT
ATOM      1  C   UNL     1       3.151   5.738  19.141  0.00  0.00    +0.000 C 
ATOM      2  C   UNL     1       4.173   5.716  18.012  0.00  0.00    +0.000 C 
ATOM      3  C   UNL     1       4.173   4.720  17.104  0.00  0.00    +0.000 C 
ATOM      4  N   UNL     1       3.235   3.709  17.137  0.00  0.00    +0.000 N 
ATOM      5  C   UNL     1       2.262   3.655  18.072  0.00  0.00    +0.000 A 
ATOM      6  N   UNL     1       1.293   2.803  18.301  0.00  0.00    +0.000 NA
ATOM      7  N   UNL     1       0.647   3.263  19.434  0.00  0.00    +0.000 NA
ATOM      8  N   UNL     1       1.217   4.369  19.902  0.00  0.00    +0.000 NA
ATOM      9  N   UNL     1       2.200   4.633  19.027  0.00  0.00    +0.000 N 
ATOM     10  H   UNL     1       3.323   2.966  16.450  0.00  0.00    +0.000 HD
ENDROOT
BRANCH   1  14
ATOM     11  C   UNL     1       0.988   9.479  19.473  0.00  0.00    +0.000 A 
ATOM     12  C   UNL     1       1.529   9.097  18.240  0.00  0.00    +0.000 A 
ATOM     13  C   UNL     1       2.243   7.902  18.129  0.00  0.00    +0.000 A 
ATOM     14  C   UNL     1       2.424   7.070  19.248  0.00  0.00    +0.000 A 
ATOM     15  C   UNL     1       1.880   7.467  20.482  0.00  0.00    +0.000 A 
ATOM     16  C   UNL     1       1.161   8.659  20.592  0.00  0.00    +0.000 A 
BRANCH  11  17
ATOM     17  C   UNL     1       0.202  10.725  19.633  0.00  0.00    +0.000 C 
ATOM     18  O   UNL     1       0.189  11.390  20.655  0.00  0.00    +0.000 OA
BRANCH  17  20
ATOM     19  C   UNL     1      -1.825  10.737  18.483  0.00  0.00    +0.000 C 
ATOM     20  O   UNL     1      -0.427  11.026  18.470  0.00  0.00    +0.000 OA
ENDBRANCH  17  20
ENDBRANCH  11  17
ENDBRANCH   1  14
BRANCH   3  21
ATOM     21  C   UNL     1       5.219   4.657  16.077  0.00  0.00    +0.000 A 
ATOM     22  C   UNL     1       6.486   5.192  16.344  0.00  0.00    +0.000 A 
ATOM     23  C   UNL     1       7.484   5.164  15.369  0.00  0.00    +0.000 A 
ATOM     24  C   UNL     1       7.226   4.599  14.122  0.00  0.00    +0.000 A 
ATOM     25  C   UNL     1       5.968   4.059  13.850  0.00  0.00    +0.000 A 
ATOM     26  C   UNL     1       4.965   4.088  14.822  0.00  0.00    +0.000 A 
ENDBRANCH   3  21
TORSDOF 4
ENDMDL
MODEL 9
REMARK VINA RESULT:      -8.1      4.326      5.566
REMARK  Name = 
REMARK  5 active torsions:
REMARK  status: ('A' for Active; 'I' for Inactive)
REMARK    1  A    between atoms: C_1  and  O_2
REMARK    2  A    between atoms: O_2  and  C_3
REMARK    3  A    between atoms: C_3  and  C_5
REMARK    4  A    between atoms: C_8  and  C_9
REMARK    5  A    between atoms: C_11  and  C_12
REMARK                            x       y       z     vdW  Elec       q    Type
REMARK                         _______ _______ _______ _____ _____    ______ ____
ROOT
ATOM      1  C   UNL     1       3.143   5.958  19.316  0.00  0.00    +0.000 C 
ATOM      2  C   UNL     1       4.135   5.912  18.162  0.00  0.00    +0.000 C 
ATOM      3  C   UNL     1       4.153   4.866  17.312  0.00  0.00    +0.000 C 
ATOM      4  N   UNL     1       3.259   3.822  17.428  0.00  0.00    +0.000 N 
ATOM      5  C   UNL     1       2.313   3.783  18.391  0.00  0.00    +0.000 A 
ATOM      6  N   UNL     1       1.386   2.908  18.694  0.00  0.00    +0.000 NA
ATOM      7  N   UNL     1       0.751   3.406  19.817  0.00  0.00    +0.000 NA
ATOM      8  N   UNL     1       1.287   4.558  20.206  0.00  0.00    +0.000 NA
ATOM      9  N   UNL     1       2.236   4.811  19.291  0.00  0.00    +0.000 N 
ATOM     10  H   UNL     1       3.359   3.046  16.781  0.00  0.00    +0.000 HD
ENDROOT
BRANCH   1  14
ATOM     11  C   UNL     1       0.835   9.622  19.494  0.00  0.00    +0.000 A 
ATOM     12  C   UNL     1       1.402   9.217  18.280  0.00  0.00    +0.000 A 
ATOM     13  C   UNL     1       2.163   8.047  18.219  0.00  0.00    +0.000 A 
ATOM     14  C   UNL     1       2.365   7.264  19.369  0.00  0.00    +0.000 A 
ATOM     15  C   UNL     1       1.794   7.684  20.583  0.00  0.00    +0.000 A 
ATOM     16  C   UNL     1       1.029   8.851  20.644  0.00  0.00    +0.000 A 
BRANCH  11  17
ATOM     17  C   UNL     1       0.001  10.842  19.602  0.00  0.00    +0.000 C 
ATOM     18  O   UNL     1       0.089  11.642  20.518  0.00  0.00    +0.000 OA
BRANCH  17  20
ATOM     19  C   UNL     1      -1.208  12.288  18.231  0.00  0.00    +0.000 C 
ATOM     20  O   UNL     1      -0.802  10.949  18.514  0.00  0.00    +0.000 OA
ENDBRANCH  17  20
ENDBRANCH  11  17
ENDBRANCH   1  14
BRANCH   3  21
ATOM     21  C   UNL     1       5.174   4.786  16.261  0.00  0.00    +0.000 A 
ATOM     22  C   UNL     1       4.866   4.173  15.040  0.00  0.00    +0.000 A 
ATOM     23  C   UNL     1       5.833   4.064  14.040  0.00  0.00    +0.000 A 
ATOM     24  C   UNL     1       7.114   4.570  14.251  0.00  0.00    +0.000 A 
ATOM     25  C   UNL     1       7.428   5.187  15.462  0.00  0.00    +0.000 A 
ATOM     26  C   UNL     1       6.464   5.295  16.467  0.00  0.00    +0.000 A 
ENDBRANCH   3  21
TORSDOF 4
ENDMDL
