MODEL 1
REMARK VINA RESULT:      -8.9      0.000      0.000
REMARK  Name = 
REMARK  6 active torsions:
REMARK  status: ('A' for Active; 'I' for Inactive)
REMARK    1  A    between atoms: C_1  and  C_2
REMARK    2  A    between atoms: C_2  and  C_3
REMARK    3  A    between atoms: N_15  and  C_16
REMARK    4  A    between atoms: C_16  and  C_17
REMARK    5  A    between atoms: C_17  and  C_18
REMARK    6  A    between atoms: N_20  and  C_21
REMARK                            x       y       z     vdW  Elec       q    Type
REMARK                         _______ _______ _______ _____ _____    ______ ____
ROOT
ATOM      1  C   UNL     1       2.670   1.793  17.634  0.00  0.00    +0.000 C 
ATOM      2  C   UNL     1       2.923   2.930  18.611  0.00  0.00    +0.000 C 
ATOM      3  N   UNL     1       2.870   2.485  19.990  0.00  0.00    +0.000 N 
ATOM      4  C   UNL     1       2.238   3.408  20.789  0.00  0.00    +0.000 C 
ATOM      5  O   UNL     1       2.327   3.425  22.005  0.00  0.00    +0.000 OA
ATOM      6  N   UNL     1       1.544   4.266  19.992  0.00  0.00    +0.000 N 
ATOM      7  C   UNL     1       1.749   3.942  18.678  0.00  0.00    +0.000 C 
ATOM      8  O   UNL     1       1.189   4.463  17.719  0.00  0.00    +0.000 OA
ATOM      9  H   UNL     1       3.540   1.865  20.423  0.00  0.00    +0.000 HD
ENDROOT
BRANCH   2  10
ATOM     10  C   UNL     1       4.242   3.658  18.301  0.00  0.00    +0.000 A 
ATOM     11  C   UNL     1       4.717   3.758  16.964  0.00  0.00    +0.000 A 
ATOM     12  C   UNL     1       5.886   4.457  16.646  0.00  0.00    +0.000 A 
ATOM     13  C   UNL     1       6.588   5.026  17.678  0.00  0.00    +0.000 A 
ATOM     14  C   UNL     1       6.168   4.917  18.981  0.00  0.00    +0.000 A 
ATOM     15  C   UNL     1       5.013   4.242  19.326  0.00  0.00    +0.000 A 
ATOM     16  O   UNL     1       7.011   5.538  19.850  0.00  0.00    +0.000 OA
ATOM     17  C   UNL     1       8.023   6.027  18.942  0.00  0.00    +0.000 C 
ATOM     18  O   UNL     1       7.743   5.732  17.559  0.00  0.00    +0.000 OA
ENDBRANCH   2  10
BRANCH   6  19
ATOM     19  C   UNL     1       1.019   5.541  20.430  0.00  0.00    +0.000 C 
BRANCH  19  20
ATOM     20  C   UNL     1       2.067   6.614  20.695  0.00  0.00    +0.000 C 
BRANCH  20  21
ATOM     21  C   UNL     1       1.507   7.951  20.248  0.00  0.00    +0.000 C 
ATOM     22  O   UNL     1       1.928   8.518  19.246  0.00  0.00    +0.000 OA
ATOM     23  N   UNL     1       0.517   8.433  21.082  0.00  0.00    +0.000 N 
ATOM     24  H   UNL     1       0.372   7.959  21.968  0.00  0.00    +0.000 HD
BRANCH  23  25
ATOM     25  C   UNL     1      -0.189   9.654  20.919  0.00  0.00    +0.000 A 
ATOM     26  C   UNL     1      -0.564  10.149  19.664  0.00  0.00    +0.000 A 
ATOM     27  C   UNL     1      -1.214  11.380  19.553  0.00  0.00    +0.000 A 
ATOM     28 CL   UNL     1      -1.659  11.974  17.999  0.00  0.00    +0.000 Cl
ATOM     29  C   UNL     1      -1.508  12.132  20.687  0.00  0.00    +0.000 A 
ATOM     30  C   UNL     1      -1.169  11.639  21.947  0.00  0.00    +0.000 A 
ATOM     31  C   UNL     1      -0.524  10.403  22.062  0.00  0.00    +0.000 A 
ATOM     32 CL   UNL     1      -0.122   9.838  23.647  0.00  0.00    +0.000 Cl
ENDBRANCH  23  25
ENDBRANCH  20  21
ENDBRANCH  19  20
ENDBRANCH   6  19
TORSDOF 5
ENDMDL
MODEL 2
REMARK VINA RESULT:      -8.7      1.374      1.915
REMARK  Name = 
REMARK  6 active torsions:
REMARK  status: ('A' for Active; 'I' for Inactive)
REMARK    1  A    between atoms: C_1  and  C_2
REMARK    2  A    between atoms: C_2  and  C_3
REMARK    3  A    between atoms: N_15  and  C_16
REMARK    4  A    between atoms: C_16  and  C_17
REMARK    5  A    between atoms: C_17  and  C_18
REMARK    6  A    between atoms: N_20  and  C_21
REMARK                            x       y       z     vdW  Elec       q    Type
REMARK                         _______ _______ _______ _____ _____    ______ ____
ROOT
ATOM      1  C   UNL     1       2.530   1.959  17.724  0.00  0.00    +0.000 C 
ATOM      2  C   UNL     1       2.834   3.098  18.683  0.00  0.00    +0.000 C 
ATOM      3  N   UNL     1       2.778   2.674  20.069  0.00  0.00    +0.000 N 
ATOM      4  C   UNL     1       2.188   3.631  20.861  0.00  0.00    +0.000 C 
ATOM      5  O   UNL     1       2.290   3.661  22.076  0.00  0.00    +0.000 OA
ATOM      6  N   UNL     1       1.519   4.503  20.059  0.00  0.00    +0.000 N 
ATOM      7  C   UNL     1       1.699   4.154  18.747  0.00  0.00    +0.000 C 
ATOM      8  O   UNL     1       1.150   4.683  17.786  0.00  0.00    +0.000 OA
ATOM      9  H   UNL     1       3.429   2.036  20.504  0.00  0.00    +0.000 HD
ENDROOT
BRANCH   2  10
ATOM     10  C   UNL     1       4.176   3.773  18.351  0.00  0.00    +0.000 A 
ATOM     11  C   UNL     1       4.629   3.860  17.006  0.00  0.00    +0.000 A 
ATOM     12  C   UNL     1       5.819   4.512  16.668  0.00  0.00    +0.000 A 
ATOM     13  C   UNL     1       6.565   5.046  17.689  0.00  0.00    +0.000 A 
ATOM     14  C   UNL     1       6.166   4.946  18.999  0.00  0.00    +0.000 A 
ATOM     15  C   UNL     1       4.991   4.318  19.363  0.00  0.00    +0.000 A 
ATOM     16  O   UNL     1       7.051   5.528  19.854  0.00  0.00    +0.000 OA
ATOM     17  C   UNL     1       8.064   5.978  18.929  0.00  0.00    +0.000 C 
ATOM     18  O   UNL     1       7.746   5.703  17.551  0.00  0.00    +0.000 OA
ENDBRANCH   2  10
BRANCH   6  19
ATOM     19  C   UNL     1       1.046   5.803  20.484  0.00  0.00    +0.000 C 
BRANCH  19  20
ATOM     20  C   UNL     1       2.025   6.950  20.265  0.00  0.00    +0.000 C 
BRANCH  20  21
ATOM     21  C   UNL     1       1.335   8.246  20.641  0.00  0.00    +0.000 C 
ATOM     22  O   UNL     1       0.927   8.447  21.780  0.00  0.00    +0.000 OA
ATOM     23  N   UNL     1       1.218   9.128  19.584  0.00  0.00    +0.000 N 
ATOM     24  H   UNL     1       1.441   8.786  18.654  0.00  0.00    +0.000 HD
BRANCH  23  25
ATOM     25  C   UNL     1       0.620  10.415  19.635  0.00  0.00    +0.000 A 
ATOM     26  C   UNL     1       1.007  11.393  20.558  0.00  0.00    +0.000 A 
ATOM     27  C   UNL     1       0.354  12.627  20.599  0.00  0.00    +0.000 A 
ATOM     28 CL   UNL     1       0.840  13.813  21.748  0.00  0.00    +0.000 Cl
ATOM     29  C   UNL     1      -0.687  12.908  19.719  0.00  0.00    +0.000 A 
ATOM     30  C   UNL     1      -1.065  11.956  18.773  0.00  0.00    +0.000 A 
ATOM     31  C   UNL     1      -0.408  10.722  18.724  0.00  0.00    +0.000 A 
ATOM     32 CL   UNL     1      -0.917   9.574  17.533  0.00  0.00    +0.000 Cl
ENDBRANCH  23  25
ENDBRANCH  20  21
ENDBRANCH  19  20
ENDBRANCH   6  19
TORSDOF 5
ENDMDL
MODEL 3
REMARK VINA RESULT:      -8.4      1.710      2.253
REMARK  Name = 
REMARK  6 active torsions:
REMARK  status: ('A' for Active; 'I' for Inactive)
REMARK    1  A    between atoms: C_1  and  C_2
REMARK    2  A    between atoms: C_2  and  C_3
REMARK    3  A    between atoms: N_15  and  C_16
REMARK    4  A    between atoms: C_16  and  C_17
REMARK    5  A    between atoms: C_17  and  C_18
REMARK    6  A    between atoms: N_20  and  C_21
REMARK                            x       y       z     vdW  Elec       q    Type
REMARK                         _______ _______ _______ _____ _____    ______ ____
ROOT
ATOM      1  C   UNL     1       2.486   1.859  17.929  0.00  0.00    +0.000 C 
ATOM      2  C   UNL     1       2.917   3.206  18.486  0.00  0.00    +0.000 C 
ATOM      3  N   UNL     1       3.023   3.189  19.932  0.00  0.00    +0.000 N 
ATOM      4  C   UNL     1       2.544   4.355  20.482  0.00  0.00    +0.000 C 
ATOM      5  O   UNL     1       2.791   4.719  21.619  0.00  0.00    +0.000 OA
ATOM      6  N   UNL     1       1.794   4.997  19.546  0.00  0.00    +0.000 N 
ATOM      7  C   UNL     1       1.810   4.288  18.375  0.00  0.00    +0.000 C 
ATOM      8  O   UNL     1       1.156   4.551  17.372  0.00  0.00    +0.000 OA
ATOM      9  H   UNL     1       3.714   2.669  20.454  0.00  0.00    +0.000 HD
ENDROOT
BRANCH   2  10
ATOM     10  C   UNL     1       4.218   3.699  17.829  0.00  0.00    +0.000 A 
ATOM     11  C   UNL     1       5.334   4.076  18.626  0.00  0.00    +0.000 A 
ATOM     12  C   UNL     1       6.545   4.480  18.056  0.00  0.00    +0.000 A 
ATOM     13  C   UNL     1       6.619   4.533  16.687  0.00  0.00    +0.000 A 
ATOM     14  C   UNL     1       5.545   4.205  15.896  0.00  0.00    +0.000 A 
ATOM     15  C   UNL     1       4.339   3.793  16.428  0.00  0.00    +0.000 A 
ATOM     16  O   UNL     1       5.822   4.337  14.570  0.00  0.00    +0.000 OA
ATOM     17  C   UNL     1       7.184   4.812  14.623  0.00  0.00    +0.000 C 
ATOM     18  O   UNL     1       7.706   4.908  15.964  0.00  0.00    +0.000 OA
ENDBRANCH   2  10
BRANCH   6  19
ATOM     19  C   UNL     1       1.390   6.384  19.636  0.00  0.00    +0.000 C 
BRANCH  19  20
ATOM     20  C   UNL     1       2.456   7.394  19.229  0.00  0.00    +0.000 C 
BRANCH  20  21
ATOM     21  C   UNL     1       1.768   8.577  18.575  0.00  0.00    +0.000 C 
ATOM     22  O   UNL     1       2.140   9.012  17.490  0.00  0.00    +0.000 OA
ATOM     23  N   UNL     1       0.728   9.087  19.326  0.00  0.00    +0.000 N 
ATOM     24  H   UNL     1       0.622   8.752  20.279  0.00  0.00    +0.000 HD
BRANCH  23  25
ATOM     25  C   UNL     1      -0.095  10.188  18.970  0.00  0.00    +0.000 A 
ATOM     26  C   UNL     1      -1.105  10.097  18.005  0.00  0.00    +0.000 A 
ATOM     27  C   UNL     1      -1.855  11.222  17.656  0.00  0.00    +0.000 A 
ATOM     28 CL   UNL     1      -3.087  11.090  16.460  0.00  0.00    +0.000 Cl
ATOM     29  C   UNL     1      -1.618  12.450  18.266  0.00  0.00    +0.000 A 
ATOM     30  C   UNL     1      -0.637  12.551  19.252  0.00  0.00    +0.000 A 
ATOM     31  C   UNL     1       0.111  11.424  19.609  0.00  0.00    +0.000 A 
ATOM     32 CL   UNL     1       1.319  11.604  20.835  0.00  0.00    +0.000 Cl
ENDBRANCH  23  25
ENDBRANCH  20  21
ENDBRANCH  19  20
ENDBRANCH   6  19
TORSDOF 5
ENDMDL
MODEL 4
REMARK VINA RESULT:      -8.3      3.979      8.500
REMARK  Name = 
REMARK  6 active torsions:
REMARK  status: ('A' for Active; 'I' for Inactive)
REMARK    1  A    between atoms: C_1  and  C_2
REMARK    2  A    between atoms: C_2  and  C_3
REMARK    3  A    between atoms: N_15  and  C_16
REMARK    4  A    between atoms: C_16  and  C_17
REMARK    5  A    between atoms: C_17  and  C_18
REMARK    6  A    between atoms: N_20  and  C_21
REMARK                            x       y       z     vdW  Elec       q    Type
REMARK                         _______ _______ _______ _____ _____    ______ ____
ROOT
ATOM      1  C   UNL     1      -1.318  11.925  18.999  0.00  0.00    +0.000 C 
ATOM      2  C   UNL     1       0.083  11.363  19.176  0.00  0.00    +0.000 C 
ATOM      3  N   UNL     1       0.490  10.548  18.047  0.00  0.00    +0.000 N 
ATOM      4  C   UNL     1       1.183   9.434  18.459  0.00  0.00    +0.000 C 
ATOM      5  O   UNL     1       1.884   8.762  17.722  0.00  0.00    +0.000 OA
ATOM      6  N   UNL     1       0.956   9.252  19.789  0.00  0.00    +0.000 N 
ATOM      7  C   UNL     1       0.158  10.258  20.263  0.00  0.00    +0.000 C 
ATOM      8  O   UNL     1      -0.304  10.328  21.397  0.00  0.00    +0.000 OA
ATOM      9  H   UNL     1       0.668  10.899  17.117  0.00  0.00    +0.000 HD
ENDROOT
BRANCH   2  10
ATOM     10  C   UNL     1       1.105  12.474  19.470  0.00  0.00    +0.000 A 
ATOM     11  C   UNL     1       1.886  13.034  18.421  0.00  0.00    +0.000 A 
ATOM     12  C   UNL     1       2.786  14.080  18.649  0.00  0.00    +0.000 A 
ATOM     13  C   UNL     1       2.920  14.537  19.936  0.00  0.00    +0.000 A 
ATOM     14  C   UNL     1       2.201  13.992  20.971  0.00  0.00    +0.000 A 
ATOM     15  C   UNL     1       1.297  12.965  20.777  0.00  0.00    +0.000 A 
ATOM     16  O   UNL     1       2.489  14.577  22.165  0.00  0.00    +0.000 OA
ATOM     17  C   UNL     1       3.493  15.534  21.762  0.00  0.00    +0.000 C 
ATOM     18  O   UNL     1       3.747  15.535  20.343  0.00  0.00    +0.000 OA
ENDBRANCH   2  10
BRANCH   6  19
ATOM     19  C   UNL     1       1.748   8.390  20.640  0.00  0.00    +0.000 C 
BRANCH  19  20
ATOM     20  C   UNL     1       1.112   7.045  20.968  0.00  0.00    +0.000 C 
BRANCH  20  21
ATOM     21  C   UNL     1       2.012   5.947  20.436  0.00  0.00    +0.000 C 
ATOM     22  O   UNL     1       2.104   4.864  21.004  0.00  0.00    +0.000 OA
ATOM     23  N   UNL     1       2.695   6.308  19.291  0.00  0.00    +0.000 N 
ATOM     24  H   UNL     1       2.666   7.284  19.010  0.00  0.00    +0.000 HD
BRANCH  23  25
ATOM     25  C   UNL     1       3.605   5.490  18.571  0.00  0.00    +0.000 A 
ATOM     26  C   UNL     1       4.994   5.604  18.704  0.00  0.00    +0.000 A 
ATOM     27  C   UNL     1       5.847   4.810  17.936  0.00  0.00    +0.000 A 
ATOM     28 CL   UNL     1       7.552   4.973  18.109  0.00  0.00    +0.000 Cl
ATOM     29  C   UNL     1       5.333   3.885  17.032  0.00  0.00    +0.000 A 
ATOM     30  C   UNL     1       3.952   3.736  16.909  0.00  0.00    +0.000 A 
ATOM     31  C   UNL     1       3.094   4.526  17.683  0.00  0.00    +0.000 A 
ATOM     32 CL   UNL     1       1.389   4.305  17.490  0.00  0.00    +0.000 Cl
ENDBRANCH  23  25
ENDBRANCH  20  21
ENDBRANCH  19  20
ENDBRANCH   6  19
TORSDOF 5
ENDMDL
MODEL 5
REMARK VINA RESULT:      -8.3      1.376      1.822
REMARK  Name = 
REMARK  6 active torsions:
REMARK  status: ('A' for Active; 'I' for Inactive)
REMARK    1  A    between atoms: C_1  and  C_2
REMARK    2  A    between atoms: C_2  and  C_3
REMARK    3  A    between atoms: N_15  and  C_16
REMARK    4  A    between atoms: C_16  and  C_17
REMARK    5  A    between atoms: C_17  and  C_18
REMARK    6  A    between atoms: N_20  and  C_21
REMARK                            x       y       z     vdW  Elec       q    Type
REMARK                         _______ _______ _______ _____ _____    ______ ____
ROOT
ATOM      1  C   UNL     1       2.336   2.237  17.682  0.00  0.00    +0.000 C 
ATOM      2  C   UNL     1       2.768   3.299  18.681  0.00  0.00    +0.000 C 
ATOM      3  N   UNL     1       2.677   2.829  20.050  0.00  0.00    +0.000 N 
ATOM      4  C   UNL     1       2.198   3.811  20.885  0.00  0.00    +0.000 C 
ATOM      5  O   UNL     1       2.311   3.782  22.098  0.00  0.00    +0.000 OA
ATOM      6  N   UNL     1       1.620   4.780  20.124  0.00  0.00    +0.000 N 
ATOM      7  C   UNL     1       1.752   4.466  18.798  0.00  0.00    +0.000 C 
ATOM      8  O   UNL     1       1.256   5.089  17.865  0.00  0.00    +0.000 OA
ATOM      9  H   UNL     1       3.258   2.108  20.452  0.00  0.00    +0.000 HD
ENDROOT
BRANCH   2  10
ATOM     10  C   UNL     1       4.172   3.840  18.360  0.00  0.00    +0.000 A 
ATOM     11  C   UNL     1       4.666   3.825  17.027  0.00  0.00    +0.000 A 
ATOM     12  C   UNL     1       5.917   4.356  16.697  0.00  0.00    +0.000 A 
ATOM     13  C   UNL     1       6.679   4.870  17.715  0.00  0.00    +0.000 A 
ATOM     14  C   UNL     1       6.239   4.867  19.016  0.00  0.00    +0.000 A 
ATOM     15  C   UNL     1       5.004   4.360  19.371  0.00  0.00    +0.000 A 
ATOM     16  O   UNL     1       7.148   5.409  19.871  0.00  0.00    +0.000 OA
ATOM     17  C   UNL     1       8.221   5.728  18.958  0.00  0.00    +0.000 C 
ATOM     18  O   UNL     1       7.916   5.417  17.583  0.00  0.00    +0.000 OA
ENDBRANCH   2  10
BRANCH   6  19
ATOM     19  C   UNL     1       1.292   6.105  20.605  0.00  0.00    +0.000 C 
BRANCH  19  20
ATOM     20  C   UNL     1       2.134   7.231  20.020  0.00  0.00    +0.000 C 
BRANCH  20  21
ATOM     21  C   UNL     1       1.520   8.554  20.435  0.00  0.00    +0.000 C 
ATOM     22  O   UNL     1       1.512   8.915  21.608  0.00  0.00    +0.000 OA
ATOM     23  N   UNL     1       0.983   9.262  19.378  0.00  0.00    +0.000 N 
ATOM     24  H   UNL     1       0.901   8.788  18.484  0.00  0.00    +0.000 HD
BRANCH  23  25
ATOM     25  C   UNL     1       0.345  10.527  19.461  0.00  0.00    +0.000 A 
ATOM     26  C   UNL     1      -0.876  10.718  20.118  0.00  0.00    +0.000 A 
ATOM     27  C   UNL     1      -1.487  11.973  20.129  0.00  0.00    +0.000 A 
ATOM     28 CL   UNL     1      -2.994  12.182  20.936  0.00  0.00    +0.000 Cl
ATOM     29  C   UNL     1      -0.890  13.058  19.496  0.00  0.00    +0.000 A 
ATOM     30  C   UNL     1       0.342  12.894  18.863  0.00  0.00    +0.000 A 
ATOM     31  C   UNL     1       0.960  11.639  18.856  0.00  0.00    +0.000 A 
ATOM     32 CL   UNL     1       2.486  11.487  18.054  0.00  0.00    +0.000 Cl
ENDBRANCH  23  25
ENDBRANCH  20  21
ENDBRANCH  19  20
ENDBRANCH   6  19
TORSDOF 5
ENDMDL
MODEL 6
REMARK VINA RESULT:      -8.3      3.554      6.770
REMARK  Name = 
REMARK  6 active torsions:
REMARK  status: ('A' for Active; 'I' for Inactive)
REMARK    1  A    between atoms: C_1  and  C_2
REMARK    2  A    between atoms: C_2  and  C_3
REMARK    3  A    between atoms: N_15  and  C_16
REMARK    4  A    between atoms: C_16  and  C_17
REMARK    5  A    between atoms: C_17  and  C_18
REMARK    6  A    between atoms: N_20  and  C_21
REMARK                            x       y       z     vdW  Elec       q    Type
REMARK                         _______ _______ _______ _____ _____    ______ ____
ROOT
ATOM      1  C   UNL     1       2.118   3.597  22.139  0.00  0.00    +0.000 C 
ATOM      2  C   UNL     1       1.890   3.754  20.644  0.00  0.00    +0.000 C 
ATOM      3  N   UNL     1       0.714   3.035  20.194  0.00  0.00    +0.000 N 
ATOM      4  C   UNL     1       0.933   2.428  18.979  0.00  0.00    +0.000 C 
ATOM      5  O   UNL     1       0.041   2.030  18.250  0.00  0.00    +0.000 OA
ATOM      6  N   UNL     1       2.275   2.381  18.757  0.00  0.00    +0.000 N 
ATOM      7  C   UNL     1       2.936   2.989  19.790  0.00  0.00    +0.000 C 
ATOM      8  O   UNL     1       4.153   3.027  19.934  0.00  0.00    +0.000 OA
ATOM      9  H   UNL     1      -0.237   3.273  20.438  0.00  0.00    +0.000 HD
ENDROOT
BRANCH   2  10
ATOM     10  C   UNL     1       1.841   5.235  20.232  0.00  0.00    +0.000 A 
ATOM     11  C   UNL     1       1.346   6.220  21.130  0.00  0.00    +0.000 A 
ATOM     12  C   UNL     1       1.336   7.580  20.803  0.00  0.00    +0.000 A 
ATOM     13  C   UNL     1       1.796   7.940  19.561  0.00  0.00    +0.000 A 
ATOM     14  C   UNL     1       2.250   7.004  18.664  0.00  0.00    +0.000 A 
ATOM     15  C   UNL     1       2.282   5.656  18.961  0.00  0.00    +0.000 A 
ATOM     16  O   UNL     1       2.648   7.566  17.490  0.00  0.00    +0.000 OA
ATOM     17  C   UNL     1       2.365   8.958  17.746  0.00  0.00    +0.000 C 
ATOM     18  O   UNL     1       1.854   9.205  19.071  0.00  0.00    +0.000 OA
ENDBRANCH   2  10
BRANCH   6  19
ATOM     19  C   UNL     1       2.878   2.111  17.469  0.00  0.00    +0.000 C 
BRANCH  19  20
ATOM     20  C   UNL     1       2.991   3.316  16.543  0.00  0.00    +0.000 C 
BRANCH  20  21
ATOM     21  C   UNL     1       4.409   3.847  16.618  0.00  0.00    +0.000 C 
ATOM     22  O   UNL     1       5.298   3.401  15.900  0.00  0.00    +0.000 OA
ATOM     23  N   UNL     1       4.570   4.840  17.565  0.00  0.00    +0.000 N 
ATOM     24  H   UNL     1       3.805   5.006  18.212  0.00  0.00    +0.000 HD
BRANCH  23  25
ATOM     25  C   UNL     1       5.780   5.522  17.859  0.00  0.00    +0.000 A 
ATOM     26  C   UNL     1       6.590   5.190  18.951  0.00  0.00    +0.000 A 
ATOM     27  C   UNL     1       7.745   5.925  19.225  0.00  0.00    +0.000 A 
ATOM     28 CL   UNL     1       8.722   5.504  20.580  0.00  0.00    +0.000 Cl
ATOM     29  C   UNL     1       8.117   6.992  18.415  0.00  0.00    +0.000 A 
ATOM     30  C   UNL     1       7.338   7.317  17.304  0.00  0.00    +0.000 A 
ATOM     31  C   UNL     1       6.184   6.579  17.022  0.00  0.00    +0.000 A 
ATOM     32 CL   UNL     1       5.251   7.025  15.635  0.00  0.00    +0.000 Cl
ENDBRANCH  23  25
ENDBRANCH  20  21
ENDBRANCH  19  20
ENDBRANCH   6  19
TORSDOF 5
ENDMDL
MODEL 7
REMARK VINA RESULT:      -8.2      4.000      9.805
REMARK  Name = 
REMARK  6 active torsions:
REMARK  status: ('A' for Active; 'I' for Inactive)
REMARK    1  A    between atoms: C_1  and  C_2
REMARK    2  A    between atoms: C_2  and  C_3
REMARK    3  A    between atoms: N_15  and  C_16
REMARK    4  A    between atoms: C_16  and  C_17
REMARK    5  A    between atoms: C_17  and  C_18
REMARK    6  A    between atoms: N_20  and  C_21
REMARK                            x       y       z     vdW  Elec       q    Type
REMARK                         _______ _______ _______ _____ _____    ______ ____
ROOT
ATOM      1  C   UNL     1      -0.384  13.668  19.273  0.00  0.00    +0.000 C 
ATOM      2  C   UNL     1      -0.984  12.508  20.051  0.00  0.00    +0.000 C 
ATOM      3  N   UNL     1      -0.705  12.601  21.471  0.00  0.00    +0.000 N 
ATOM      4  C   UNL     1      -0.413  11.367  22.005  0.00  0.00    +0.000 C 
ATOM      5  O   UNL     1      -0.443  11.122  23.199  0.00  0.00    +0.000 OA
ATOM      6  N   UNL     1      -0.119  10.515  20.986  0.00  0.00    +0.000 N 
ATOM      7  C   UNL     1      -0.257  11.163  19.788  0.00  0.00    +0.000 C 
ATOM      8  O   UNL     1       0.027  10.698  18.689  0.00  0.00    +0.000 OA
ATOM      9  H   UNL     1      -1.082  13.306  22.088  0.00  0.00    +0.000 HD
ENDROOT
BRANCH   2  10
ATOM     10  C   UNL     1      -2.492  12.364  19.779  0.00  0.00    +0.000 A 
ATOM     11  C   UNL     1      -2.955  11.746  18.585  0.00  0.00    +0.000 A 
ATOM     12  C   UNL     1      -4.318  11.556  18.333  0.00  0.00    +0.000 A 
ATOM     13  C   UNL     1      -5.209  12.017  19.269  0.00  0.00    +0.000 A 
ATOM     14  C   UNL     1      -4.788  12.646  20.415  0.00  0.00    +0.000 A 
ATOM     15  C   UNL     1      -3.449  12.839  20.697  0.00  0.00    +0.000 A 
ATOM     16  O   UNL     1      -5.827  13.037  21.202  0.00  0.00    +0.000 OA
ATOM     17  C   UNL     1      -6.949  12.604  20.402  0.00  0.00    +0.000 C 
ATOM     18  O   UNL     1      -6.562  11.928  19.189  0.00  0.00    +0.000 OA
ENDBRANCH   2  10
BRANCH   6  19
ATOM     19  C   UNL     1      -0.073   9.074  21.117  0.00  0.00    +0.000 C 
BRANCH  19  20
ATOM     20  C   UNL     1       1.309   8.495  21.392  0.00  0.00    +0.000 C 
BRANCH  20  21
ATOM     21  C   UNL     1       1.807   7.824  20.127  0.00  0.00    +0.000 C 
ATOM     22  O   UNL     1       1.838   8.422  19.056  0.00  0.00    +0.000 OA
ATOM     23  N   UNL     1       2.192   6.512  20.320  0.00  0.00    +0.000 N 
ATOM     24  H   UNL     1       1.965   6.078  21.210  0.00  0.00    +0.000 HD
BRANCH  23  25
ATOM     25  C   UNL     1       2.699   5.637  19.324  0.00  0.00    +0.000 A 
ATOM     26  C   UNL     1       3.781   5.972  18.501  0.00  0.00    +0.000 A 
ATOM     27  C   UNL     1       4.210   5.096  17.502  0.00  0.00    +0.000 A 
ATOM     28 CL   UNL     1       5.537   5.532  16.495  0.00  0.00    +0.000 Cl
ATOM     29  C   UNL     1       3.577   3.871  17.312  0.00  0.00    +0.000 A 
ATOM     30  C   UNL     1       2.518   3.508  18.144  0.00  0.00    +0.000 A 
ATOM     31  C   UNL     1       2.090   4.380  19.150  0.00  0.00    +0.000 A 
ATOM     32 CL   UNL     1       0.769   3.884  20.152  0.00  0.00    +0.000 Cl
ENDBRANCH  23  25
ENDBRANCH  20  21
ENDBRANCH  19  20
ENDBRANCH   6  19
TORSDOF 5
ENDMDL
MODEL 8
REMARK VINA RESULT:      -8.2      4.796      7.640
REMARK  Name = 
REMARK  6 active torsions:
REMARK  status: ('A' for Active; 'I' for Inactive)
REMARK    1  A    between atoms: C_1  and  C_2
REMARK    2  A    between atoms: C_2  and  C_3
REMARK    3  A    between atoms: N_15  and  C_16
REMARK    4  A    between atoms: C_16  and  C_17
REMARK    5  A    between atoms: C_17  and  C_18
REMARK    6  A    between atoms: N_20  and  C_21
REMARK                            x       y       z     vdW  Elec       q    Type
REMARK                         _______ _______ _______ _____ _____    ______ ____
ROOT
ATOM      1  C   UNL     1       3.754   3.851  19.204  0.00  0.00    +0.000 C 
ATOM      2  C   UNL     1       4.257   5.035  18.393  0.00  0.00    +0.000 C 
ATOM      3  N   UNL     1       4.350   4.727  16.979  0.00  0.00    +0.000 N 
ATOM      4  C   UNL     1       5.481   5.277  16.422  0.00  0.00    +0.000 C 
ATOM      5  O   UNL     1       5.639   5.428  15.222  0.00  0.00    +0.000 OA
ATOM      6  N   UNL     1       6.334   5.617  17.425  0.00  0.00    +0.000 N 
ATOM      7  C   UNL     1       5.759   5.338  18.635  0.00  0.00    +0.000 C 
ATOM      8  O   UNL     1       6.308   5.442  19.727  0.00  0.00    +0.000 OA
ATOM      9  H   UNL     1       3.561   4.553  16.373  0.00  0.00    +0.000 HD
ENDROOT
BRANCH   2  10
ATOM     10  C   UNL     1       3.408   6.293  18.645  0.00  0.00    +0.000 A 
ATOM     11  C   UNL     1       3.294   7.300  17.648  0.00  0.00    +0.000 A 
ATOM     12  C   UNL     1       2.490   8.430  17.828  0.00  0.00    +0.000 A 
ATOM     13  C   UNL     1       1.828   8.557  19.023  0.00  0.00    +0.000 A 
ATOM     14  C   UNL     1       1.946   7.614  20.014  0.00  0.00    +0.000 A 
ATOM     15  C   UNL     1       2.724   6.483  19.862  0.00  0.00    +0.000 A 
ATOM     16  O   UNL     1       1.221   7.934  21.121  0.00  0.00    +0.000 OA
ATOM     17  C   UNL     1       0.657   9.200  20.717  0.00  0.00    +0.000 C 
ATOM     18  O   UNL     1       1.013   9.586  19.374  0.00  0.00    +0.000 OA
ENDBRANCH   2  10
BRANCH   6  19
ATOM     19  C   UNL     1       7.472   6.498  17.263  0.00  0.00    +0.000 C 
BRANCH  19  20
ATOM     20  C   UNL     1       7.934   7.197  18.535  0.00  0.00    +0.000 C 
BRANCH  20  21
ATOM     21  C   UNL     1       8.326   8.619  18.184  0.00  0.00    +0.000 C 
ATOM     22  O   UNL     1       8.056   9.105  17.090  0.00  0.00    +0.000 OA
ATOM     23  N   UNL     1       9.005   9.264  19.199  0.00  0.00    +0.000 N 
ATOM     24  H   UNL     1       9.315   8.707  19.990  0.00  0.00    +0.000 HD
BRANCH  23  25
ATOM     25  C   UNL     1       9.495  10.596  19.159  0.00  0.00    +0.000 A 
ATOM     26  C   UNL     1      10.052  11.163  18.007  0.00  0.00    +0.000 A 
ATOM     27  C   UNL     1      10.565  12.461  18.032  0.00  0.00    +0.000 A 
ATOM     28 CL   UNL     1      11.255  13.136  16.606  0.00  0.00    +0.000 Cl
ATOM     29  C   UNL     1      10.523  13.218  19.199  0.00  0.00    +0.000 A 
ATOM     30  C   UNL     1       9.942  12.680  20.348  0.00  0.00    +0.000 A 
ATOM     31  C   UNL     1       9.421  11.382  20.323  0.00  0.00    +0.000 A 
ATOM     32 CL   UNL     1       8.715  10.760  21.776  0.00  0.00    +0.000 Cl
ENDBRANCH  23  25
ENDBRANCH  20  21
ENDBRANCH  19  20
ENDBRANCH   6  19
TORSDOF 5
ENDMDL
MODEL 9
REMARK VINA RESULT:      -8.2      3.853      9.170
REMARK  Name = 
REMARK  6 active torsions:
REMARK  status: ('A' for Active; 'I' for Inactive)
REMARK    1  A    between atoms: C_1  and  C_2
REMARK    2  A    between atoms: C_2  and  C_3
REMARK    3  A    between atoms: N_15  and  C_16
REMARK    4  A    between atoms: C_16  and  C_17
REMARK    5  A    between atoms: C_17  and  C_18
REMARK    6  A    between atoms: N_20  and  C_21
REMARK                            x       y       z     vdW  Elec       q    Type
REMARK                         _______ _______ _______ _____ _____    ______ ____
ROOT
ATOM      1  C   UNL     1       0.992  12.396  19.523  0.00  0.00    +0.000 C 
ATOM      2  C   UNL     1       0.466  10.972  19.440  0.00  0.00    +0.000 C 
ATOM      3  N   UNL     1       0.418  10.332  20.740  0.00  0.00    +0.000 N 
ATOM      4  C   UNL     1       0.813   9.017  20.665  0.00  0.00    +0.000 C 
ATOM      5  O   UNL     1       0.579   8.189  21.528  0.00  0.00    +0.000 OA
ATOM      6  N   UNL     1       1.467   8.830  19.486  0.00  0.00    +0.000 N 
ATOM      7  C   UNL     1       1.468   9.995  18.769  0.00  0.00    +0.000 C 
ATOM      8  O   UNL     1       2.057  10.181  17.709  0.00  0.00    +0.000 OA
ATOM      9  H   UNL     1      -0.204  10.597  21.491  0.00  0.00    +0.000 HD
ENDROOT
BRANCH   2  10
ATOM     10  C   UNL     1      -0.897  10.914  18.730  0.00  0.00    +0.000 A 
ATOM     11  C   UNL     1      -1.088  10.076  17.597  0.00  0.00    +0.000 A 
ATOM     12  C   UNL     1      -2.329   9.964  16.962  0.00  0.00    +0.000 A 
ATOM     13  C   UNL     1      -3.365  10.720  17.450  0.00  0.00    +0.000 A 
ATOM     14  C   UNL     1      -3.198  11.561  18.522  0.00  0.00    +0.000 A 
ATOM     15  C   UNL     1      -1.988  11.686  19.177  0.00  0.00    +0.000 A 
ATOM     16  O   UNL     1      -4.342  12.228  18.838  0.00  0.00    +0.000 OA
ATOM     17  C   UNL     1      -5.237  11.727  17.822  0.00  0.00    +0.000 C 
ATOM     18  O   UNL     1      -4.631  10.745  16.957  0.00  0.00    +0.000 OA
ENDBRANCH   2  10
BRANCH   6  19
ATOM     19  C   UNL     1       1.749   7.533  18.908  0.00  0.00    +0.000 C 
BRANCH  19  20
ATOM     20  C   UNL     1       2.559   6.594  19.792  0.00  0.00    +0.000 C 
BRANCH  20  21
ATOM     21  C   UNL     1       3.324   5.637  18.899  0.00  0.00    +0.000 C 
ATOM     22  O   UNL     1       2.972   4.469  18.763  0.00  0.00    +0.000 OA
ATOM     23  N   UNL     1       4.424   6.214  18.295  0.00  0.00    +0.000 N 
ATOM     24  H   UNL     1       4.709   7.136  18.613  0.00  0.00    +0.000 HD
BRANCH  23  25
ATOM     25  C   UNL     1       5.324   5.566  17.410  0.00  0.00    +0.000 A 
ATOM     26  C   UNL     1       4.978   5.218  16.099  0.00  0.00    +0.000 A 
ATOM     27  C   UNL     1       5.884   4.537  15.283  0.00  0.00    +0.000 A 
ATOM     28 CL   UNL     1       5.434   4.110  13.677  0.00  0.00    +0.000 Cl
ATOM     29  C   UNL     1       7.150   4.201  15.755  0.00  0.00    +0.000 A 
ATOM     30  C   UNL     1       7.522   4.569  17.047  0.00  0.00    +0.000 A 
ATOM     31  C   UNL     1       6.620   5.257  17.865  0.00  0.00    +0.000 A 
ATOM     32 CL   UNL     1       7.130   5.687  19.461  0.00  0.00    +0.000 Cl
ENDBRANCH  23  25
ENDBRANCH  20  21
ENDBRANCH  19  20
ENDBRANCH   6  19
TORSDOF 5
ENDMDL
