MODEL 1
REMARK VINA RESULT:      -8.5      0.000      0.000
REMARK  Name = 
REMARK  4 active torsions:
REMARK  status: ('A' for Active; 'I' for Inactive)
REMARK    1  A    between atoms: C_7  and  C_8
REMARK    2  A    between atoms: N_10  and  C_11
REMARK    3  A    between atoms: C_11  and  C_12
REMARK    4  A    between atoms: C_12  and  C_13
REMARK                            x       y       z     vdW  Elec       q    Type
REMARK                         _______ _______ _______ _____ _____    ______ ____
ROOT
ATOM      1  C   UNL     1       3.346   6.181  18.653  0.00  0.00    +0.000 C 
ATOM      2  O   UNL     1       3.944   5.682  19.600  0.00  0.00    +0.000 OA
ATOM      3  N   UNL     1       3.461   5.706  17.364  0.00  0.00    +0.000 N 
ATOM      4  H   UNL     1       2.769   5.962  16.670  0.00  0.00    +0.000 HD
ENDROOT
BRANCH   1  11
ATOM      5  O   UNL     1      -0.899  11.995  21.412  0.00  0.00    +0.000 OA
ATOM      6  C   UNL     1      -0.229  10.991  21.177  0.00  0.00    +0.000 C 
ATOM      7  C   UNL     1       0.345  10.121  22.267  0.00  0.00    +0.000 C 
ATOM      8  C   UNL     1       0.424   8.666  21.839  0.00  0.00    +0.000 C 
ATOM      9  C   UNL     1       1.088   8.554  20.495  0.00  0.00    +0.000 A 
ATOM     10  C   UNL     1       1.862   7.438  20.162  0.00  0.00    +0.000 A 
ATOM     11  C   UNL     1       2.436   7.331  18.888  0.00  0.00    +0.000 A 
ATOM     12  C   UNL     1       2.194   8.317  17.926  0.00  0.00    +0.000 A 
ATOM     13  C   UNL     1       1.403   9.425  18.250  0.00  0.00    +0.000 A 
ATOM     14  C   UNL     1       0.877   9.548  19.539  0.00  0.00    +0.000 A 
ATOM     15  N   UNL     1       0.137  10.683  19.887  0.00  0.00    +0.000 N 
ATOM     16  H   UNL     1      -0.129  11.357  19.183  0.00  0.00    +0.000 HD
ENDBRANCH   1  11
BRANCH   3  17
ATOM     17  C   UNL     1       4.283   4.531  17.159  0.00  0.00    +0.000 C 
BRANCH  17  18
ATOM     18  C   UNL     1       5.547   4.740  16.350  0.00  0.00    +0.000 C 
ATOM     19  C   UNL     1       5.461   4.859  14.832  0.00  0.00    +0.000 C 
ATOM     20  C   UNL     1       6.107   3.648  15.434  0.00  0.00    +0.000 C 
BRANCH  18  21
ATOM     21  C   UNL     1       6.640   5.504  17.094  0.00  0.00    +0.000 A 
ATOM     22  C   UNL     1       6.962   6.823  16.719  0.00  0.00    +0.000 A 
ATOM     23  C   UNL     1       7.713   7.648  17.551  0.00  0.00    +0.000 A 
ATOM     24  C   UNL     1       8.185   7.155  18.765  0.00  0.00    +0.000 A 
ATOM     25  C   UNL     1       7.974   5.819  19.084  0.00  0.00    +0.000 A 
ATOM     26  F   UNL     1       8.433   5.340  20.249  0.00  0.00    +0.000 F 
ATOM     27  C   UNL     1       7.240   4.989  18.250  0.00  0.00    +0.000 A 
ENDBRANCH  18  21
ENDBRANCH  17  18
ENDBRANCH   3  17
TORSDOF 4
ENDMDL
MODEL 2
REMARK VINA RESULT:      -8.3      2.702      4.235
REMARK  Name = 
REMARK  4 active torsions:
REMARK  status: ('A' for Active; 'I' for Inactive)
REMARK    1  A    between atoms: C_7  and  C_8
REMARK    2  A    between atoms: N_10  and  C_11
REMARK    3  A    between atoms: C_11  and  C_12
REMARK    4  A    between atoms: C_12  and  C_13
REMARK                            x       y       z     vdW  Elec       q    Type
REMARK                         _______ _______ _______ _____ _____    ______ ____
ROOT
ATOM      1  C   UNL     1       2.214   8.571  18.155  0.00  0.00    +0.000 C 
ATOM      2  O   UNL     1       2.617   8.993  17.076  0.00  0.00    +0.000 OA
ATOM      3  N   UNL     1       2.662   7.391  18.709  0.00  0.00    +0.000 N 
ATOM      4  H   UNL     1       2.513   7.210  19.694  0.00  0.00    +0.000 HD
ENDROOT
BRANCH   1  11
ATOM      5  O   UNL     1      -2.212  12.037  23.431  0.00  0.00    +0.000 OA
ATOM      6  C   UNL     1      -1.468  11.336  22.745  0.00  0.00    +0.000 C 
ATOM      7  C   UNL     1      -0.616  10.238  23.331  0.00  0.00    +0.000 C 
ATOM      8  C   UNL     1      -0.426   9.093  22.352  0.00  0.00    +0.000 C 
ATOM      9  C   UNL     1       0.013   9.620  21.014  0.00  0.00    +0.000 A 
ATOM     10  C   UNL     1       0.856   8.873  20.185  0.00  0.00    +0.000 A 
ATOM     11  C   UNL     1       1.219   9.361  18.922  0.00  0.00    +0.000 A 
ATOM     12  C   UNL     1       0.698  10.576  18.466  0.00  0.00    +0.000 A 
ATOM     13  C   UNL     1      -0.162  11.317  19.286  0.00  0.00    +0.000 A 
ATOM     14  C   UNL     1      -0.477  10.846  20.563  0.00  0.00    +0.000 A 
ATOM     15  N   UNL     1      -1.286  11.610  21.410  0.00  0.00    +0.000 N 
ATOM     16  H   UNL     1      -1.749  12.441  21.066  0.00  0.00    +0.000 HD
ENDBRANCH   1  11
BRANCH   3  17
ATOM     17  C   UNL     1       3.696   6.671  17.994  0.00  0.00    +0.000 C 
BRANCH  17  18
ATOM     18  C   UNL     1       4.013   5.282  18.510  0.00  0.00    +0.000 C 
ATOM     19  C   UNL     1       5.379   4.998  19.126  0.00  0.00    +0.000 C 
ATOM     20  C   UNL     1       5.028   4.374  17.810  0.00  0.00    +0.000 C 
BRANCH  18  21
ATOM     21  C   UNL     1       2.795   4.518  19.024  0.00  0.00    +0.000 A 
ATOM     22  C   UNL     1       1.905   3.912  18.115  0.00  0.00    +0.000 A 
ATOM     23  C   UNL     1       0.980   2.961  18.536  0.00  0.00    +0.000 A 
ATOM     24  C   UNL     1       0.906   2.621  19.884  0.00  0.00    +0.000 A 
ATOM     25  C   UNL     1       1.696   3.304  20.801  0.00  0.00    +0.000 A 
ATOM     26  F   UNL     1       1.622   2.983  22.101  0.00  0.00    +0.000 F 
ATOM     27  C   UNL     1       2.609   4.263  20.389  0.00  0.00    +0.000 A 
ENDBRANCH  18  21
ENDBRANCH  17  18
ENDBRANCH   3  17
TORSDOF 4
ENDMDL
MODEL 3
REMARK VINA RESULT:      -8.3      2.858      4.299
REMARK  Name = 
REMARK  4 active torsions:
REMARK  status: ('A' for Active; 'I' for Inactive)
REMARK    1  A    between atoms: C_7  and  C_8
REMARK    2  A    between atoms: N_10  and  C_11
REMARK    3  A    between atoms: C_11  and  C_12
REMARK    4  A    between atoms: C_12  and  C_13
REMARK                            x       y       z     vdW  Elec       q    Type
REMARK                         _______ _______ _______ _____ _____    ______ ____
ROOT
ATOM      1  C   UNL     1       2.311   8.274  18.084  0.00  0.00    +0.000 C 
ATOM      2  O   UNL     1       2.917   8.764  17.137  0.00  0.00    +0.000 OA
ATOM      3  N   UNL     1       2.489   6.968  18.488  0.00  0.00    +0.000 N 
ATOM      4  H   UNL     1       2.182   6.681  19.409  0.00  0.00    +0.000 HD
ENDROOT
BRANCH   1  11
ATOM      5  O   UNL     1      -1.937  11.941  23.371  0.00  0.00    +0.000 OA
ATOM      6  C   UNL     1      -1.230  11.205  22.683  0.00  0.00    +0.000 C 
ATOM      7  C   UNL     1      -0.442  10.058  23.263  0.00  0.00    +0.000 C 
ATOM      8  C   UNL     1      -0.312   8.911  22.276  0.00  0.00    +0.000 C 
ATOM      9  C   UNL     1       0.160   9.422  20.944  0.00  0.00    +0.000 A 
ATOM     10  C   UNL     1       0.964   8.636  20.111  0.00  0.00    +0.000 A 
ATOM     11  C   UNL     1       1.358   9.113  18.854  0.00  0.00    +0.000 A 
ATOM     12  C   UNL     1       0.906  10.358  18.405  0.00  0.00    +0.000 A 
ATOM     13  C   UNL     1       0.086  11.139  19.227  0.00  0.00    +0.000 A 
ATOM     14  C   UNL     1      -0.260  10.677  20.500  0.00  0.00    +0.000 A 
ATOM     15  N   UNL     1      -1.029  11.478  21.350  0.00  0.00    +0.000 N 
ATOM     16  H   UNL     1      -1.443  12.336  21.010  0.00  0.00    +0.000 HD
ENDBRANCH   1  11
BRANCH   3  17
ATOM     17  C   UNL     1       3.483   6.184  17.785  0.00  0.00    +0.000 C 
BRANCH  17  18
ATOM     18  C   UNL     1       4.127   5.066  18.579  0.00  0.00    +0.000 C 
ATOM     19  C   UNL     1       5.511   5.270  19.187  0.00  0.00    +0.000 C 
ATOM     20  C   UNL     1       5.347   4.304  18.054  0.00  0.00    +0.000 C 
BRANCH  18  21
ATOM     21  C   UNL     1       3.129   4.159  19.295  0.00  0.00    +0.000 A 
ATOM     22  C   UNL     1       2.993   4.223  20.696  0.00  0.00    +0.000 A 
ATOM     23  C   UNL     1       1.899   3.656  21.342  0.00  0.00    +0.000 A 
ATOM     24  C   UNL     1       0.933   2.983  20.598  0.00  0.00    +0.000 A 
ATOM     25  C   UNL     1       1.124   2.811  19.233  0.00  0.00    +0.000 A 
ATOM     26  F   UNL     1       0.199   2.158  18.516  0.00  0.00    +0.000 F 
ATOM     27  C   UNL     1       2.221   3.362  18.587  0.00  0.00    +0.000 A 
ENDBRANCH  18  21
ENDBRANCH  17  18
ENDBRANCH   3  17
TORSDOF 4
ENDMDL
MODEL 4
REMARK VINA RESULT:      -8.3      0.851      1.643
REMARK  Name = 
REMARK  4 active torsions:
REMARK  status: ('A' for Active; 'I' for Inactive)
REMARK    1  A    between atoms: C_7  and  C_8
REMARK    2  A    between atoms: N_10  and  C_11
REMARK    3  A    between atoms: C_11  and  C_12
REMARK    4  A    between atoms: C_12  and  C_13
REMARK                            x       y       z     vdW  Elec       q    Type
REMARK                         _______ _______ _______ _____ _____    ______ ____
ROOT
ATOM      1  C   UNL     1       3.293   5.547  18.859  0.00  0.00    +0.000 C 
ATOM      2  O   UNL     1       3.555   4.586  19.574  0.00  0.00    +0.000 OA
ATOM      3  N   UNL     1       3.651   5.607  17.529  0.00  0.00    +0.000 N 
ATOM      4  H   UNL     1       3.201   6.277  16.917  0.00  0.00    +0.000 HD
ENDROOT
BRANCH   1  11
ATOM      5  O   UNL     1      -1.005  11.794  20.253  0.00  0.00    +0.000 OA
ATOM      6  C   UNL     1      -0.295  10.882  19.831  0.00  0.00    +0.000 C 
ATOM      7  C   UNL     1       0.028  10.712  18.367  0.00  0.00    +0.000 C 
ATOM      8  C   UNL     1       1.407  10.110  18.163  0.00  0.00    +0.000 C 
ATOM      9  C   UNL     1       1.569   8.883  19.016  0.00  0.00    +0.000 A 
ATOM     10  C   UNL     1       2.365   7.811  18.597  0.00  0.00    +0.000 A 
ATOM     11  C   UNL     1       2.540   6.694  19.425  0.00  0.00    +0.000 A 
ATOM     12  C   UNL     1       1.961   6.670  20.698  0.00  0.00    +0.000 A 
ATOM     13  C   UNL     1       1.181   7.749  21.129  0.00  0.00    +0.000 A 
ATOM     14  C   UNL     1       0.970   8.835  20.276  0.00  0.00    +0.000 A 
ATOM     15  N   UNL     1       0.142   9.889  20.676  0.00  0.00    +0.000 N 
ATOM     16  H   UNL     1      -0.206   9.936  21.624  0.00  0.00    +0.000 HD
ENDBRANCH   1  11
BRANCH   3  17
ATOM     17  C   UNL     1       4.310   4.447  16.964  0.00  0.00    +0.000 C 
BRANCH  17  18
ATOM     18  C   UNL     1       5.582   4.721  16.189  0.00  0.00    +0.000 C 
ATOM     19  C   UNL     1       5.523   4.890  14.674  0.00  0.00    +0.000 C 
ATOM     20  C   UNL     1       6.191   3.678  15.247  0.00  0.00    +0.000 C 
BRANCH  18  21
ATOM     21  C   UNL     1       6.638   5.488  16.980  0.00  0.00    +0.000 A 
ATOM     22  C   UNL     1       6.965   6.812  16.626  0.00  0.00    +0.000 A 
ATOM     23  C   UNL     1       7.674   7.638  17.493  0.00  0.00    +0.000 A 
ATOM     24  C   UNL     1       8.100   7.142  18.723  0.00  0.00    +0.000 A 
ATOM     25  C   UNL     1       7.887   5.802  19.025  0.00  0.00    +0.000 A 
ATOM     26  F   UNL     1       8.302   5.320  20.206  0.00  0.00    +0.000 F 
ATOM     27  C   UNL     1       7.194   4.971  18.158  0.00  0.00    +0.000 A 
ENDBRANCH  18  21
ENDBRANCH  17  18
ENDBRANCH   3  17
TORSDOF 4
ENDMDL
MODEL 5
REMARK VINA RESULT:      -8.1      1.209      2.091
REMARK  Name = 
REMARK  4 active torsions:
REMARK  status: ('A' for Active; 'I' for Inactive)
REMARK    1  A    between atoms: C_7  and  C_8
REMARK    2  A    between atoms: N_10  and  C_11
REMARK    3  A    between atoms: C_11  and  C_12
REMARK    4  A    between atoms: C_12  and  C_13
REMARK                            x       y       z     vdW  Elec       q    Type
REMARK                         _______ _______ _______ _____ _____    ______ ____
ROOT
ATOM      1  C   UNL     1       3.099   5.883  18.964  0.00  0.00    +0.000 C 
ATOM      2  O   UNL     1       3.549   5.013  19.702  0.00  0.00    +0.000 OA
ATOM      3  N   UNL     1       3.239   5.845  17.593  0.00  0.00    +0.000 N 
ATOM      4  H   UNL     1       2.644   6.422  17.011  0.00  0.00    +0.000 HD
ENDROOT
BRANCH   1  11
ATOM      5  O   UNL     1      -1.202  12.100  20.476  0.00  0.00    +0.000 OA
ATOM      6  C   UNL     1      -0.495  11.195  20.035  0.00  0.00    +0.000 C 
ATOM      7  C   UNL     1      -0.193  11.040  18.566  0.00  0.00    +0.000 C 
ATOM      8  C   UNL     1       1.186  10.445  18.337  0.00  0.00    +0.000 C 
ATOM      9  C   UNL     1       1.365   9.211  19.177  0.00  0.00    +0.000 A 
ATOM     10  C   UNL     1       2.159   8.146  18.736  0.00  0.00    +0.000 A 
ATOM     11  C   UNL     1       2.350   7.023  19.552  0.00  0.00    +0.000 A 
ATOM     12  C   UNL     1       1.789   6.984  20.832  0.00  0.00    +0.000 A 
ATOM     13  C   UNL     1       1.011   8.057  21.284  0.00  0.00    +0.000 A 
ATOM     14  C   UNL     1       0.784   9.150  20.444  0.00  0.00    +0.000 A 
ATOM     15  N   UNL     1      -0.042  10.197  20.866  0.00  0.00    +0.000 N 
ATOM     16  H   UNL     1      -0.377  10.233  21.819  0.00  0.00    +0.000 HD
ENDBRANCH   1  11
BRANCH   3  17
ATOM     17  C   UNL     1       3.897   4.687  17.024  0.00  0.00    +0.000 C 
BRANCH  17  18
ATOM     18  C   UNL     1       5.287   4.920  16.471  0.00  0.00    +0.000 C 
ATOM     19  C   UNL     1       5.499   4.992  14.963  0.00  0.00    +0.000 C 
ATOM     20  C   UNL     1       6.051   3.825  15.722  0.00  0.00    +0.000 C 
BRANCH  18  21
ATOM     21  C   UNL     1       6.188   5.747  17.386  0.00  0.00    +0.000 A 
ATOM     22  C   UNL     1       6.791   5.151  18.512  0.00  0.00    +0.000 A 
ATOM     23  C   UNL     1       7.846   5.768  19.177  0.00  0.00    +0.000 A 
ATOM     24  C   UNL     1       8.297   7.013  18.748  0.00  0.00    +0.000 A 
ATOM     25  C   UNL     1       7.628   7.660  17.716  0.00  0.00    +0.000 A 
ATOM     26  F   UNL     1       8.056   8.862  17.305  0.00  0.00    +0.000 F 
ATOM     27  C   UNL     1       6.566   7.055  17.059  0.00  0.00    +0.000 A 
ENDBRANCH  18  21
ENDBRANCH  17  18
ENDBRANCH   3  17
TORSDOF 4
ENDMDL
MODEL 6
REMARK VINA RESULT:      -8.1      2.818      4.645
REMARK  Name = 
REMARK  4 active torsions:
REMARK  status: ('A' for Active; 'I' for Inactive)
REMARK    1  A    between atoms: C_7  and  C_8
REMARK    2  A    between atoms: N_10  and  C_11
REMARK    3  A    between atoms: C_11  and  C_12
REMARK    4  A    between atoms: C_12  and  C_13
REMARK                            x       y       z     vdW  Elec       q    Type
REMARK                         _______ _______ _______ _____ _____    ______ ____
ROOT
ATOM      1  C   UNL     1       1.465   8.929  18.959  0.00  0.00    +0.000 C 
ATOM      2  O   UNL     1       1.351   9.468  17.864  0.00  0.00    +0.000 OA
ATOM      3  N   UNL     1       2.234   7.802  19.159  0.00  0.00    +0.000 N 
ATOM      4  H   UNL     1       2.514   7.545  20.098  0.00  0.00    +0.000 HD
ENDROOT
BRANCH   1  11
ATOM      5  O   UNL     1      -3.154  12.549  23.959  0.00  0.00    +0.000 OA
ATOM      6  C   UNL     1      -2.492  12.116  23.016  0.00  0.00    +0.000 C 
ATOM      7  C   UNL     1      -2.749  12.523  21.587  0.00  0.00    +0.000 C 
ATOM      8  C   UNL     1      -1.470  12.531  20.768  0.00  0.00    +0.000 C 
ATOM      9  C   UNL     1      -0.724  11.240  20.957  0.00  0.00    +0.000 A 
ATOM     10  C   UNL     1       0.048  10.694  19.926  0.00  0.00    +0.000 A 
ATOM     11  C   UNL     1       0.772   9.512  20.136  0.00  0.00    +0.000 A 
ATOM     12  C   UNL     1       0.765   8.901  21.394  0.00  0.00    +0.000 A 
ATOM     13  C   UNL     1       0.010   9.456  22.433  0.00  0.00    +0.000 A 
ATOM     14  C   UNL     1      -0.749  10.606  22.200  0.00  0.00    +0.000 A 
ATOM     15  N   UNL     1      -1.555  11.130  23.216  0.00  0.00    +0.000 N 
ATOM     16  H   UNL     1      -1.499  10.762  24.156  0.00  0.00    +0.000 HD
ENDBRANCH   1  11
BRANCH   3  17
ATOM     17  C   UNL     1       2.974   7.292  18.024  0.00  0.00    +0.000 C 
BRANCH  17  18
ATOM     18  C   UNL     1       3.532   5.892  18.173  0.00  0.00    +0.000 C 
ATOM     19  C   UNL     1       5.038   5.687  18.297  0.00  0.00    +0.000 C 
ATOM     20  C   UNL     1       4.339   5.222  17.057  0.00  0.00    +0.000 C 
BRANCH  18  21
ATOM     21  C   UNL     1       2.591   4.921  18.883  0.00  0.00    +0.000 A 
ATOM     22  C   UNL     1       1.620   4.212  18.149  0.00  0.00    +0.000 A 
ATOM     23  C   UNL     1       0.968   3.108  18.691  0.00  0.00    +0.000 A 
ATOM     24  C   UNL     1       1.254   2.712  19.995  0.00  0.00    +0.000 A 
ATOM     25  C   UNL     1       2.119   3.479  20.765  0.00  0.00    +0.000 A 
ATOM     26  F   UNL     1       2.391   3.103  22.023  0.00  0.00    +0.000 F 
ATOM     27  C   UNL     1       2.760   4.589  20.234  0.00  0.00    +0.000 A 
ENDBRANCH  18  21
ENDBRANCH  17  18
ENDBRANCH   3  17
TORSDOF 4
ENDMDL
MODEL 7
REMARK VINA RESULT:      -8.1      1.199      1.551
REMARK  Name = 
REMARK  4 active torsions:
REMARK  status: ('A' for Active; 'I' for Inactive)
REMARK    1  A    between atoms: C_7  and  C_8
REMARK    2  A    between atoms: N_10  and  C_11
REMARK    3  A    between atoms: C_11  and  C_12
REMARK    4  A    between atoms: C_12  and  C_13
REMARK                            x       y       z     vdW  Elec       q    Type
REMARK                         _______ _______ _______ _____ _____    ______ ____
ROOT
ATOM      1  C   UNL     1       2.663   6.251  19.173  0.00  0.00    +0.000 C 
ATOM      2  O   UNL     1       2.981   5.468  20.062  0.00  0.00    +0.000 OA
ATOM      3  N   UNL     1       2.965   6.036  17.845  0.00  0.00    +0.000 N 
ATOM      4  H   UNL     1       2.471   6.552  17.127  0.00  0.00    +0.000 HD
ENDROOT
BRANCH   1  11
ATOM      5  O   UNL     1      -1.021  12.152  22.496  0.00  0.00    +0.000 OA
ATOM      6  C   UNL     1      -0.472  11.106  22.154  0.00  0.00    +0.000 C 
ATOM      7  C   UNL     1      -0.141  10.003  23.128  0.00  0.00    +0.000 C 
ATOM      8  C   UNL     1      -0.216   8.636  22.473  0.00  0.00    +0.000 C 
ATOM      9  C   UNL     1       0.565   8.631  21.189  0.00  0.00    +0.000 A 
ATOM     10  C   UNL     1       1.212   7.474  20.740  0.00  0.00    +0.000 A 
ATOM     11  C   UNL     1       1.899   7.476  19.519  0.00  0.00    +0.000 A 
ATOM     12  C   UNL     1       1.897   8.623  18.718  0.00  0.00    +0.000 A 
ATOM     13  C   UNL     1       1.235   9.776  19.154  0.00  0.00    +0.000 A 
ATOM     14  C   UNL     1       0.596   9.779  20.397  0.00  0.00    +0.000 A 
ATOM     15  N   UNL     1      -0.016  10.946  20.866  0.00  0.00    +0.000 N 
ATOM     16  H   UNL     1      -0.111  11.753  20.264  0.00  0.00    +0.000 HD
ENDBRANCH   1  11
BRANCH   3  17
ATOM     17  C   UNL     1       3.635   4.797  17.508  0.00  0.00    +0.000 C 
BRANCH  17  18
ATOM     18  C   UNL     1       4.992   4.936  16.849  0.00  0.00    +0.000 C 
ATOM     19  C   UNL     1       5.098   4.934  15.328  0.00  0.00    +0.000 C 
ATOM     20  C   UNL     1       5.647   3.773  16.099  0.00  0.00    +0.000 C 
BRANCH  18  21
ATOM     21  C   UNL     1       5.995   5.753  17.661  0.00  0.00    +0.000 A 
ATOM     22  C   UNL     1       6.555   5.219  18.838  0.00  0.00    +0.000 A 
ATOM     23  C   UNL     1       7.684   5.785  19.423  0.00  0.00    +0.000 A 
ATOM     24  C   UNL     1       8.256   6.922  18.856  0.00  0.00    +0.000 A 
ATOM     25  C   UNL     1       7.637   7.523  17.768  0.00  0.00    +0.000 A 
ATOM     26  F   UNL     1       8.182   8.621  17.224  0.00  0.00    +0.000 F 
ATOM     27  C   UNL     1       6.503   6.971  17.190  0.00  0.00    +0.000 A 
ENDBRANCH  18  21
ENDBRANCH  17  18
ENDBRANCH   3  17
TORSDOF 4
ENDMDL
MODEL 8
REMARK VINA RESULT:      -8.1      3.008      4.721
REMARK  Name = 
REMARK  4 active torsions:
REMARK  status: ('A' for Active; 'I' for Inactive)
REMARK    1  A    between atoms: C_7  and  C_8
REMARK    2  A    between atoms: N_10  and  C_11
REMARK    3  A    between atoms: C_11  and  C_12
REMARK    4  A    between atoms: C_12  and  C_13
REMARK                            x       y       z     vdW  Elec       q    Type
REMARK                         _______ _______ _______ _____ _____    ______ ____
ROOT
ATOM      1  C   UNL     1       1.719   8.689  18.978  0.00  0.00    +0.000 C 
ATOM      2  O   UNL     1       1.857   9.344  17.951  0.00  0.00    +0.000 OA
ATOM      3  N   UNL     1       2.219   7.413  19.123  0.00  0.00    +0.000 N 
ATOM      4  H   UNL     1       2.317   7.013  20.048  0.00  0.00    +0.000 HD
ENDROOT
BRANCH   1  11
ATOM      5  O   UNL     1      -2.937  12.448  23.840  0.00  0.00    +0.000 OA
ATOM      6  C   UNL     1      -2.257  11.998  22.919  0.00  0.00    +0.000 C 
ATOM      7  C   UNL     1      -2.437  12.435  21.486  0.00  0.00    +0.000 C 
ATOM      8  C   UNL     1      -1.126  12.395  20.720  0.00  0.00    +0.000 C 
ATOM      9  C   UNL     1      -0.446  11.070  20.920  0.00  0.00    +0.000 A 
ATOM     10  C   UNL     1       0.343  10.503  19.914  0.00  0.00    +0.000 A 
ATOM     11  C   UNL     1       1.005   9.287  20.134  0.00  0.00    +0.000 A 
ATOM     12  C   UNL     1       0.919   8.661  21.382  0.00  0.00    +0.000 A 
ATOM     13  C   UNL     1       0.146   9.236  22.398  0.00  0.00    +0.000 A 
ATOM     14  C   UNL     1      -0.551  10.421  22.151  0.00  0.00    +0.000 A 
ATOM     15  N   UNL     1      -1.373  10.968  23.142  0.00  0.00    +0.000 N 
ATOM     16  H   UNL     1      -1.373  10.585  24.077  0.00  0.00    +0.000 HD
ENDBRANCH   1  11
BRANCH   3  17
ATOM     17  C   UNL     1       2.988   6.871  18.021  0.00  0.00    +0.000 C 
BRANCH  17  18
ATOM     18  C   UNL     1       3.745   5.591  18.309  0.00  0.00    +0.000 C 
ATOM     19  C   UNL     1       5.259   5.632  18.484  0.00  0.00    +0.000 C 
ATOM     20  C   UNL     1       4.683   4.960  17.276  0.00  0.00    +0.000 C 
BRANCH  18  21
ATOM     21  C   UNL     1       2.937   4.553  19.083  0.00  0.00    +0.000 A 
ATOM     22  C   UNL     1       2.984   4.523  20.491  0.00  0.00    +0.000 A 
ATOM     23  C   UNL     1       2.041   3.817  21.231  0.00  0.00    +0.000 A 
ATOM     24  C   UNL     1       1.048   3.096  20.572  0.00  0.00    +0.000 A 
ATOM     25  C   UNL     1       1.069   3.022  19.185  0.00  0.00    +0.000 A 
ATOM     26  F   UNL     1       0.118   2.323  18.549  0.00  0.00    +0.000 F 
ATOM     27  C   UNL     1       2.016   3.712  18.443  0.00  0.00    +0.000 A 
ENDBRANCH  18  21
ENDBRANCH  17  18
ENDBRANCH   3  17
TORSDOF 4
ENDMDL
MODEL 9
REMARK VINA RESULT:      -8.0      1.536      2.417
REMARK  Name = 
REMARK  4 active torsions:
REMARK  status: ('A' for Active; 'I' for Inactive)
REMARK    1  A    between atoms: C_7  and  C_8
REMARK    2  A    between atoms: N_10  and  C_11
REMARK    3  A    between atoms: C_11  and  C_12
REMARK    4  A    between atoms: C_12  and  C_13
REMARK                            x       y       z     vdW  Elec       q    Type
REMARK                         _______ _______ _______ _____ _____    ______ ____
ROOT
ATOM      1  C   UNL     1       2.692   6.785  19.349  0.00  0.00    +0.000 C 
ATOM      2  O   UNL     1       3.704   6.991  18.687  0.00  0.00    +0.000 OA
ATOM      3  N   UNL     1       2.383   5.548  19.874  0.00  0.00    +0.000 N 
ATOM      4  H   UNL     1       1.699   5.474  20.617  0.00  0.00    +0.000 HD
ENDROOT
BRANCH   1  11
ATOM      5  O   UNL     1      -1.769  12.316  22.339  0.00  0.00    +0.000 OA
ATOM      6  C   UNL     1      -1.076  11.339  22.058  0.00  0.00    +0.000 C 
ATOM      7  C   UNL     1      -0.566  10.376  23.101  0.00  0.00    +0.000 C 
ATOM      8  C   UNL     1      -0.448   8.965  22.550  0.00  0.00    +0.000 C 
ATOM      9  C   UNL     1       0.301   8.977  21.247  0.00  0.00    +0.000 A 
ATOM     10  C   UNL     1       1.105   7.897  20.865  0.00  0.00    +0.000 A 
ATOM     11  C   UNL     1       1.760   7.907  19.627  0.00  0.00    +0.000 A 
ATOM     12  C   UNL     1       1.572   8.975  18.744  0.00  0.00    +0.000 A 
ATOM     13  C   UNL     1       0.753  10.048  19.115  0.00  0.00    +0.000 A 
ATOM     14  C   UNL     1       0.144  10.053  20.372  0.00  0.00    +0.000 A 
ATOM     15  N   UNL     1      -0.626  11.149  20.773  0.00  0.00    +0.000 N 
ATOM     16  H   UNL     1      -0.852  11.884  20.116  0.00  0.00    +0.000 HD
ENDBRANCH   1  11
BRANCH   3  17
ATOM     17  C   UNL     1       3.341   4.481  19.670  0.00  0.00    +0.000 C 
BRANCH  17  18
ATOM     18  C   UNL     1       3.338   3.842  18.297  0.00  0.00    +0.000 C 
ATOM     19  C   UNL     1       2.028   3.707  17.529  0.00  0.00    +0.000 C 
ATOM     20  C   UNL     1       2.700   2.473  18.047  0.00  0.00    +0.000 C 
BRANCH  18  21
ATOM     21  C   UNL     1       4.637   4.037  17.519  0.00  0.00    +0.000 A 
ATOM     22  C   UNL     1       4.605   4.227  16.123  0.00  0.00    +0.000 A 
ATOM     23  C   UNL     1       5.712   4.714  15.434  0.00  0.00    +0.000 A 
ATOM     24  C   UNL     1       6.888   4.989  16.127  0.00  0.00    +0.000 A 
ATOM     25  C   UNL     1       6.965   4.688  17.481  0.00  0.00    +0.000 A 
ATOM     26  F   UNL     1       8.098   4.946  18.150  0.00  0.00    +0.000 F 
ATOM     27  C   UNL     1       5.868   4.189  18.170  0.00  0.00    +0.000 A 
ENDBRANCH  18  21
ENDBRANCH  17  18
ENDBRANCH   3  17
TORSDOF 4
ENDMDL
