MODEL 1
REMARK VINA RESULT:      -8.5      0.000      0.000
REMARK  Name = 
REMARK  3 active torsions:
REMARK  status: ('A' for Active; 'I' for Inactive)
REMARK    1  A    between atoms: C_1  and  C_2
REMARK    2  A    between atoms: C_5  and  N_6
REMARK    3  A    between atoms: C_13  and  C_14
REMARK                            x       y       z     vdW  Elec       q    Type
REMARK                         _______ _______ _______ _____ _____    ______ ____
ROOT
ATOM      1  N   UNL     1       1.991   7.145  19.535  0.00  0.00    +0.000 N 
ATOM      2  C   UNL     1       1.338   7.590  20.765  0.00  0.00    +0.000 C 
ATOM      3  C   UNL     1       1.020   9.024  20.496  0.00  0.00    +0.000 A 
ATOM      4  C   UNL     1       1.467   9.368  19.221  0.00  0.00    +0.000 A 
ATOM      5  C   UNL     1       1.314  10.622  18.672  0.00  0.00    +0.000 A 
ATOM      6  C   UNL     1       0.674  11.588  19.446  0.00  0.00    +0.000 A 
ATOM      7  C   UNL     1       0.227  11.271  20.742  0.00  0.00    +0.000 A 
ATOM      8  C   UNL     1       0.397   9.987  21.292  0.00  0.00    +0.000 A 
ATOM      9  C   UNL     1       2.106   8.199  18.618  0.00  0.00    +0.000 C 
ATOM     10  O   UNL     1       2.618   8.226  17.516  0.00  0.00    +0.000 OA
ENDROOT
BRANCH   1  15
ATOM     11  C   UNL     1       3.625   1.494  18.369  0.00  0.00    +0.000 C 
ATOM     12  C   UNL     1       3.381   2.989  18.446  0.00  0.00    +0.000 C 
ATOM     13  C   UNL     1       2.324   3.428  19.158  0.00  0.00    +0.000 C 
ATOM     14  C   UNL     1       1.821   4.778  19.303  0.00  0.00    +0.000 C 
ATOM     15  C   UNL     1       2.579   5.894  19.386  0.00  0.00    +0.000 C 
ATOM     16  C   UNL     1       4.087   5.795  19.360  0.00  0.00    +0.000 C 
ATOM     17  N   UNL     1       4.569   5.134  18.176  0.00  0.00    +0.000 N 
ATOM     18  C   UNL     1       5.507   5.626  17.316  0.00  0.00    +0.000 A 
ATOM     19  N   UNL     1       5.718   4.753  16.359  0.00  0.00    +0.000 NA
ATOM     20  N   UNL     1       4.935   3.652  16.626  0.00  0.00    +0.000 NA
ATOM     21  C   UNL     1       4.242   3.881  17.726  0.00  0.00    +0.000 A 
ENDBRANCH   1  15
BRANCH   8  22
ATOM     22  C   UNL     1      -0.071   9.706  22.696  0.00  0.00    +0.000 C 
ATOM     23  F   UNL     1      -0.702  10.763  23.275  0.00  0.00    +0.000 F 
ATOM     24  F   UNL     1      -0.955   8.671  22.749  0.00  0.00    +0.000 F 
ATOM     25  F   UNL     1       0.948   9.374  23.534  0.00  0.00    +0.000 F 
ENDBRANCH   8  22
TORSDOF 2
ENDMDL
MODEL 2
REMARK VINA RESULT:      -8.2      5.752      8.551
REMARK  Name = 
REMARK  3 active torsions:
REMARK  status: ('A' for Active; 'I' for Inactive)
REMARK    1  A    between atoms: C_1  and  C_2
REMARK    2  A    between atoms: C_5  and  N_6
REMARK    3  A    between atoms: C_13  and  C_14
REMARK                            x       y       z     vdW  Elec       q    Type
REMARK                         _______ _______ _______ _____ _____    ______ ____
ROOT
ATOM      1  N   UNL     1       5.421   4.732  16.095  0.00  0.00    +0.000 N 
ATOM      2  C   UNL     1       4.890   4.053  14.914  0.00  0.00    +0.000 C 
ATOM      3  C   UNL     1       5.919   4.317  13.865  0.00  0.00    +0.000 A 
ATOM      4  C   UNL     1       6.943   5.094  14.403  0.00  0.00    +0.000 A 
ATOM      5  C   UNL     1       8.048   5.500  13.687  0.00  0.00    +0.000 A 
ATOM      6  C   UNL     1       8.131   5.104  12.354  0.00  0.00    +0.000 A 
ATOM      7  C   UNL     1       7.103   4.333  11.782  0.00  0.00    +0.000 A 
ATOM      8  C   UNL     1       5.976   3.932  12.524  0.00  0.00    +0.000 A 
ATOM      9  C   UNL     1       6.626   5.384  15.800  0.00  0.00    +0.000 C 
ATOM     10  O   UNL     1       7.334   6.076  16.505  0.00  0.00    +0.000 OA
ENDROOT
BRANCH   1  15
ATOM     11  C   UNL     1       1.724   5.891  20.673  0.00  0.00    +0.000 C 
ATOM     12  C   UNL     1       2.524   5.348  19.504  0.00  0.00    +0.000 C 
ATOM     13  C   UNL     1       3.244   6.216  18.765  0.00  0.00    +0.000 C 
ATOM     14  C   UNL     1       4.001   5.972  17.556  0.00  0.00    +0.000 C 
ATOM     15  C   UNL     1       4.719   4.859  17.289  0.00  0.00    +0.000 C 
ATOM     16  C   UNL     1       4.806   3.746  18.308  0.00  0.00    +0.000 C 
ATOM     17  N   UNL     1       3.509   3.243  18.677  0.00  0.00    +0.000 N 
ATOM     18  C   UNL     1       3.124   1.936  18.643  0.00  0.00    +0.000 A 
ATOM     19  N   UNL     1       1.884   1.838  19.064  0.00  0.00    +0.000 NA
ATOM     20  N   UNL     1       1.470   3.102  19.421  0.00  0.00    +0.000 NA
ATOM     21  C   UNL     1       2.452   3.951  19.190  0.00  0.00    +0.000 A 
ENDBRANCH   1  15
BRANCH   8  22
ATOM     22  C   UNL     1       4.887   3.133  11.858  0.00  0.00    +0.000 C 
ATOM     23  F   UNL     1       3.773   2.995  12.628  0.00  0.00    +0.000 F 
ATOM     24  F   UNL     1       4.466   3.700  10.694  0.00  0.00    +0.000 F 
ATOM     25  F   UNL     1       5.280   1.869  11.540  0.00  0.00    +0.000 F 
ENDBRANCH   8  22
TORSDOF 2
ENDMDL
MODEL 3
REMARK VINA RESULT:      -8.1      3.227      7.153
REMARK  Name = 
REMARK  3 active torsions:
REMARK  status: ('A' for Active; 'I' for Inactive)
REMARK    1  A    between atoms: C_1  and  C_2
REMARK    2  A    between atoms: C_5  and  N_6
REMARK    3  A    between atoms: C_13  and  C_14
REMARK                            x       y       z     vdW  Elec       q    Type
REMARK                         _______ _______ _______ _____ _____    ______ ____
ROOT
ATOM      1  N   UNL     1       1.513   7.912  20.131  0.00  0.00    +0.000 N 
ATOM      2  C   UNL     1       1.459   6.581  20.732  0.00  0.00    +0.000 C 
ATOM      3  C   UNL     1       2.300   5.750  19.820  0.00  0.00    +0.000 A 
ATOM      4  C   UNL     1       2.782   6.543  18.780  0.00  0.00    +0.000 A 
ATOM      5  C   UNL     1       3.598   6.070  17.776  0.00  0.00    +0.000 A 
ATOM      6  C   UNL     1       3.954   4.724  17.817  0.00  0.00    +0.000 A 
ATOM      7  C   UNL     1       3.469   3.898  18.848  0.00  0.00    +0.000 A 
ATOM      8  C   UNL     1       2.629   4.393  19.863  0.00  0.00    +0.000 A 
ATOM      9  C   UNL     1       2.269   7.901  18.951  0.00  0.00    +0.000 C 
ATOM     10  O   UNL     1       2.504   8.797  18.164  0.00  0.00    +0.000 OA
ENDROOT
BRANCH   1  15
ATOM     11  C   UNL     1      -1.310  12.342  23.027  0.00  0.00    +0.000 C 
ATOM     12  C   UNL     1      -0.422  11.427  22.204  0.00  0.00    +0.000 C 
ATOM     13  C   UNL     1      -0.492  10.099  22.427  0.00  0.00    +0.000 C 
ATOM     14  C   UNL     1       0.308   9.037  21.855  0.00  0.00    +0.000 C 
ATOM     15  C   UNL     1       0.757   8.990  20.581  0.00  0.00    +0.000 C 
ATOM     16  C   UNL     1       0.407  10.093  19.608  0.00  0.00    +0.000 C 
ATOM     17  N   UNL     1       0.828  11.386  20.078  0.00  0.00    +0.000 N 
ATOM     18  C   UNL     1       1.595  12.274  19.383  0.00  0.00    +0.000 A 
ATOM     19  N   UNL     1       1.769  13.356  20.105  0.00  0.00    +0.000 NA
ATOM     20  N   UNL     1       1.063  13.186  21.276  0.00  0.00    +0.000 NA
ATOM     21  C   UNL     1       0.493  11.997  21.259  0.00  0.00    +0.000 A 
ENDBRANCH   1  15
BRANCH   8  22
ATOM     22  C   UNL     1       2.110   3.462  20.927  0.00  0.00    +0.000 C 
ATOM     23  F   UNL     1       2.572   2.188  20.799  0.00  0.00    +0.000 F 
ATOM     24  F   UNL     1       2.462   3.861  22.180  0.00  0.00    +0.000 F 
ATOM     25  F   UNL     1       0.753   3.368  20.928  0.00  0.00    +0.000 F 
ENDBRANCH   8  22
TORSDOF 2
ENDMDL
MODEL 4
REMARK VINA RESULT:      -8.0      3.452      7.167
REMARK  Name = 
REMARK  3 active torsions:
REMARK  status: ('A' for Active; 'I' for Inactive)
REMARK    1  A    between atoms: C_1  and  C_2
REMARK    2  A    between atoms: C_5  and  N_6
REMARK    3  A    between atoms: C_13  and  C_14
REMARK                            x       y       z     vdW  Elec       q    Type
REMARK                         _______ _______ _______ _____ _____    ______ ____
ROOT
ATOM      1  N   UNL     1       2.261   7.534  19.262  0.00  0.00    +0.000 N 
ATOM      2  C   UNL     1       2.397   6.108  19.557  0.00  0.00    +0.000 C 
ATOM      3  C   UNL     1       3.320   5.615  18.491  0.00  0.00    +0.000 A 
ATOM      4  C   UNL     1       3.669   6.672  17.653  0.00  0.00    +0.000 A 
ATOM      5  C   UNL     1       4.518   6.543  16.575  0.00  0.00    +0.000 A 
ATOM      6  C   UNL     1       5.049   5.280  16.324  0.00  0.00    +0.000 A 
ATOM      7  C   UNL     1       4.701   4.193  17.147  0.00  0.00    +0.000 A 
ATOM      8  C   UNL     1       3.826   4.339  18.239  0.00  0.00    +0.000 A 
ATOM      9  C   UNL     1       2.984   7.880  18.113  0.00  0.00    +0.000 C 
ATOM     10  O   UNL     1       3.081   8.948  17.541  0.00  0.00    +0.000 OA
ENDROOT
BRANCH   1  15
ATOM     11  C   UNL     1      -0.979  10.901  23.022  0.00  0.00    +0.000 C 
ATOM     12  C   UNL     1      -0.034  10.294  22.001  0.00  0.00    +0.000 C 
ATOM     13  C   UNL     1       0.148   8.958  22.014  0.00  0.00    +0.000 C 
ATOM     14  C   UNL     1       1.058   8.156  21.225  0.00  0.00    +0.000 C 
ATOM     15  C   UNL     1       1.379   8.376  19.931  0.00  0.00    +0.000 C 
ATOM     16  C   UNL     1       0.750   9.523  19.173  0.00  0.00    +0.000 C 
ATOM     17  N   UNL     1       0.987  10.792  19.811  0.00  0.00    +0.000 N 
ATOM     18  C   UNL     1       1.517  11.896  19.213  0.00  0.00    +0.000 A 
ATOM     19  N   UNL     1       1.573  12.877  20.085  0.00  0.00    +0.000 NA
ATOM     20  N   UNL     1       1.027  12.413  21.261  0.00  0.00    +0.000 NA
ATOM     21  C   UNL     1       0.670  11.154  21.096  0.00  0.00    +0.000 A 
ENDBRANCH   1  15
BRANCH   8  22
ATOM     22  C   UNL     1       3.460   3.138  19.071  0.00  0.00    +0.000 C 
ATOM     23  F   UNL     1       4.038   1.985  18.636  0.00  0.00    +0.000 F 
ATOM     24  F   UNL     1       3.836   3.275  20.372  0.00  0.00    +0.000 F 
ATOM     25  F   UNL     1       2.120   2.900  19.090  0.00  0.00    +0.000 F 
ENDBRANCH   8  22
TORSDOF 2
ENDMDL
MODEL 5
REMARK VINA RESULT:      -7.9      1.472      2.263
REMARK  Name = 
REMARK  3 active torsions:
REMARK  status: ('A' for Active; 'I' for Inactive)
REMARK    1  A    between atoms: C_1  and  C_2
REMARK    2  A    between atoms: C_5  and  N_6
REMARK    3  A    between atoms: C_13  and  C_14
REMARK                            x       y       z     vdW  Elec       q    Type
REMARK                         _______ _______ _______ _____ _____    ______ ____
ROOT
ATOM      1  N   UNL     1       1.995   8.154  18.801  0.00  0.00    +0.000 N 
ATOM      2  C   UNL     1       1.436   8.137  20.152  0.00  0.00    +0.000 C 
ATOM      3  C   UNL     1       0.875   9.510  20.318  0.00  0.00    +0.000 A 
ATOM      4  C   UNL     1       1.106  10.250  19.160  0.00  0.00    +0.000 A 
ATOM      5  C   UNL     1       0.699  11.556  18.995  0.00  0.00    +0.000 A 
ATOM      6  C   UNL     1       0.019  12.155  20.053  0.00  0.00    +0.000 A 
ATOM      7  C   UNL     1      -0.214  11.435  21.239  0.00  0.00    +0.000 A 
ATOM      8  C   UNL     1       0.214  10.104  21.395  0.00  0.00    +0.000 A 
ATOM      9  C   UNL     1       1.836   9.413  18.208  0.00  0.00    +0.000 C 
ATOM     10  O   UNL     1       2.202   9.819  17.122  0.00  0.00    +0.000 OA
ENDROOT
BRANCH   1  15
ATOM     11  C   UNL     1       6.069   4.256  16.756  0.00  0.00    +0.000 C 
ATOM     12  C   UNL     1       5.025   5.070  17.498  0.00  0.00    +0.000 C 
ATOM     13  C   UNL     1       4.803   6.339  17.101  0.00  0.00    +0.000 C 
ATOM     14  C   UNL     1       3.947   7.342  17.697  0.00  0.00    +0.000 C 
ATOM     15  C   UNL     1       2.743   7.111  18.266  0.00  0.00    +0.000 C 
ATOM     16  C   UNL     1       2.168   5.713  18.291  0.00  0.00    +0.000 C 
ATOM     17  N   UNL     1       3.045   4.775  18.941  0.00  0.00    +0.000 N 
ATOM     18  C   UNL     1       2.703   3.943  19.964  0.00  0.00    +0.000 A 
ATOM     19  N   UNL     1       3.743   3.214  20.298  0.00  0.00    +0.000 NA
ATOM     20  N   UNL     1       4.769   3.548  19.443  0.00  0.00    +0.000 NA
ATOM     21  C   UNL     1       4.349   4.490  18.621  0.00  0.00    +0.000 A 
ENDBRANCH   1  15
BRANCH   8  22
ATOM     22  C   UNL     1      -0.032   9.386  22.696  0.00  0.00    +0.000 C 
ATOM     23  F   UNL     1      -0.712  10.137  23.605  0.00  0.00    +0.000 F 
ATOM     24  F   UNL     1      -0.765   8.250  22.530  0.00  0.00    +0.000 F 
ATOM     25  F   UNL     1       1.119   9.004  23.313  0.00  0.00    +0.000 F 
ENDBRANCH   8  22
TORSDOF 2
ENDMDL
MODEL 6
REMARK VINA RESULT:      -7.9      2.342      3.345
REMARK  Name = 
REMARK  3 active torsions:
REMARK  status: ('A' for Active; 'I' for Inactive)
REMARK    1  A    between atoms: C_1  and  C_2
REMARK    2  A    between atoms: C_5  and  N_6
REMARK    3  A    between atoms: C_13  and  C_14
REMARK                            x       y       z     vdW  Elec       q    Type
REMARK                         _______ _______ _______ _____ _____    ______ ____
ROOT
ATOM      1  N   UNL     1       2.187   7.437  19.052  0.00  0.00    +0.000 N 
ATOM      2  C   UNL     1       1.790   8.787  18.655  0.00  0.00    +0.000 C 
ATOM      3  C   UNL     1       1.095   9.319  19.864  0.00  0.00    +0.000 A 
ATOM      4  C   UNL     1       1.087   8.346  20.862  0.00  0.00    +0.000 A 
ATOM      5  C   UNL     1       0.526   8.535  22.106  0.00  0.00    +0.000 A 
ATOM      6  C   UNL     1      -0.060   9.771  22.366  0.00  0.00    +0.000 A 
ATOM      7  C   UNL     1      -0.079  10.765  21.370  0.00  0.00    +0.000 A 
ATOM      8  C   UNL     1       0.491  10.556  20.101  0.00  0.00    +0.000 A 
ATOM      9  C   UNL     1       1.748   7.146  20.351  0.00  0.00    +0.000 C 
ATOM     10  O   UNL     1       1.852   6.125  21.002  0.00  0.00    +0.000 OA
ENDROOT
BRANCH   1  15
ATOM     11  C   UNL     1       5.577   3.773  15.727  0.00  0.00    +0.000 C 
ATOM     12  C   UNL     1       4.666   4.468  16.722  0.00  0.00    +0.000 C 
ATOM     13  C   UNL     1       4.694   5.814  16.782  0.00  0.00    +0.000 C 
ATOM     14  C   UNL     1       4.007   6.699  17.699  0.00  0.00    +0.000 C 
ATOM     15  C   UNL     1       2.758   6.516  18.180  0.00  0.00    +0.000 C 
ATOM     16  C   UNL     1       1.940   5.322  17.744  0.00  0.00    +0.000 C 
ATOM     17  N   UNL     1       2.605   4.076  18.020  0.00  0.00    +0.000 N 
ATOM     18  C   UNL     1       2.074   3.026  18.709  0.00  0.00    +0.000 A 
ATOM     19  N   UNL     1       2.950   2.049  18.755  0.00  0.00    +0.000 NA
ATOM     20  N   UNL     1       4.056   2.456  18.042  0.00  0.00    +0.000 NA
ATOM     21  C   UNL     1       3.848   3.679  17.596  0.00  0.00    +0.000 A 
ENDBRANCH   1  15
BRANCH   8  22
ATOM     22  C   UNL     1       0.418  11.640  19.059  0.00  0.00    +0.000 C 
ATOM     23  F   UNL     1       1.623  11.929  18.497  0.00  0.00    +0.000 F 
ATOM     24  F   UNL     1      -0.405  11.310  18.025  0.00  0.00    +0.000 F 
ATOM     25  F   UNL     1      -0.054  12.816  19.555  0.00  0.00    +0.000 F 
ENDBRANCH   8  22
TORSDOF 2
ENDMDL
MODEL 7
REMARK VINA RESULT:      -7.9      2.374      3.398
REMARK  Name = 
REMARK  3 active torsions:
REMARK  status: ('A' for Active; 'I' for Inactive)
REMARK    1  A    between atoms: C_1  and  C_2
REMARK    2  A    between atoms: C_5  and  N_6
REMARK    3  A    between atoms: C_13  and  C_14
REMARK                            x       y       z     vdW  Elec       q    Type
REMARK                         _______ _______ _______ _____ _____    ______ ____
ROOT
ATOM      1  N   UNL     1       2.086   7.943  19.126  0.00  0.00    +0.000 N 
ATOM      2  C   UNL     1       1.486   9.187  18.647  0.00  0.00    +0.000 C 
ATOM      3  C   UNL     1       0.708   9.678  19.823  0.00  0.00    +0.000 A 
ATOM      4  C   UNL     1       0.845   8.779  20.879  0.00  0.00    +0.000 A 
ATOM      5  C   UNL     1       0.254   8.954  22.111  0.00  0.00    +0.000 A 
ATOM      6  C   UNL     1      -0.520  10.098  22.295  0.00  0.00    +0.000 A 
ATOM      7  C   UNL     1      -0.687  11.013  21.240  0.00  0.00    +0.000 A 
ATOM      8  C   UNL     1      -0.083  10.818  19.985  0.00  0.00    +0.000 A 
ATOM      9  C   UNL     1       1.689   7.668  20.441  0.00  0.00    +0.000 C 
ATOM     10  O   UNL     1       1.947   6.718  21.155  0.00  0.00    +0.000 OA
ENDROOT
BRANCH   1  15
ATOM     11  C   UNL     1       5.959   4.884  15.717  0.00  0.00    +0.000 C 
ATOM     12  C   UNL     1       5.050   5.471  16.781  0.00  0.00    +0.000 C 
ATOM     13  C   UNL     1       4.562   6.713  16.590  0.00  0.00    +0.000 C 
ATOM     14  C   UNL     1       3.767   7.526  17.486  0.00  0.00    +0.000 C 
ATOM     15  C   UNL     1       2.799   7.070  18.311  0.00  0.00    +0.000 C 
ATOM     16  C   UNL     1       2.445   5.600  18.331  0.00  0.00    +0.000 C 
ATOM     17  N   UNL     1       3.581   4.770  18.635  0.00  0.00    +0.000 N 
ATOM     18  C   UNL     1       3.636   3.827  19.618  0.00  0.00    +0.000 A 
ATOM     19  N   UNL     1       4.816   3.250  19.599  0.00  0.00    +0.000 NA
ATOM     20  N   UNL     1       5.525   3.799  18.554  0.00  0.00    +0.000 NA
ATOM     21  C   UNL     1       4.779   4.716  17.969  0.00  0.00    +0.000 A 
ENDBRANCH   1  15
BRANCH   8  22
ATOM     22  C   UNL     1      -0.317  11.811  18.877  0.00  0.00    +0.000 C 
ATOM     23  F   UNL     1      -0.954  11.276  17.801  0.00  0.00    +0.000 F 
ATOM     24  F   UNL     1      -1.083  12.863  19.278  0.00  0.00    +0.000 F 
ATOM     25  F   UNL     1       0.838  12.348  18.398  0.00  0.00    +0.000 F 
ENDBRANCH   8  22
TORSDOF 2
ENDMDL
MODEL 8
REMARK VINA RESULT:      -7.8      3.270      7.085
REMARK  Name = 
REMARK  3 active torsions:
REMARK  status: ('A' for Active; 'I' for Inactive)
REMARK    1  A    between atoms: C_1  and  C_2
REMARK    2  A    between atoms: C_5  and  N_6
REMARK    3  A    between atoms: C_13  and  C_14
REMARK                            x       y       z     vdW  Elec       q    Type
REMARK                         _______ _______ _______ _____ _____    ______ ____
ROOT
ATOM      1  N   UNL     1       1.846   7.618  19.744  0.00  0.00    +0.000 N 
ATOM      2  C   UNL     1       1.804   6.231  20.207  0.00  0.00    +0.000 C 
ATOM      3  C   UNL     1       2.697   5.514  19.249  0.00  0.00    +0.000 A 
ATOM      4  C   UNL     1       3.195   6.417  18.311  0.00  0.00    +0.000 A 
ATOM      5  C   UNL     1       4.057   6.065  17.296  0.00  0.00    +0.000 A 
ATOM      6  C   UNL     1       4.443   4.729  17.216  0.00  0.00    +0.000 A 
ATOM      7  C   UNL     1       3.944   3.794  18.141  0.00  0.00    +0.000 A 
ATOM      8  C   UNL     1       3.058   4.167  19.168  0.00  0.00    +0.000 A 
ATOM      9  C   UNL     1       2.642   7.741  18.598  0.00  0.00    +0.000 C 
ATOM     10  O   UNL     1       2.882   8.715  17.913  0.00  0.00    +0.000 OA
ENDROOT
BRANCH   1  15
ATOM     11  C   UNL     1      -1.107  11.743  22.944  0.00  0.00    +0.000 C 
ATOM     12  C   UNL     1      -0.203  10.918  22.047  0.00  0.00    +0.000 C 
ATOM     13  C   UNL     1      -0.189   9.580  22.210  0.00  0.00    +0.000 C 
ATOM     14  C   UNL     1       0.647   8.592  21.561  0.00  0.00    +0.000 C 
ATOM     15  C   UNL     1       1.049   8.628  20.271  0.00  0.00    +0.000 C 
ATOM     16  C   UNL     1       0.600   9.751  19.364  0.00  0.00    +0.000 C 
ATOM     17  N   UNL     1       0.965  11.045  19.878  0.00  0.00    +0.000 N 
ATOM     18  C   UNL     1       1.653  12.005  19.198  0.00  0.00    +0.000 A 
ATOM     19  N   UNL     1       1.794  13.063  19.963  0.00  0.00    +0.000 NA
ATOM     20  N   UNL     1       1.145  12.800  21.149  0.00  0.00    +0.000 NA
ATOM     21  C   UNL     1       0.641  11.582  21.097  0.00  0.00    +0.000 A 
ENDBRANCH   1  15
BRANCH   8  22
ATOM     22  C   UNL     1       2.526   3.123  20.115  0.00  0.00    +0.000 C 
ATOM     23  F   UNL     1       1.166   3.073  20.152  0.00  0.00    +0.000 F 
ATOM     24  F   UNL     1       2.935   1.867  19.784  0.00  0.00    +0.000 F 
ATOM     25  F   UNL     1       2.927   3.324  21.399  0.00  0.00    +0.000 F 
ENDBRANCH   8  22
TORSDOF 2
ENDMDL
MODEL 9
REMARK VINA RESULT:      -7.7      3.344      7.298
REMARK  Name = 
REMARK  3 active torsions:
REMARK  status: ('A' for Active; 'I' for Inactive)
REMARK    1  A    between atoms: C_1  and  C_2
REMARK    2  A    between atoms: C_5  and  N_6
REMARK    3  A    between atoms: C_13  and  C_14
REMARK                            x       y       z     vdW  Elec       q    Type
REMARK                         _______ _______ _______ _____ _____    ______ ____
ROOT
ATOM      1  N   UNL     1       1.216   8.426  20.212  0.00  0.00    +0.000 N 
ATOM      2  C   UNL     1       1.275   7.065  20.742  0.00  0.00    +0.000 C 
ATOM      3  C   UNL     1       2.168   6.352  19.781  0.00  0.00    +0.000 A 
ATOM      4  C   UNL     1       2.574   7.234  18.781  0.00  0.00    +0.000 A 
ATOM      5  C   UNL     1       3.414   6.881  17.748  0.00  0.00    +0.000 A 
ATOM      6  C   UNL     1       3.875   5.567  17.715  0.00  0.00    +0.000 A 
ATOM      7  C   UNL     1       3.469   4.653  18.704  0.00  0.00    +0.000 A 
ATOM      8  C   UNL     1       2.604   5.026  19.750  0.00  0.00    +0.000 A 
ATOM      9  C   UNL     1       1.957   8.537  19.028  0.00  0.00    +0.000 C 
ATOM     10  O   UNL     1       2.111   9.488  18.287  0.00  0.00    +0.000 OA
ENDROOT
BRANCH   1  15
ATOM     11  C   UNL     1      -1.611  12.820  23.157  0.00  0.00    +0.000 C 
ATOM     12  C   UNL     1      -0.826  11.913  22.228  0.00  0.00    +0.000 C 
ATOM     13  C   UNL     1      -0.449  10.702  22.685  0.00  0.00    +0.000 C 
ATOM     14  C   UNL     1       0.381   9.705  22.044  0.00  0.00    +0.000 C 
ATOM     15  C   UNL     1       0.382   9.415  20.724  0.00  0.00    +0.000 C 
ATOM     16  C   UNL     1      -0.557  10.135  19.784  0.00  0.00    +0.000 C 
ATOM     17  N   UNL     1      -0.381  11.563  19.827  0.00  0.00    +0.000 N 
ATOM     18  C   UNL     1      -0.161  12.370  18.750  0.00  0.00    +0.000 A 
ATOM     19  N   UNL     1      -0.067  13.616  19.153  0.00  0.00    +0.000 NA
ATOM     20  N   UNL     1      -0.275  13.623  20.515  0.00  0.00    +0.000 NA
ATOM     21  C   UNL     1      -0.467  12.384  20.922  0.00  0.00    +0.000 A 
ENDBRANCH   1  15
BRANCH   8  22
ATOM     22  C   UNL     1       2.173   4.002  20.767  0.00  0.00    +0.000 C 
ATOM     23  F   UNL     1       2.507   4.338  22.043  0.00  0.00    +0.000 F 
ATOM     24  F   UNL     1       0.825   3.813  20.773  0.00  0.00    +0.000 F 
ATOM     25  F   UNL     1       2.724   2.777  20.548  0.00  0.00    +0.000 F 
ENDBRANCH   8  22
TORSDOF 2
ENDMDL
