MODEL 1
REMARK VINA RESULT:      -9.5      0.000      0.000
REMARK  Name = 
REMARK  5 active torsions:
REMARK  status: ('A' for Active; 'I' for Inactive)
REMARK    1  A    between atoms: C_2  and  C_3
REMARK    2  A    between atoms: C_3  and  C_4
REMARK    3  A    between atoms: N_13  and  C_14
REMARK    4  A    between atoms: C_18  and  C_19
REMARK    5  A    between atoms: N_23  and  C_24
REMARK                            x       y       z     vdW  Elec       q    Type
REMARK                         _______ _______ _______ _____ _____    ______ ____
ROOT
ATOM      1  O   UNL     1       2.160   8.639  17.015  0.00  0.00    +0.000 OA
ATOM      2  C   UNL     1       1.930   8.542  18.217  0.00  0.00    +0.000 C 
ATOM      3  N   UNL     1       2.054   7.390  18.988  0.00  0.00    +0.000 N 
ATOM      4  H   UNL     1       1.863   7.480  19.978  0.00  0.00    +0.000 HD
ENDROOT
BRANCH   3   5
ATOM      5  C   UNL     1       2.500   6.120  18.546  0.00  0.00    +0.000 A 
ATOM      6  C   UNL     1       1.634   5.099  18.161  0.00  0.00    +0.000 A 
ATOM      7  C   UNL     1       2.129   3.889  17.675  0.00  0.00    +0.000 A 
ATOM      8  C   UNL     1       3.504   3.682  17.567  0.00  0.00    +0.000 A 
ATOM      9  C   UNL     1       4.411   4.661  17.982  0.00  0.00    +0.000 A 
ATOM     10  C   UNL     1       3.885   5.884  18.467  0.00  0.00    +0.000 A 
BRANCH   9  11
ATOM     11  C   UNL     1       5.867   4.515  17.835  0.00  0.00    +0.000 A 
ATOM     12  N   UNL     1       6.723   4.617  18.846  0.00  0.00    +0.000 NA
ATOM     13  N   UNL     1       7.984   4.545  18.322  0.00  0.00    +0.000 NA
ATOM     14  N   UNL     1       7.943   4.379  17.012  0.00  0.00    +0.000 NA
ATOM     15  N   UNL     1       6.635   4.305  16.698  0.00  0.00    +0.000 N 
BRANCH  15  16
ATOM     16  C   UNL     1       6.202   4.010  15.344  0.00  0.00    +0.000 C 
ATOM     17  C   UNL     1       6.910   4.578  14.122  0.00  0.00    +0.000 C 
ATOM     18  C   UNL     1       5.563   5.097  14.485  0.00  0.00    +0.000 C 
ENDBRANCH  15  16
ENDBRANCH   9  11
ENDBRANCH   3   5
BRANCH   2  19
ATOM     19  C   UNL     1       1.469   9.762  19.002  0.00  0.00    +0.000 C 
BRANCH  19  20
ATOM     20  C   UNL     1       0.076  10.254  18.671  0.00  0.00    +0.000 A 
ATOM     21  C   UNL     1      -0.518  11.223  19.512  0.00  0.00    +0.000 A 
ATOM     22  C   UNL     1      -1.820  11.683  19.289  0.00  0.00    +0.000 A 
ATOM     23  C   UNL     1      -2.522  11.170  18.214  0.00  0.00    +0.000 A 
ATOM     24  C   UNL     1      -1.958  10.192  17.390  0.00  0.00    +0.000 A 
ATOM     25  C   UNL     1      -0.677   9.713  17.616  0.00  0.00    +0.000 A 
ATOM     26  C   UNL     1      -2.937   9.751  16.346  0.00  0.00    +0.000 C 
ATOM     27  C   UNL     1      -3.931  10.922  16.361  0.00  0.00    +0.000 C 
ATOM     28  C   UNL     1      -3.925  11.479  17.793  0.00  0.00    +0.000 C 
ENDBRANCH  19  20
ENDBRANCH   2  19
TORSDOF 5
ENDMDL
MODEL 2
REMARK VINA RESULT:      -9.3      1.168      1.980
REMARK  Name = 
REMARK  5 active torsions:
REMARK  status: ('A' for Active; 'I' for Inactive)
REMARK    1  A    between atoms: C_2  and  C_3
REMARK    2  A    between atoms: C_3  and  C_4
REMARK    3  A    between atoms: N_13  and  C_14
REMARK    4  A    between atoms: C_18  and  C_19
REMARK    5  A    between atoms: N_23  and  C_24
REMARK                            x       y       z     vdW  Elec       q    Type
REMARK                         _______ _______ _______ _____ _____    ______ ____
ROOT
ATOM      1  O   UNL     1       2.242   8.946  17.235  0.00  0.00    +0.000 OA
ATOM      2  C   UNL     1       1.904   8.702  18.390  0.00  0.00    +0.000 C 
ATOM      3  N   UNL     1       2.001   7.472  19.033  0.00  0.00    +0.000 N 
ATOM      4  H   UNL     1       1.714   7.440  20.003  0.00  0.00    +0.000 HD
ENDROOT
BRANCH   3   5
ATOM      5  C   UNL     1       2.537   6.276  18.494  0.00  0.00    +0.000 A 
ATOM      6  C   UNL     1       1.922   5.034  18.633  0.00  0.00    +0.000 A 
ATOM      7  C   UNL     1       2.462   3.899  18.030  0.00  0.00    +0.000 A 
ATOM      8  C   UNL     1       3.631   3.990  17.275  0.00  0.00    +0.000 A 
ATOM      9  C   UNL     1       4.307   5.207  17.144  0.00  0.00    +0.000 A 
ATOM     10  C   UNL     1       3.737   6.347  17.761  0.00  0.00    +0.000 A 
BRANCH   9  11
ATOM     11  C   UNL     1       5.509   5.368  16.312  0.00  0.00    +0.000 A 
ATOM     12  N   UNL     1       5.474   5.649  15.015  0.00  0.00    +0.000 NA
ATOM     13  N   UNL     1       6.760   5.606  14.553  0.00  0.00    +0.000 NA
ATOM     14  N   UNL     1       7.604   5.325  15.529  0.00  0.00    +0.000 NA
ATOM     15  N   UNL     1       6.851   5.226  16.641  0.00  0.00    +0.000 N 
BRANCH  15  16
ATOM     16  C   UNL     1       7.456   5.033  17.946  0.00  0.00    +0.000 C 
ATOM     17  C   UNL     1       6.737   5.393  19.238  0.00  0.00    +0.000 C 
ATOM     18  C   UNL     1       7.878   6.235  18.785  0.00  0.00    +0.000 C 
ENDBRANCH  15  16
ENDBRANCH   9  11
ENDBRANCH   3   5
BRANCH   2  19
ATOM     19  C   UNL     1       1.323   9.808  19.259  0.00  0.00    +0.000 C 
BRANCH  19  20
ATOM     20  C   UNL     1      -0.049  10.300  18.848  0.00  0.00    +0.000 A 
ATOM     21  C   UNL     1      -0.709  11.237  19.675  0.00  0.00    +0.000 A 
ATOM     22  C   UNL     1      -1.996  11.695  19.376  0.00  0.00    +0.000 A 
ATOM     23  C   UNL     1      -2.616  11.212  18.239  0.00  0.00    +0.000 A 
ATOM     24  C   UNL     1      -1.987  10.266  17.426  0.00  0.00    +0.000 A 
ATOM     25  C   UNL     1      -0.720   9.788  17.725  0.00  0.00    +0.000 A 
ATOM     26  C   UNL     1      -2.886   9.852  16.302  0.00  0.00    +0.000 C 
ATOM     27  C   UNL     1      -3.890  11.014  16.285  0.00  0.00    +0.000 C 
ATOM     28  C   UNL     1      -3.989  11.524  17.730  0.00  0.00    +0.000 C 
ENDBRANCH  19  20
ENDBRANCH   2  19
TORSDOF 5
ENDMDL
MODEL 3
REMARK VINA RESULT:      -9.2      0.442      1.405
REMARK  Name = 
REMARK  5 active torsions:
REMARK  status: ('A' for Active; 'I' for Inactive)
REMARK    1  A    between atoms: C_2  and  C_3
REMARK    2  A    between atoms: C_3  and  C_4
REMARK    3  A    between atoms: N_13  and  C_14
REMARK    4  A    between atoms: C_18  and  C_19
REMARK    5  A    between atoms: N_23  and  C_24
REMARK                            x       y       z     vdW  Elec       q    Type
REMARK                         _______ _______ _______ _____ _____    ______ ____
ROOT
ATOM      1  O   UNL     1       2.457   8.799  17.145  0.00  0.00    +0.000 OA
ATOM      2  C   UNL     1       2.038   8.632  18.287  0.00  0.00    +0.000 C 
ATOM      3  N   UNL     1       1.998   7.425  18.980  0.00  0.00    +0.000 N 
ATOM      4  H   UNL     1       1.657   7.457  19.932  0.00  0.00    +0.000 HD
ENDROOT
BRANCH   3   5
ATOM      5  C   UNL     1       2.463   6.169  18.518  0.00  0.00    +0.000 A 
ATOM      6  C   UNL     1       1.615   5.162  18.063  0.00  0.00    +0.000 A 
ATOM      7  C   UNL     1       2.130   3.967  17.563  0.00  0.00    +0.000 A 
ATOM      8  C   UNL     1       3.509   3.761  17.510  0.00  0.00    +0.000 A 
ATOM      9  C   UNL     1       4.397   4.725  17.996  0.00  0.00    +0.000 A 
ATOM     10  C   UNL     1       3.850   5.933  18.495  0.00  0.00    +0.000 A 
BRANCH   9  11
ATOM     11  C   UNL     1       5.857   4.580  17.910  0.00  0.00    +0.000 A 
ATOM     12  N   UNL     1       6.670   4.684  18.955  0.00  0.00    +0.000 NA
ATOM     13  N   UNL     1       7.952   4.613  18.484  0.00  0.00    +0.000 NA
ATOM     14  N   UNL     1       7.966   4.446  17.174  0.00  0.00    +0.000 NA
ATOM     15  N   UNL     1       6.673   4.370  16.805  0.00  0.00    +0.000 N 
BRANCH  15  16
ATOM     16  C   UNL     1       6.297   4.074  15.435  0.00  0.00    +0.000 C 
ATOM     17  C   UNL     1       6.978   4.732  14.244  0.00  0.00    +0.000 C 
ATOM     18  C   UNL     1       5.583   5.122  14.587  0.00  0.00    +0.000 C 
ENDBRANCH  15  16
ENDBRANCH   9  11
ENDBRANCH   3   5
BRANCH   2  19
ATOM     19  C   UNL     1       1.503   9.816  19.079  0.00  0.00    +0.000 C 
BRANCH  19  20
ATOM     20  C   UNL     1       0.073  10.206  18.770  0.00  0.00    +0.000 A 
ATOM     21  C   UNL     1      -0.547   9.657  17.624  0.00  0.00    +0.000 A 
ATOM     22  C   UNL     1      -1.849  10.013  17.258  0.00  0.00    +0.000 A 
ATOM     23  C   UNL     1      -2.529  10.920  18.050  0.00  0.00    +0.000 A 
ATOM     24  C   UNL     1      -1.920  11.491  19.171  0.00  0.00    +0.000 A 
ATOM     25  C   UNL     1      -0.622  11.161  19.531  0.00  0.00    +0.000 A 
ATOM     26  C   UNL     1      -2.832  12.487  19.819  0.00  0.00    +0.000 C 
ATOM     27  C   UNL     1      -4.189  12.064  19.240  0.00  0.00    +0.000 C 
ATOM     28  C   UNL     1      -3.905  11.474  17.850  0.00  0.00    +0.000 C 
ENDBRANCH  19  20
ENDBRANCH   2  19
TORSDOF 5
ENDMDL
MODEL 4
REMARK VINA RESULT:      -8.7      1.883      2.684
REMARK  Name = 
REMARK  5 active torsions:
REMARK  status: ('A' for Active; 'I' for Inactive)
REMARK    1  A    between atoms: C_2  and  C_3
REMARK    2  A    between atoms: C_3  and  C_4
REMARK    3  A    between atoms: N_13  and  C_14
REMARK    4  A    between atoms: C_18  and  C_19
REMARK    5  A    between atoms: N_23  and  C_24
REMARK                            x       y       z     vdW  Elec       q    Type
REMARK                         _______ _______ _______ _____ _____    ______ ____
ROOT
ATOM      1  O   UNL     1       1.837   8.263  19.202  0.00  0.00    +0.000 OA
ATOM      2  C   UNL     1       1.823   7.722  20.305  0.00  0.00    +0.000 C 
ATOM      3  N   UNL     1       2.131   6.392  20.573  0.00  0.00    +0.000 N 
ATOM      4  H   UNL     1       2.109   6.106  21.543  0.00  0.00    +0.000 HD
ENDROOT
BRANCH   3   5
ATOM      5  C   UNL     1       2.553   5.416  19.636  0.00  0.00    +0.000 A 
ATOM      6  C   UNL     1       1.671   4.579  18.958  0.00  0.00    +0.000 A 
ATOM      7  C   UNL     1       2.137   3.677  18.001  0.00  0.00    +0.000 A 
ATOM      8  C   UNL     1       3.498   3.600  17.708  0.00  0.00    +0.000 A 
ATOM      9  C   UNL     1       4.425   4.389  18.396  0.00  0.00    +0.000 A 
ATOM     10  C   UNL     1       3.928   5.301  19.359  0.00  0.00    +0.000 A 
BRANCH   9  11
ATOM     11  C   UNL     1       5.862   4.387  18.084  0.00  0.00    +0.000 A 
ATOM     12  N   UNL     1       6.811   4.606  18.987  0.00  0.00    +0.000 NA
ATOM     13  N   UNL     1       8.005   4.647  18.322  0.00  0.00    +0.000 NA
ATOM     14  N   UNL     1       7.835   4.438  17.030  0.00  0.00    +0.000 NA
ATOM     15  N   UNL     1       6.515   4.223  16.869  0.00  0.00    +0.000 N 
BRANCH  15  16
ATOM     16  C   UNL     1       5.965   3.845  15.580  0.00  0.00    +0.000 C 
ATOM     17  C   UNL     1       6.613   4.258  14.267  0.00  0.00    +0.000 C 
ATOM     18  C   UNL     1       5.331   4.896  14.675  0.00  0.00    +0.000 C 
ENDBRANCH  15  16
ENDBRANCH   9  11
ENDBRANCH   3   5
BRANCH   2  19
ATOM     19  C   UNL     1       1.447   8.529  21.539  0.00  0.00    +0.000 C 
BRANCH  19  20
ATOM     20  C   UNL     1       0.403   9.604  21.316  0.00  0.00    +0.000 A 
ATOM     21  C   UNL     1       0.140  10.027  19.993  0.00  0.00    +0.000 A 
ATOM     22  C   UNL     1      -0.778  11.048  19.724  0.00  0.00    +0.000 A 
ATOM     23  C   UNL     1      -1.433  11.639  20.788  0.00  0.00    +0.000 A 
ATOM     24  C   UNL     1      -1.163  11.249  22.102  0.00  0.00    +0.000 A 
ATOM     25  C   UNL     1      -0.240  10.253  22.382  0.00  0.00    +0.000 A 
ATOM     26  C   UNL     1      -1.945  12.081  23.072  0.00  0.00    +0.000 C 
ATOM     27  C   UNL     1      -3.043  12.645  22.158  0.00  0.00    +0.000 C 
ATOM     28  C   UNL     1      -2.425  12.760  20.756  0.00  0.00    +0.000 C 
ENDBRANCH  19  20
ENDBRANCH   2  19
TORSDOF 5
ENDMDL
MODEL 5
REMARK VINA RESULT:      -8.5      1.714      2.610
REMARK  Name = 
REMARK  5 active torsions:
REMARK  status: ('A' for Active; 'I' for Inactive)
REMARK    1  A    between atoms: C_2  and  C_3
REMARK    2  A    between atoms: C_3  and  C_4
REMARK    3  A    between atoms: N_13  and  C_14
REMARK    4  A    between atoms: C_18  and  C_19
REMARK    5  A    between atoms: N_23  and  C_24
REMARK                            x       y       z     vdW  Elec       q    Type
REMARK                         _______ _______ _______ _____ _____    ______ ____
ROOT
ATOM      1  O   UNL     1       2.153   8.209  18.954  0.00  0.00    +0.000 OA
ATOM      2  C   UNL     1       1.777   7.840  20.063  0.00  0.00    +0.000 C 
ATOM      3  N   UNL     1       1.845   6.543  20.564  0.00  0.00    +0.000 N 
ATOM      4  H   UNL     1       1.527   6.405  21.515  0.00  0.00    +0.000 HD
ENDROOT
BRANCH   3   5
ATOM      5  C   UNL     1       2.388   5.410  19.909  0.00  0.00    +0.000 A 
ATOM      6  C   UNL     1       1.634   4.289  19.572  0.00  0.00    +0.000 A 
ATOM      7  C   UNL     1       2.207   3.227  18.873  0.00  0.00    +0.000 A 
ATOM      8  C   UNL     1       3.551   3.272  18.500  0.00  0.00    +0.000 A 
ATOM      9  C   UNL     1       4.357   4.356  18.856  0.00  0.00    +0.000 A 
ATOM     10  C   UNL     1       3.752   5.426  19.561  0.00  0.00    +0.000 A 
BRANCH   9  11
ATOM     11  C   UNL     1       5.762   4.478  18.438  0.00  0.00    +0.000 A 
ATOM     12  N   UNL     1       6.758   4.750  19.274  0.00  0.00    +0.000 NA
ATOM     13  N   UNL     1       7.891   4.903  18.523  0.00  0.00    +0.000 NA
ATOM     14  N   UNL     1       7.638   4.713  17.241  0.00  0.00    +0.000 NA
ATOM     15  N   UNL     1       6.330   4.396  17.173  0.00  0.00    +0.000 N 
BRANCH  15  16
ATOM     16  C   UNL     1       5.714   4.007  15.918  0.00  0.00    +0.000 C 
ATOM     17  C   UNL     1       6.464   4.051  14.595  0.00  0.00    +0.000 C 
ATOM     18  C   UNL     1       5.398   5.056  14.857  0.00  0.00    +0.000 C 
ENDBRANCH  15  16
ENDBRANCH   9  11
ENDBRANCH   3   5
BRANCH   2  19
ATOM     19  C   UNL     1       1.177   8.846  21.034  0.00  0.00    +0.000 C 
BRANCH  19  20
ATOM     20  C   UNL     1       0.673  10.128  20.406  0.00  0.00    +0.000 A 
ATOM     21  C   UNL     1      -0.440  10.066  19.537  0.00  0.00    +0.000 A 
ATOM     22  C   UNL     1      -0.924  11.206  18.889  0.00  0.00    +0.000 A 
ATOM     23  C   UNL     1      -0.289  12.412  19.121  0.00  0.00    +0.000 A 
ATOM     24  C   UNL     1       0.828  12.485  19.957  0.00  0.00    +0.000 A 
ATOM     25  C   UNL     1       1.330  11.357  20.587  0.00  0.00    +0.000 A 
ATOM     26  C   UNL     1       1.374  13.880  19.991  0.00  0.00    +0.000 C 
ATOM     27  C   UNL     1       0.167  14.680  19.480  0.00  0.00    +0.000 C 
ATOM     28  C   UNL     1      -0.599  13.751  18.526  0.00  0.00    +0.000 C 
ENDBRANCH  19  20
ENDBRANCH   2  19
TORSDOF 5
ENDMDL
MODEL 6
REMARK VINA RESULT:      -8.4      1.949      2.789
REMARK  Name = 
REMARK  5 active torsions:
REMARK  status: ('A' for Active; 'I' for Inactive)
REMARK    1  A    between atoms: C_2  and  C_3
REMARK    2  A    between atoms: C_3  and  C_4
REMARK    3  A    between atoms: N_13  and  C_14
REMARK    4  A    between atoms: C_18  and  C_19
REMARK    5  A    between atoms: N_23  and  C_24
REMARK                            x       y       z     vdW  Elec       q    Type
REMARK                         _______ _______ _______ _____ _____    ______ ____
ROOT
ATOM      1  O   UNL     1       3.508   8.367  18.035  0.00  0.00    +0.000 OA
ATOM      2  C   UNL     1       2.298   8.173  17.965  0.00  0.00    +0.000 C 
ATOM      3  N   UNL     1       1.670   6.938  17.830  0.00  0.00    +0.000 N 
ATOM      4  H   UNL     1       0.658   6.940  17.825  0.00  0.00    +0.000 HD
ENDROOT
BRANCH   3   5
ATOM      5  C   UNL     1       2.299   5.670  17.781  0.00  0.00    +0.000 A 
ATOM      6  C   UNL     1       1.596   4.468  17.807  0.00  0.00    +0.000 A 
ATOM      7  C   UNL     1       2.263   3.248  17.694  0.00  0.00    +0.000 A 
ATOM      8  C   UNL     1       3.651   3.214  17.552  0.00  0.00    +0.000 A 
ATOM      9  C   UNL     1       4.402   4.393  17.565  0.00  0.00    +0.000 A 
ATOM     10  C   UNL     1       3.702   5.620  17.675  0.00  0.00    +0.000 A 
BRANCH   9  11
ATOM     11  C   UNL     1       5.858   4.414  17.360  0.00  0.00    +0.000 A 
ATOM     12  N   UNL     1       6.739   4.146  18.316  0.00  0.00    +0.000 NA
ATOM     13  N   UNL     1       7.984   4.377  17.801  0.00  0.00    +0.000 NA
ATOM     14  N   UNL     1       7.910   4.762  16.539  0.00  0.00    +0.000 NA
ATOM     15  N   UNL     1       6.599   4.740  16.231  0.00  0.00    +0.000 N 
BRANCH  15  16
ATOM     16  C   UNL     1       6.139   5.000  14.880  0.00  0.00    +0.000 C 
ATOM     17  C   UNL     1       5.425   3.946  14.046  0.00  0.00    +0.000 C 
ATOM     18  C   UNL     1       6.819   4.329  13.691  0.00  0.00    +0.000 C 
ENDBRANCH  15  16
ENDBRANCH   9  11
ENDBRANCH   3   5
BRANCH   2  19
ATOM     19  C   UNL     1       1.336   9.350  18.034  0.00  0.00    +0.000 C 
BRANCH  19  20
ATOM     20  C   UNL     1       0.779   9.649  19.410  0.00  0.00    +0.000 A 
ATOM     21  C   UNL     1       1.105   8.781  20.477  0.00  0.00    +0.000 A 
ATOM     22  C   UNL     1       0.585   8.975  21.760  0.00  0.00    +0.000 A 
ATOM     23  C   UNL     1      -0.261  10.048  21.971  0.00  0.00    +0.000 A 
ATOM     24  C   UNL     1      -0.613  10.900  20.920  0.00  0.00    +0.000 A 
ATOM     25  C   UNL     1      -0.120  10.704  19.639  0.00  0.00    +0.000 A 
ATOM     26  C   UNL     1      -1.588  11.937  21.385  0.00  0.00    +0.000 C 
ATOM     27  C   UNL     1      -1.374  11.884  22.904  0.00  0.00    +0.000 C 
ATOM     28  C   UNL     1      -0.960  10.442  23.234  0.00  0.00    +0.000 C 
ENDBRANCH  19  20
ENDBRANCH   2  19
TORSDOF 5
ENDMDL
MODEL 7
REMARK VINA RESULT:      -8.3      1.873      2.355
REMARK  Name = 
REMARK  5 active torsions:
REMARK  status: ('A' for Active; 'I' for Inactive)
REMARK    1  A    between atoms: C_2  and  C_3
REMARK    2  A    between atoms: C_3  and  C_4
REMARK    3  A    between atoms: N_13  and  C_14
REMARK    4  A    between atoms: C_18  and  C_19
REMARK    5  A    between atoms: N_23  and  C_24
REMARK                            x       y       z     vdW  Elec       q    Type
REMARK                         _______ _______ _______ _____ _____    ______ ____
ROOT
ATOM      1  O   UNL     1       1.233   8.279  20.832  0.00  0.00    +0.000 OA
ATOM      2  C   UNL     1       1.364   8.978  19.832  0.00  0.00    +0.000 C 
ATOM      3  N   UNL     1       1.908   8.578  18.615  0.00  0.00    +0.000 N 
ATOM      4  H   UNL     1       1.913   9.263  17.870  0.00  0.00    +0.000 HD
ENDROOT
BRANCH   3   5
ATOM      5  C   UNL     1       2.381   7.283  18.284  0.00  0.00    +0.000 A 
ATOM      6  C   UNL     1       1.667   6.118  18.553  0.00  0.00    +0.000 A 
ATOM      7  C   UNL     1       2.153   4.875  18.151  0.00  0.00    +0.000 A 
ATOM      8  C   UNL     1       3.366   4.779  17.469  0.00  0.00    +0.000 A 
ATOM      9  C   UNL     1       4.138   5.916  17.216  0.00  0.00    +0.000 A 
ATOM     10  C   UNL     1       3.622   7.169  17.629  0.00  0.00    +0.000 A 
BRANCH   9  11
ATOM     11  C   UNL     1       5.393   5.875  16.451  0.00  0.00    +0.000 A 
ATOM     12  N   UNL     1       5.550   5.179  15.331  0.00  0.00    +0.000 NA
ATOM     13  N   UNL     1       6.865   5.280  14.968  0.00  0.00    +0.000 NA
ATOM     14  N   UNL     1       7.533   6.039  15.818  0.00  0.00    +0.000 NA
ATOM     15  N   UNL     1       6.624   6.461  16.717  0.00  0.00    +0.000 N 
BRANCH  15  16
ATOM     16  C   UNL     1       6.976   7.417  17.752  0.00  0.00    +0.000 C 
ATOM     17  C   UNL     1       8.168   8.354  17.622  0.00  0.00    +0.000 C 
ATOM     18  C   UNL     1       8.239   7.221  18.584  0.00  0.00    +0.000 C 
ENDBRANCH  15  16
ENDBRANCH   9  11
ENDBRANCH   3   5
BRANCH   2  19
ATOM     19  C   UNL     1       0.904  10.429  19.854  0.00  0.00    +0.000 C 
BRANCH  19  20
ATOM     20  C   UNL     1      -0.398  10.704  19.131  0.00  0.00    +0.000 A 
ATOM     21  C   UNL     1      -1.322  11.599  19.718  0.00  0.00    +0.000 A 
ATOM     22  C   UNL     1      -2.561  11.860  19.126  0.00  0.00    +0.000 A 
ATOM     23  C   UNL     1      -2.868  11.222  17.938  0.00  0.00    +0.000 A 
ATOM     24  C   UNL     1      -1.976  10.315  17.360  0.00  0.00    +0.000 A 
ATOM     25  C   UNL     1      -0.753  10.033  17.950  0.00  0.00    +0.000 A 
ATOM     26  C   UNL     1      -2.564   9.710  16.122  0.00  0.00    +0.000 C 
ATOM     27  C   UNL     1      -3.670  10.724  15.796  0.00  0.00    +0.000 C 
ATOM     28  C   UNL     1      -4.130  11.313  17.137  0.00  0.00    +0.000 C 
ENDBRANCH  19  20
ENDBRANCH   2  19
TORSDOF 5
ENDMDL
MODEL 8
REMARK VINA RESULT:      -8.3      2.755      3.930
REMARK  Name = 
REMARK  5 active torsions:
REMARK  status: ('A' for Active; 'I' for Inactive)
REMARK    1  A    between atoms: C_2  and  C_3
REMARK    2  A    between atoms: C_3  and  C_4
REMARK    3  A    between atoms: N_13  and  C_14
REMARK    4  A    between atoms: C_18  and  C_19
REMARK    5  A    between atoms: N_23  and  C_24
REMARK                            x       y       z     vdW  Elec       q    Type
REMARK                         _______ _______ _______ _____ _____    ______ ____
ROOT
ATOM      1  O   UNL     1       1.821   6.402  17.642  0.00  0.00    +0.000 OA
ATOM      2  C   UNL     1       2.563   7.380  17.643  0.00  0.00    +0.000 C 
ATOM      3  N   UNL     1       3.943   7.365  17.466  0.00  0.00    +0.000 N 
ATOM      4  H   UNL     1       4.411   8.262  17.455  0.00  0.00    +0.000 HD
ENDROOT
BRANCH   3   5
ATOM      5  C   UNL     1       4.753   6.229  17.218  0.00  0.00    +0.000 A 
ATOM      6  C   UNL     1       4.823   5.139  18.082  0.00  0.00    +0.000 A 
ATOM      7  C   UNL     1       5.589   4.020  17.759  0.00  0.00    +0.000 A 
ATOM      8  C   UNL     1       6.300   3.975  16.559  0.00  0.00    +0.000 A 
ATOM      9  C   UNL     1       6.294   5.063  15.682  0.00  0.00    +0.000 A 
ATOM     10  C   UNL     1       5.505   6.186  16.029  0.00  0.00    +0.000 A 
BRANCH   9  11
ATOM     11  C   UNL     1       6.978   5.042  14.380  0.00  0.00    +0.000 A 
ATOM     12  N   UNL     1       8.074   5.744  14.114  0.00  0.00    +0.000 NA
ATOM     13  N   UNL     1       8.355   5.573  12.786  0.00  0.00    +0.000 NA
ATOM     14  N   UNL     1       7.479   4.765  12.217  0.00  0.00    +0.000 NA
ATOM     15  N   UNL     1       6.646   4.383  13.204  0.00  0.00    +0.000 N 
BRANCH  15  16
ATOM     16  C   UNL     1       5.608   3.395  12.973  0.00  0.00    +0.000 C 
ATOM     17  C   UNL     1       5.632   2.455  11.776  0.00  0.00    +0.000 C 
ATOM     18  C   UNL     1       4.633   3.558  11.811  0.00  0.00    +0.000 C 
ENDBRANCH  15  16
ENDBRANCH   9  11
ENDBRANCH   3   5
BRANCH   2  19
ATOM     19  C   UNL     1       1.982   8.772  17.844  0.00  0.00    +0.000 C 
BRANCH  19  20
ATOM     20  C   UNL     1       1.392   9.034  19.214  0.00  0.00    +0.000 A 
ATOM     21  C   UNL     1       1.640   8.103  20.248  0.00  0.00    +0.000 A 
ATOM     22  C   UNL     1       1.085   8.262  21.521  0.00  0.00    +0.000 A 
ATOM     23  C   UNL     1       0.283   9.364  21.755  0.00  0.00    +0.000 A 
ATOM     24  C   UNL     1       0.007  10.279  20.735  0.00  0.00    +0.000 A 
ATOM     25  C   UNL     1       0.535  10.119  19.463  0.00  0.00    +0.000 A 
ATOM     26  C   UNL     1      -0.935  11.339  21.217  0.00  0.00    +0.000 C 
ATOM     27  C   UNL     1      -0.776  11.205  22.738  0.00  0.00    +0.000 C 
ATOM     28  C   UNL     1      -0.441   9.732  23.012  0.00  0.00    +0.000 C 
ENDBRANCH  19  20
ENDBRANCH   2  19
TORSDOF 5
ENDMDL
MODEL 9
REMARK VINA RESULT:      -8.3      2.910      9.063
REMARK  Name = 
REMARK  5 active torsions:
REMARK  status: ('A' for Active; 'I' for Inactive)
REMARK    1  A    between atoms: C_2  and  C_3
REMARK    2  A    between atoms: C_3  and  C_4
REMARK    3  A    between atoms: N_13  and  C_14
REMARK    4  A    between atoms: C_18  and  C_19
REMARK    5  A    between atoms: N_23  and  C_24
REMARK                            x       y       z     vdW  Elec       q    Type
REMARK                         _______ _______ _______ _____ _____    ______ ____
ROOT
ATOM      1  O   UNL     1       1.758   5.204  20.648  0.00  0.00    +0.000 OA
ATOM      2  C   UNL     1       2.702   5.315  19.871  0.00  0.00    +0.000 C 
ATOM      3  N   UNL     1       2.996   6.426  19.087  0.00  0.00    +0.000 N 
ATOM      4  H   UNL     1       3.835   6.377  18.523  0.00  0.00    +0.000 HD
ENDROOT
BRANCH   3   5
ATOM      5  C   UNL     1       2.286   7.651  19.056  0.00  0.00    +0.000 A 
ATOM      6  C   UNL     1       1.990   8.333  17.878  0.00  0.00    +0.000 A 
ATOM      7  C   UNL     1       1.234   9.504  17.902  0.00  0.00    +0.000 A 
ATOM      8  C   UNL     1       0.761  10.014  19.111  0.00  0.00    +0.000 A 
ATOM      9  C   UNL     1       1.071   9.389  20.322  0.00  0.00    +0.000 A 
ATOM     10  C   UNL     1       1.835   8.197  20.273  0.00  0.00    +0.000 A 
BRANCH   9  11
ATOM     11  C   UNL     1       0.548   9.853  21.616  0.00  0.00    +0.000 A 
ATOM     12  N   UNL     1       0.713   9.191  22.756  0.00  0.00    +0.000 NA
ATOM     13  N   UNL     1      -0.000   9.851  23.718  0.00  0.00    +0.000 NA
ATOM     14  N   UNL     1      -0.591  10.921  23.218  0.00  0.00    +0.000 NA
ATOM     15  N   UNL     1      -0.219  10.969  21.924  0.00  0.00    +0.000 N 
BRANCH  15  16
ATOM     16  C   UNL     1      -0.590  12.085  21.075  0.00  0.00    +0.000 C 
ATOM     17  C   UNL     1      -1.644  13.103  21.483  0.00  0.00    +0.000 C 
ATOM     18  C   UNL     1      -1.962  12.124  20.409  0.00  0.00    +0.000 C 
ENDBRANCH  15  16
ENDBRANCH   9  11
ENDBRANCH   3   5
BRANCH   2  19
ATOM     19  C   UNL     1       3.689   4.167  19.709  0.00  0.00    +0.000 C 
BRANCH  19  20
ATOM     20  C   UNL     1       4.680   4.323  18.575  0.00  0.00    +0.000 A 
ATOM     21  C   UNL     1       5.998   4.735  18.880  0.00  0.00    +0.000 A 
ATOM     22  C   UNL     1       6.948   4.943  17.874  0.00  0.00    +0.000 A 
ATOM     23  C   UNL     1       6.570   4.731  16.561  0.00  0.00    +0.000 A 
ATOM     24  C   UNL     1       5.264   4.350  16.243  0.00  0.00    +0.000 A 
ATOM     25  C   UNL     1       4.309   4.162  17.231  0.00  0.00    +0.000 A 
ATOM     26  C   UNL     1       5.088   4.253  14.759  0.00  0.00    +0.000 C 
ATOM     27  C   UNL     1       6.548   4.142  14.296  0.00  0.00    +0.000 C 
ATOM     28  C   UNL     1       7.389   4.916  15.322  0.00  0.00    +0.000 C 
ENDBRANCH  19  20
ENDBRANCH   2  19
TORSDOF 5
ENDMDL
