MODEL 1
REMARK VINA RESULT:      -9.6      0.000      0.000
REMARK  Name = 
REMARK  5 active torsions:
REMARK  status: ('A' for Active; 'I' for Inactive)
REMARK    1  A    between atoms: C_1  and  N_2
REMARK    2  A    between atoms: C_4  and  S_5
REMARK    3  A    between atoms: S_5  and  N_8
REMARK    4  A    between atoms: C_16  and  C_17
REMARK    5  A    between atoms: C_24  and  C_25
REMARK                            x       y       z     vdW  Elec       q    Type
REMARK                         _______ _______ _______ _____ _____    ______ ____
ROOT
ATOM      1  N   UNL     1       4.502   5.378  17.026  0.00  0.00    +0.000 NA
ATOM      2  C   UNL     1       4.390   4.043  17.622  0.00  0.00    +0.000 C 
ATOM      3  C   UNL     1       3.118   3.811  18.411  0.00  0.00    +0.000 A 
ATOM      4  C   UNL     1       2.562   2.527  18.496  0.00  0.00    +0.000 A 
ATOM      5  C   UNL     1       1.461   2.289  19.318  0.00  0.00    +0.000 A 
ATOM      6  C   UNL     1       0.935   3.319  20.093  0.00  0.00    +0.000 A 
ATOM      7  C   UNL     1       1.480   4.600  20.019  0.00  0.00    +0.000 A 
ATOM      8  C   UNL     1       2.543   4.869  19.145  0.00  0.00    +0.000 A 
ATOM      9  C   UNL     1       3.159   6.248  18.977  0.00  0.00    +0.000 C 
ATOM     10  C   UNL     1       3.598   6.446  17.504  0.00  0.00    +0.000 C 
ENDROOT
BRANCH   9  11
ATOM     11  C   UNL     1       2.313   7.431  19.418  0.00  0.00    +0.000 A 
ATOM     12  C   UNL     1       1.962   8.428  18.493  0.00  0.00    +0.000 A 
ATOM     13  C   UNL     1       1.153   9.497  18.875  0.00  0.00    +0.000 A 
ATOM     14  C   UNL     1       0.686   9.586  20.185  0.00  0.00    +0.000 A 
ATOM     15  C   UNL     1       1.032   8.609  21.115  0.00  0.00    +0.000 A 
ATOM     16  C   UNL     1       1.839   7.537  20.736  0.00  0.00    +0.000 A 
ENDBRANCH   9  11
BRANCH   1  17
ATOM     17  S   UNL     1       5.916   5.777  16.220  0.00  0.00    +0.000 S 
ATOM     18  O   UNL     1       5.574   6.610  15.088  0.00  0.00    +0.000 OA
ATOM     19  O   UNL     1       6.744   4.601  16.115  0.00  0.00    +0.000 OA
BRANCH  17  23
ATOM     20  C   UNL     1       8.570   9.849  18.104  0.00  0.00    +0.000 C 
ATOM     21  N   UNL     1       7.953   8.550  17.969  0.00  0.00    +0.000 N 
ATOM     22  C   UNL     1       7.021   8.194  17.045  0.00  0.00    +0.000 A 
ATOM     23  C   UNL     1       6.851   6.836  17.191  0.00  0.00    +0.000 A 
ATOM     24  C   UNL     1       7.648   6.463  18.301  0.00  0.00    +0.000 A 
ATOM     25  N   UNL     1       8.322   7.542  18.773  0.00  0.00    +0.000 NA
BRANCH  24  26
ATOM     26  C   UNL     1       7.793   5.099  18.926  0.00  0.00    +0.000 C 
ATOM     27  F   UNL     1       8.249   4.148  18.074  0.00  0.00    +0.000 F 
ATOM     28  F   UNL     1       8.653   5.111  19.980  0.00  0.00    +0.000 F 
ATOM     29  F   UNL     1       6.603   4.637  19.402  0.00  0.00    +0.000 F 
ENDBRANCH  24  26
ENDBRANCH  17  23
ENDBRANCH   1  17
TORSDOF 4
ENDMDL
MODEL 2
REMARK VINA RESULT:      -9.6      0.057      1.138
REMARK  Name = 
REMARK  5 active torsions:
REMARK  status: ('A' for Active; 'I' for Inactive)
REMARK    1  A    between atoms: C_1  and  N_2
REMARK    2  A    between atoms: C_4  and  S_5
REMARK    3  A    between atoms: S_5  and  N_8
REMARK    4  A    between atoms: C_16  and  C_17
REMARK    5  A    between atoms: C_24  and  C_25
REMARK                            x       y       z     vdW  Elec       q    Type
REMARK                         _______ _______ _______ _____ _____    ______ ____
ROOT
ATOM      1  N   UNL     1       4.522   5.363  17.043  0.00  0.00    +0.000 NA
ATOM      2  C   UNL     1       4.430   4.045  17.679  0.00  0.00    +0.000 C 
ATOM      3  C   UNL     1       3.157   3.814  18.467  0.00  0.00    +0.000 A 
ATOM      4  C   UNL     1       2.623   2.524  18.587  0.00  0.00    +0.000 A 
ATOM      5  C   UNL     1       1.521   2.292  19.410  0.00  0.00    +0.000 A 
ATOM      6  C   UNL     1       0.972   3.336  20.149  0.00  0.00    +0.000 A 
ATOM      7  C   UNL     1       1.495   4.623  20.039  0.00  0.00    +0.000 A 
ATOM      8  C   UNL     1       2.558   4.884  19.164  0.00  0.00    +0.000 A 
ATOM      9  C   UNL     1       3.151   6.268  18.957  0.00  0.00    +0.000 C 
ATOM     10  C   UNL     1       3.596   6.429  17.482  0.00  0.00    +0.000 C 
ENDROOT
BRANCH   9  11
ATOM     11  C   UNL     1       2.281   7.449  19.357  0.00  0.00    +0.000 A 
ATOM     12  C   UNL     1       1.830   7.572  20.682  0.00  0.00    +0.000 A 
ATOM     13  C   UNL     1       1.066   8.673  21.071  0.00  0.00    +0.000 A 
ATOM     14  C   UNL     1       0.742   9.661  20.143  0.00  0.00    +0.000 A 
ATOM     15  C   UNL     1       1.177   9.548  18.825  0.00  0.00    +0.000 A 
ATOM     16  C   UNL     1       1.942   8.451  18.433  0.00  0.00    +0.000 A 
ENDBRANCH   9  11
BRANCH   1  17
ATOM     17  S   UNL     1       5.934   5.762  16.233  0.00  0.00    +0.000 S 
ATOM     18  O   UNL     1       5.588   6.588  15.097  0.00  0.00    +0.000 OA
ATOM     19  O   UNL     1       6.765   4.589  16.134  0.00  0.00    +0.000 OA
BRANCH  17  23
ATOM     20  C   UNL     1       8.586   9.849  18.087  0.00  0.00    +0.000 C 
ATOM     21  N   UNL     1       7.968   8.551  17.962  0.00  0.00    +0.000 N 
ATOM     22  C   UNL     1       7.039   8.186  17.038  0.00  0.00    +0.000 A 
ATOM     23  C   UNL     1       6.866   6.830  17.198  0.00  0.00    +0.000 A 
ATOM     24  C   UNL     1       7.657   6.467  18.315  0.00  0.00    +0.000 A 
ATOM     25  N   UNL     1       8.331   7.550  18.780  0.00  0.00    +0.000 NA
BRANCH  24  26
ATOM     26  C   UNL     1       7.796   5.110  18.955  0.00  0.00    +0.000 C 
ATOM     27  F   UNL     1       6.634   4.609  19.443  0.00  0.00    +0.000 F 
ATOM     28  F   UNL     1       8.275   4.183  18.083  0.00  0.00    +0.000 F 
ATOM     29  F   UNL     1       8.663   5.138  20.006  0.00  0.00    +0.000 F 
ENDBRANCH  24  26
ENDBRANCH  17  23
ENDBRANCH   1  17
TORSDOF 4
ENDMDL
MODEL 3
REMARK VINA RESULT:      -8.6      1.869      2.505
REMARK  Name = 
REMARK  5 active torsions:
REMARK  status: ('A' for Active; 'I' for Inactive)
REMARK    1  A    between atoms: C_1  and  N_2
REMARK    2  A    between atoms: C_4  and  S_5
REMARK    3  A    between atoms: S_5  and  N_8
REMARK    4  A    between atoms: C_16  and  C_17
REMARK    5  A    between atoms: C_24  and  C_25
REMARK                            x       y       z     vdW  Elec       q    Type
REMARK                         _______ _______ _______ _____ _____    ______ ____
ROOT
ATOM      1  N   UNL     1       5.489   4.662  18.900  0.00  0.00    +0.000 NA
ATOM      2  C   UNL     1       4.938   3.405  19.418  0.00  0.00    +0.000 C 
ATOM      3  C   UNL     1       3.429   3.301  19.340  0.00  0.00    +0.000 A 
ATOM      4  C   UNL     1       2.813   2.053  19.181  0.00  0.00    +0.000 A 
ATOM      5  C   UNL     1       1.423   1.942  19.230  0.00  0.00    +0.000 A 
ATOM      6  C   UNL     1       0.643   3.068  19.479  0.00  0.00    +0.000 A 
ATOM      7  C   UNL     1       1.244   4.315  19.640  0.00  0.00    +0.000 A 
ATOM      8  C   UNL     1       2.634   4.452  19.526  0.00  0.00    +0.000 A 
ATOM      9  C   UNL     1       3.356   5.784  19.644  0.00  0.00    +0.000 C 
ATOM     10  C   UNL     1       4.574   5.803  18.687  0.00  0.00    +0.000 C 
ENDROOT
BRANCH   9  11
ATOM     11  C   UNL     1       2.520   7.035  19.427  0.00  0.00    +0.000 A 
ATOM     12  C   UNL     1       1.839   7.621  20.507  0.00  0.00    +0.000 A 
ATOM     13  C   UNL     1       1.102   8.792  20.329  0.00  0.00    +0.000 A 
ATOM     14  C   UNL     1       1.034   9.389  19.073  0.00  0.00    +0.000 A 
ATOM     15  C   UNL     1       1.697   8.815  17.991  0.00  0.00    +0.000 A 
ATOM     16  C   UNL     1       2.437   7.646  18.165  0.00  0.00    +0.000 A 
ENDBRANCH   9  11
BRANCH   1  17
ATOM     17  S   UNL     1       7.139   4.924  19.034  0.00  0.00    +0.000 S 
ATOM     18  O   UNL     1       7.822   3.948  18.213  0.00  0.00    +0.000 OA
ATOM     19  O   UNL     1       7.466   5.162  20.418  0.00  0.00    +0.000 OA
BRANCH  17  23
ATOM     20  C   UNL     1       8.564   9.833  18.009  0.00  0.00    +0.000 C 
ATOM     21  N   UNL     1       8.152   8.458  17.855  0.00  0.00    +0.000 N 
ATOM     22  C   UNL     1       8.180   7.496  18.816  0.00  0.00    +0.000 A 
ATOM     23  C   UNL     1       7.549   6.403  18.268  0.00  0.00    +0.000 A 
ATOM     24  C   UNL     1       7.258   6.754  16.927  0.00  0.00    +0.000 A 
ATOM     25  N   UNL     1       7.644   8.033  16.688  0.00  0.00    +0.000 NA
BRANCH  24  26
ATOM     26  C   UNL     1       6.614   5.906  15.862  0.00  0.00    +0.000 C 
ATOM     27  F   UNL     1       6.376   4.627  16.244  0.00  0.00    +0.000 F 
ATOM     28  F   UNL     1       5.416   6.413  15.462  0.00  0.00    +0.000 F 
ATOM     29  F   UNL     1       7.392   5.826  14.747  0.00  0.00    +0.000 F 
ENDBRANCH  24  26
ENDBRANCH  17  23
ENDBRANCH   1  17
TORSDOF 4
ENDMDL
MODEL 4
REMARK VINA RESULT:      -8.4      1.856      2.273
REMARK  Name = 
REMARK  5 active torsions:
REMARK  status: ('A' for Active; 'I' for Inactive)
REMARK    1  A    between atoms: C_1  and  N_2
REMARK    2  A    between atoms: C_4  and  S_5
REMARK    3  A    between atoms: S_5  and  N_8
REMARK    4  A    between atoms: C_16  and  C_17
REMARK    5  A    between atoms: C_24  and  C_25
REMARK                            x       y       z     vdW  Elec       q    Type
REMARK                         _______ _______ _______ _____ _____    ______ ____
ROOT
ATOM      1  N   UNL     1       5.449   4.694  18.902  0.00  0.00    +0.000 NA
ATOM      2  C   UNL     1       4.878   3.447  19.422  0.00  0.00    +0.000 C 
ATOM      3  C   UNL     1       3.367   3.369  19.352  0.00  0.00    +0.000 A 
ATOM      4  C   UNL     1       2.728   2.132  19.196  0.00  0.00    +0.000 A 
ATOM      5  C   UNL     1       1.337   2.046  19.251  0.00  0.00    +0.000 A 
ATOM      6  C   UNL     1       0.578   3.185  19.506  0.00  0.00    +0.000 A 
ATOM      7  C   UNL     1       1.202   4.421  19.665  0.00  0.00    +0.000 A 
ATOM      8  C   UNL     1       2.594   4.534  19.543  0.00  0.00    +0.000 A 
ATOM      9  C   UNL     1       3.340   5.853  19.659  0.00  0.00    +0.000 C 
ATOM     10  C   UNL     1       4.553   5.851  18.695  0.00  0.00    +0.000 C 
ENDROOT
BRANCH   9  11
ATOM     11  C   UNL     1       2.524   7.118  19.447  0.00  0.00    +0.000 A 
ATOM     12  C   UNL     1       2.419   7.679  18.163  0.00  0.00    +0.000 A 
ATOM     13  C   UNL     1       1.641   8.816  17.948  0.00  0.00    +0.000 A 
ATOM     14  C   UNL     1       0.961   9.408  19.011  0.00  0.00    +0.000 A 
ATOM     15  C   UNL     1       1.062   8.867  20.290  0.00  0.00    +0.000 A 
ATOM     16  C   UNL     1       1.837   7.729  20.509  0.00  0.00    +0.000 A 
ENDBRANCH   9  11
BRANCH   1  17
ATOM     17  S   UNL     1       7.104   4.927  19.027  0.00  0.00    +0.000 S 
ATOM     18  O   UNL     1       7.765   3.938  18.204  0.00  0.00    +0.000 OA
ATOM     19  O   UNL     1       7.442   5.160  20.409  0.00  0.00    +0.000 OA
BRANCH  17  23
ATOM     20  C   UNL     1       8.565   9.822  17.991  0.00  0.00    +0.000 C 
ATOM     21  N   UNL     1       8.154   8.447  17.840  0.00  0.00    +0.000 N 
ATOM     22  C   UNL     1       8.156   7.494  18.811  0.00  0.00    +0.000 A 
ATOM     23  C   UNL     1       7.536   6.397  18.258  0.00  0.00    +0.000 A 
ATOM     24  C   UNL     1       7.279   6.736  16.907  0.00  0.00    +0.000 A 
ATOM     25  N   UNL     1       7.674   8.012  16.665  0.00  0.00    +0.000 NA
BRANCH  24  26
ATOM     26  C   UNL     1       6.659   5.879  15.834  0.00  0.00    +0.000 C 
ATOM     27  F   UNL     1       7.380   5.825  14.687  0.00  0.00    +0.000 F 
ATOM     28  F   UNL     1       6.496   4.591  16.242  0.00  0.00    +0.000 F 
ATOM     29  F   UNL     1       5.425   6.333  15.481  0.00  0.00    +0.000 F 
ENDBRANCH  24  26
ENDBRANCH  17  23
ENDBRANCH   1  17
TORSDOF 4
ENDMDL
MODEL 5
REMARK VINA RESULT:      -8.0      4.576      6.800
REMARK  Name = 
REMARK  5 active torsions:
REMARK  status: ('A' for Active; 'I' for Inactive)
REMARK    1  A    between atoms: C_1  and  N_2
REMARK    2  A    between atoms: C_4  and  S_5
REMARK    3  A    between atoms: S_5  and  N_8
REMARK    4  A    between atoms: C_16  and  C_17
REMARK    5  A    between atoms: C_24  and  C_25
REMARK                            x       y       z     vdW  Elec       q    Type
REMARK                         _______ _______ _______ _____ _____    ______ ____
ROOT
ATOM      1  N   UNL     1       2.296   8.130  17.782  0.00  0.00    +0.000 NA
ATOM      2  C   UNL     1       3.714   8.209  17.414  0.00  0.00    +0.000 C 
ATOM      3  C   UNL     1       4.427   6.873  17.368  0.00  0.00    +0.000 A 
ATOM      4  C   UNL     1       5.498   6.673  16.487  0.00  0.00    +0.000 A 
ATOM      5  C   UNL     1       6.231   5.487  16.527  0.00  0.00    +0.000 A 
ATOM      6  C   UNL     1       5.927   4.513  17.474  0.00  0.00    +0.000 A 
ATOM      7  C   UNL     1       4.865   4.701  18.356  0.00  0.00    +0.000 A 
ATOM      8  C   UNL     1       4.077   5.857  18.282  0.00  0.00    +0.000 A 
ATOM      9  C   UNL     1       2.877   6.112  19.179  0.00  0.00    +0.000 C 
ATOM     10  C   UNL     1       1.789   6.881  18.389  0.00  0.00    +0.000 C 
ENDROOT
BRANCH   9  11
ATOM     11  C   UNL     1       2.256   4.896  19.847  0.00  0.00    +0.000 A 
ATOM     12  C   UNL     1       1.377   4.071  19.126  0.00  0.00    +0.000 A 
ATOM     13  C   UNL     1       0.832   2.930  19.715  0.00  0.00    +0.000 A 
ATOM     14  C   UNL     1       1.156   2.601  21.030  0.00  0.00    +0.000 A 
ATOM     15  C   UNL     1       2.019   3.414  21.759  0.00  0.00    +0.000 A 
ATOM     16  C   UNL     1       2.568   4.554  21.174  0.00  0.00    +0.000 A 
ENDBRANCH   9  11
BRANCH   1  17
ATOM     17  S   UNL     1       1.439   9.558  17.965  0.00  0.00    +0.000 S 
ATOM     18  O   UNL     1       0.089   9.341  17.491  0.00  0.00    +0.000 OA
ATOM     19  O   UNL     1       2.262  10.659  17.530  0.00  0.00    +0.000 OA
BRANCH  17  23
ATOM     20  C   UNL     1       0.620   9.145  23.097  0.00  0.00    +0.000 C 
ATOM     21  N   UNL     1       0.862   9.684  21.780  0.00  0.00    +0.000 N 
ATOM     22  C   UNL     1       1.257   8.986  20.682  0.00  0.00    +0.000 A 
ATOM     23  C   UNL     1       1.199   9.874  19.633  0.00  0.00    +0.000 A 
ATOM     24  C   UNL     1       0.855  11.125  20.202  0.00  0.00    +0.000 A 
ATOM     25  N   UNL     1       0.654  10.988  21.537  0.00  0.00    +0.000 NA
BRANCH  24  26
ATOM     26  C   UNL     1       0.706  12.454  19.508  0.00  0.00    +0.000 C 
ATOM     27  F   UNL     1       1.874  12.975  19.059  0.00  0.00    +0.000 F 
ATOM     28  F   UNL     1      -0.117  12.374  18.427  0.00  0.00    +0.000 F 
ATOM     29  F   UNL     1       0.169  13.394  20.335  0.00  0.00    +0.000 F 
ENDBRANCH  24  26
ENDBRANCH  17  23
ENDBRANCH   1  17
TORSDOF 4
ENDMDL
MODEL 6
REMARK VINA RESULT:      -8.0      4.674      7.098
REMARK  Name = 
REMARK  5 active torsions:
REMARK  status: ('A' for Active; 'I' for Inactive)
REMARK    1  A    between atoms: C_1  and  N_2
REMARK    2  A    between atoms: C_4  and  S_5
REMARK    3  A    between atoms: S_5  and  N_8
REMARK    4  A    between atoms: C_16  and  C_17
REMARK    5  A    between atoms: C_24  and  C_25
REMARK                            x       y       z     vdW  Elec       q    Type
REMARK                         _______ _______ _______ _____ _____    ______ ____
ROOT
ATOM      1  N   UNL     1       2.356   7.587  18.906  0.00  0.00    +0.000 NA
ATOM      2  C   UNL     1       1.582   6.578  19.636  0.00  0.00    +0.000 C 
ATOM      3  C   UNL     1       2.314   5.273  19.872  0.00  0.00    +0.000 A 
ATOM      4  C   UNL     1       2.033   4.499  21.005  0.00  0.00    +0.000 A 
ATOM      5  C   UNL     1       2.618   3.242  21.163  0.00  0.00    +0.000 A 
ATOM      6  C   UNL     1       3.452   2.733  20.171  0.00  0.00    +0.000 A 
ATOM      7  C   UNL     1       3.737   3.493  19.038  0.00  0.00    +0.000 A 
ATOM      8  C   UNL     1       3.212   4.784  18.899  0.00  0.00    +0.000 A 
ATOM      9  C   UNL     1       3.514   5.688  17.716  0.00  0.00    +0.000 C 
ATOM     10  C   UNL     1       3.577   7.163  18.188  0.00  0.00    +0.000 C 
ENDROOT
BRANCH   9  11
ATOM     11  C   UNL     1       4.760   5.361  16.908  0.00  0.00    +0.000 A 
ATOM     12  C   UNL     1       5.969   6.022  17.182  0.00  0.00    +0.000 A 
ATOM     13  C   UNL     1       7.128   5.701  16.476  0.00  0.00    +0.000 A 
ATOM     14  C   UNL     1       7.095   4.719  15.489  0.00  0.00    +0.000 A 
ATOM     15  C   UNL     1       5.902   4.061  15.201  0.00  0.00    +0.000 A 
ATOM     16  C   UNL     1       4.741   4.377  15.906  0.00  0.00    +0.000 A 
ENDBRANCH   9  11
BRANCH   1  17
ATOM     17  S   UNL     1       1.605   9.029  18.500  0.00  0.00    +0.000 S 
ATOM     18  O   UNL     1       0.478   8.728  17.644  0.00  0.00    +0.000 OA
ATOM     19  O   UNL     1       2.611  10.006  18.168  0.00  0.00    +0.000 OA
BRANCH  17  23
ATOM     20  C   UNL     1      -0.360   9.825  23.263  0.00  0.00    +0.000 C 
ATOM     21  N   UNL     1       0.036  10.013  21.887  0.00  0.00    +0.000 N 
ATOM     22  C   UNL     1       0.905   9.237  21.186  0.00  0.00    +0.000 A 
ATOM     23  C   UNL     1       0.848   9.693  19.889  0.00  0.00    +0.000 A 
ATOM     24  C   UNL     1      -0.008  10.821  19.911  0.00  0.00    +0.000 A 
ATOM     25  N   UNL     1      -0.499  11.007  21.162  0.00  0.00    +0.000 NA
BRANCH  24  26
ATOM     26  C   UNL     1      -0.379  11.730  18.767  0.00  0.00    +0.000 C 
ATOM     27  F   UNL     1      -1.005  11.100  17.743  0.00  0.00    +0.000 F 
ATOM     28  F   UNL     1      -1.209  12.732  19.163  0.00  0.00    +0.000 F 
ATOM     29  F   UNL     1       0.719  12.328  18.226  0.00  0.00    +0.000 F 
ENDBRANCH  24  26
ENDBRANCH  17  23
ENDBRANCH   1  17
TORSDOF 4
ENDMDL
MODEL 7
REMARK VINA RESULT:      -7.9      5.077      7.538
REMARK  Name = 
REMARK  5 active torsions:
REMARK  status: ('A' for Active; 'I' for Inactive)
REMARK    1  A    between atoms: C_1  and  N_2
REMARK    2  A    between atoms: C_4  and  S_5
REMARK    3  A    between atoms: S_5  and  N_8
REMARK    4  A    between atoms: C_16  and  C_17
REMARK    5  A    between atoms: C_24  and  C_25
REMARK                            x       y       z     vdW  Elec       q    Type
REMARK                         _______ _______ _______ _____ _____    ______ ____
ROOT
ATOM      1  N   UNL     1       1.991   8.463  18.385  0.00  0.00    +0.000 NA
ATOM      2  C   UNL     1       3.281   8.534  17.690  0.00  0.00    +0.000 C 
ATOM      3  C   UNL     1       3.849   7.190  17.279  0.00  0.00    +0.000 A 
ATOM      4  C   UNL     1       4.657   7.082  16.140  0.00  0.00    +0.000 A 
ATOM      5  C   UNL     1       5.277   5.872  15.828  0.00  0.00    +0.000 A 
ATOM      6  C   UNL     1       5.129   4.776  16.674  0.00  0.00    +0.000 A 
ATOM      7  C   UNL     1       4.329   4.872  17.811  0.00  0.00    +0.000 A 
ATOM      8  C   UNL     1       3.645   6.061  18.099  0.00  0.00    +0.000 A 
ATOM      9  C   UNL     1       2.721   6.226  19.294  0.00  0.00    +0.000 C 
ATOM     10  C   UNL     1       1.543   7.159  18.917  0.00  0.00    +0.000 C 
ENDROOT
BRANCH   9  11
ATOM     11  C   UNL     1       2.179   4.950  19.918  0.00  0.00    +0.000 A 
ATOM     12  C   UNL     1       1.313   4.122  19.185  0.00  0.00    +0.000 A 
ATOM     13  C   UNL     1       0.841   2.929  19.731  0.00  0.00    +0.000 A 
ATOM     14  C   UNL     1       1.226   2.549  21.015  0.00  0.00    +0.000 A 
ATOM     15  C   UNL     1       2.078   3.364  21.757  0.00  0.00    +0.000 A 
ATOM     16  C   UNL     1       2.553   4.556  21.214  0.00  0.00    +0.000 A 
ENDBRANCH   9  11
BRANCH   1  17
ATOM     17  S   UNL     1       1.325   9.883  18.975  0.00  0.00    +0.000 S 
ATOM     18  O   UNL     1       2.070  10.996  18.429  0.00  0.00    +0.000 OA
ATOM     19  O   UNL     1       1.056   9.725  20.383  0.00  0.00    +0.000 OA
BRANCH  17  23
ATOM     20  C   UNL     1      -2.871   9.835  15.881  0.00  0.00    +0.000 C 
ATOM     21  N   UNL     1      -1.982  10.077  16.992  0.00  0.00    +0.000 N 
ATOM     22  C   UNL     1      -0.801   9.447  17.232  0.00  0.00    +0.000 A 
ATOM     23  C   UNL     1      -0.233  10.111  18.295  0.00  0.00    +0.000 A 
ATOM     24  C   UNL     1      -1.188  11.072  18.708  0.00  0.00    +0.000 A 
ATOM     25  N   UNL     1      -2.270  11.034  17.889  0.00  0.00    +0.000 NA
BRANCH  24  26
ATOM     26  C   UNL     1      -1.099  12.037  19.862  0.00  0.00    +0.000 C 
ATOM     27  F   UNL     1       0.076  12.710  19.929  0.00  0.00    +0.000 F 
ATOM     28  F   UNL     1      -2.077  12.982  19.813  0.00  0.00    +0.000 F 
ATOM     29  F   UNL     1      -1.235  11.400  21.059  0.00  0.00    +0.000 F 
ENDBRANCH  24  26
ENDBRANCH  17  23
ENDBRANCH   1  17
TORSDOF 4
ENDMDL
MODEL 8
REMARK VINA RESULT:      -7.9      6.720      8.965
REMARK  Name = 
REMARK  5 active torsions:
REMARK  status: ('A' for Active; 'I' for Inactive)
REMARK    1  A    between atoms: C_1  and  N_2
REMARK    2  A    between atoms: C_4  and  S_5
REMARK    3  A    between atoms: S_5  and  N_8
REMARK    4  A    between atoms: C_16  and  C_17
REMARK    5  A    between atoms: C_24  and  C_25
REMARK                            x       y       z     vdW  Elec       q    Type
REMARK                         _______ _______ _______ _____ _____    ______ ____
ROOT
ATOM      1  N   UNL     1       0.345  12.608  20.476  0.00  0.00    +0.000 NA
ATOM      2  C   UNL     1      -0.738  12.997  19.567  0.00  0.00    +0.000 C 
ATOM      3  C   UNL     1      -1.410  11.840  18.857  0.00  0.00    +0.000 A 
ATOM      4  C   UNL     1      -2.761  11.922  18.492  0.00  0.00    +0.000 A 
ATOM      5  C   UNL     1      -3.348  10.909  17.734  0.00  0.00    +0.000 A 
ATOM      6  C   UNL     1      -2.581   9.831  17.299  0.00  0.00    +0.000 A 
ATOM      7  C   UNL     1      -1.236   9.739  17.655  0.00  0.00    +0.000 A 
ATOM      8  C   UNL     1      -0.651  10.715  18.474  0.00  0.00    +0.000 A 
ATOM      9  C   UNL     1       0.794  10.659  18.939  0.00  0.00    +0.000 C 
ATOM     10  C   UNL     1       0.904  11.244  20.370  0.00  0.00    +0.000 C 
ENDROOT
BRANCH   9  11
ATOM     11  C   UNL     1       1.474   9.300  18.892  0.00  0.00    +0.000 A 
ATOM     12  C   UNL     1       2.186   8.910  17.746  0.00  0.00    +0.000 A 
ATOM     13  C   UNL     1       2.849   7.683  17.707  0.00  0.00    +0.000 A 
ATOM     14  C   UNL     1       2.806   6.831  18.808  0.00  0.00    +0.000 A 
ATOM     15  C   UNL     1       2.097   7.201  19.948  0.00  0.00    +0.000 A 
ATOM     16  C   UNL     1       1.436   8.428  19.993  0.00  0.00    +0.000 A 
ENDBRANCH   9  11
BRANCH   1  17
ATOM     17  S   UNL     1       1.224  13.817  21.234  0.00  0.00    +0.000 S 
ATOM     18  O   UNL     1       2.625  13.458  21.184  0.00  0.00    +0.000 OA
ATOM     19  O   UNL     1       0.548  14.199  22.448  0.00  0.00    +0.000 OA
BRANCH  17  23
ATOM     20  C   UNL     1      -0.020  18.428  19.144  0.00  0.00    +0.000 C 
ATOM     21  N   UNL     1       0.644  17.177  19.424  0.00  0.00    +0.000 N 
ATOM     22  C   UNL     1       0.467  16.399  20.525  0.00  0.00    +0.000 A 
ATOM     23  C   UNL     1       1.174  15.244  20.284  0.00  0.00    +0.000 A 
ATOM     24  C   UNL     1       1.839  15.446  19.050  0.00  0.00    +0.000 A 
ATOM     25  N   UNL     1       1.501  16.654  18.533  0.00  0.00    +0.000 NA
BRANCH  24  26
ATOM     26  C   UNL     1       2.787  14.515  18.341  0.00  0.00    +0.000 C 
ATOM     27  F   UNL     1       3.277  15.008  17.177  0.00  0.00    +0.000 F 
ATOM     28  F   UNL     1       3.868  14.207  19.108  0.00  0.00    +0.000 F 
ATOM     29  F   UNL     1       2.187  13.333  18.025  0.00  0.00    +0.000 F 
ENDBRANCH  24  26
ENDBRANCH  17  23
ENDBRANCH   1  17
TORSDOF 4
ENDMDL
MODEL 9
REMARK VINA RESULT:      -7.9      4.749      7.024
REMARK  Name = 
REMARK  5 active torsions:
REMARK  status: ('A' for Active; 'I' for Inactive)
REMARK    1  A    between atoms: C_1  and  N_2
REMARK    2  A    between atoms: C_4  and  S_5
REMARK    3  A    between atoms: S_5  and  N_8
REMARK    4  A    between atoms: C_16  and  C_17
REMARK    5  A    between atoms: C_24  and  C_25
REMARK                            x       y       z     vdW  Elec       q    Type
REMARK                         _______ _______ _______ _____ _____    ______ ____
ROOT
ATOM      1  N   UNL     1       2.261   8.042  17.793  0.00  0.00    +0.000 NA
ATOM      2  C   UNL     1       3.696   8.202  17.538  0.00  0.00    +0.000 C 
ATOM      3  C   UNL     1       4.488   6.911  17.567  0.00  0.00    +0.000 A 
ATOM      4  C   UNL     1       5.636   6.767  16.776  0.00  0.00    +0.000 A 
ATOM      5  C   UNL     1       6.432   5.627  16.892  0.00  0.00    +0.000 A 
ATOM      6  C   UNL     1       6.112   4.645  17.826  0.00  0.00    +0.000 A 
ATOM      7  C   UNL     1       4.973   4.779  18.620  0.00  0.00    +0.000 A 
ATOM      8  C   UNL     1       4.127   5.885  18.466  0.00  0.00    +0.000 A 
ATOM      9  C   UNL     1       2.847   6.077  19.262  0.00  0.00    +0.000 C 
ATOM     10  C   UNL     1       1.782   6.771  18.376  0.00  0.00    +0.000 C 
ENDROOT
BRANCH   9  11
ATOM     11  C   UNL     1       2.247   4.833  19.897  0.00  0.00    +0.000 A 
ATOM     12  C   UNL     1       1.418   3.988  19.140  0.00  0.00    +0.000 A 
ATOM     13  C   UNL     1       0.895   2.822  19.699  0.00  0.00    +0.000 A 
ATOM     14  C   UNL     1       1.189   2.488  21.019  0.00  0.00    +0.000 A 
ATOM     15  C   UNL     1       2.003   3.320  21.784  0.00  0.00    +0.000 A 
ATOM     16  C   UNL     1       2.530   4.485  21.228  0.00  0.00    +0.000 A 
ENDBRANCH   9  11
BRANCH   1  17
ATOM     17  S   UNL     1       1.309   9.418  17.887  0.00  0.00    +0.000 S 
ATOM     18  O   UNL     1       0.044   9.139  17.244  0.00  0.00    +0.000 OA
ATOM     19  O   UNL     1       2.117  10.570  17.575  0.00  0.00    +0.000 OA
BRANCH  17  23
ATOM     20  C   UNL     1       0.698   9.129  23.056  0.00  0.00    +0.000 C 
ATOM     21  N   UNL     1       0.605   9.555  21.680  0.00  0.00    +0.000 N 
ATOM     22  C   UNL     1       1.404   9.153  20.655  0.00  0.00    +0.000 A 
ATOM     23  C   UNL     1       0.846   9.686  19.516  0.00  0.00    +0.000 A 
ATOM     24  C   UNL     1      -0.238  10.487  19.952  0.00  0.00    +0.000 A 
ATOM     25  N   UNL     1      -0.369  10.397  21.300  0.00  0.00    +0.000 NA
BRANCH  24  26
ATOM     26  C   UNL     1      -1.161  11.337  19.118  0.00  0.00    +0.000 C 
ATOM     27  F   UNL     1      -0.525  12.100  18.195  0.00  0.00    +0.000 F 
ATOM     28  F   UNL     1      -2.065  10.586  18.434  0.00  0.00    +0.000 F 
ATOM     29  F   UNL     1      -1.879  12.201  19.889  0.00  0.00    +0.000 F 
ENDBRANCH  24  26
ENDBRANCH  17  23
ENDBRANCH   1  17
TORSDOF 4
ENDMDL
