MODEL 1
REMARK VINA RESULT:      -9.4      0.000      0.000
REMARK  Name = 
REMARK  5 active torsions:
REMARK  status: ('A' for Active; 'I' for Inactive)
REMARK    1  A    between atoms: C_1  and  C_2
REMARK    2  A    between atoms: N_6  and  C_7
REMARK    3  A    between atoms: C_11  and  N_12
REMARK    4  A    between atoms: C_13  and  C_15
REMARK    5  A    between atoms: C_18  and  C_19
REMARK                            x       y       z     vdW  Elec       q    Type
REMARK                         _______ _______ _______ _____ _____    ______ ____
ROOT
ATOM      1  N   UNL     1       1.064   8.834  18.975  0.00  0.00    +0.000 N 
ATOM      2  C   UNL     1       2.052   8.251  18.187  0.00  0.00    +0.000 C 
ATOM      3  O   UNL     1       2.584   8.772  17.218  0.00  0.00    +0.000 OA
ATOM      4  H   UNL     1       0.762   8.286  19.772  0.00  0.00    +0.000 HD
ENDROOT
BRANCH   2   5
ATOM      5  C   UNL     1       2.421   6.894  18.589  0.00  0.00    +0.000 A 
ATOM      6  C   UNL     1       2.315   5.690  17.890  0.00  0.00    +0.000 A 
ATOM      7  C   UNL     1       2.647   4.684  18.808  0.00  0.00    +0.000 A 
ATOM      8  C   UNL     1       2.488   3.251  18.915  0.00  0.00    +0.000 A 
ATOM      9  C   UNL     1       1.502   2.943  19.793  0.00  0.00    +0.000 A 
ATOM     10  C   UNL     1       1.862   3.505  21.185  0.00  0.00    +0.000 A 
ATOM     11  O   UNL     1       1.431   2.959  22.197  0.00  0.00    +0.000 OA
ATOM     12  N   UNL     1       2.570   4.699  21.218  0.00  0.00    +0.000 N 
ATOM     13  C   UNL     1       2.767   5.318  20.016  0.00  0.00    +0.000 A 
ATOM     14  O   UNL     1       2.796   6.657  19.898  0.00  0.00    +0.000 OA
ATOM     15  H   UNL     1       2.659   5.195  22.091  0.00  0.00    +0.000 HD
BRANCH   8  16
ATOM     16  C   UNL     1       3.822   2.526  19.146  0.00  0.00    +0.000 C 
ATOM     17  F   UNL     1       4.023   2.128  20.430  0.00  0.00    +0.000 F 
ATOM     18  F   UNL     1       3.933   1.398  18.386  0.00  0.00    +0.000 F 
ATOM     19  F   UNL     1       4.880   3.307  18.809  0.00  0.00    +0.000 F 
ENDBRANCH   8  16
ENDBRANCH   2   5
BRANCH   1  24
ATOM     20  C   UNL     1      -1.502  11.427  18.153  0.00  0.00    +0.000 A 
ATOM     21  C   UNL     1      -0.795  12.604  18.401  0.00  0.00    +0.000 A 
ATOM     22  C   UNL     1       0.528  12.544  18.837  0.00  0.00    +0.000 A 
ATOM     23  C   UNL     1       1.153  11.307  19.027  0.00  0.00    +0.000 A 
ATOM     24  C   UNL     1       0.469  10.108  18.797  0.00  0.00    +0.000 A 
ATOM     25  C   UNL     1      -0.867  10.178  18.361  0.00  0.00    +0.000 A 
BRANCH  20  31
ATOM     26  C   UNL     1      -2.918  10.638  15.339  0.00  0.00    +0.000 C 
ATOM     27  C   UNL     1      -3.493  11.291  16.538  0.00  0.00    +0.000 A 
ATOM     28  N   UNL     1      -4.754  11.656  16.657  0.00  0.00    +0.000 NA
ATOM     29  N   UNL     1      -4.943  11.972  17.972  0.00  0.00    +0.000 NA
ATOM     30  N   UNL     1      -3.831  11.796  18.668  0.00  0.00    +0.000 NA
ATOM     31  N   UNL     1      -2.869  11.475  17.769  0.00  0.00    +0.000 N 
ENDBRANCH  20  31
ENDBRANCH   1  24
TORSDOF 4
ENDMDL
MODEL 2
REMARK VINA RESULT:      -9.1      0.785      1.340
REMARK  Name = 
REMARK  5 active torsions:
REMARK  status: ('A' for Active; 'I' for Inactive)
REMARK    1  A    between atoms: C_1  and  C_2
REMARK    2  A    between atoms: N_6  and  C_7
REMARK    3  A    between atoms: C_11  and  N_12
REMARK    4  A    between atoms: C_13  and  C_15
REMARK    5  A    between atoms: C_18  and  C_19
REMARK                            x       y       z     vdW  Elec       q    Type
REMARK                         _______ _______ _______ _____ _____    ______ ____
ROOT
ATOM      1  N   UNL     1       1.070   8.875  18.962  0.00  0.00    +0.000 N 
ATOM      2  C   UNL     1       2.049   8.298  18.157  0.00  0.00    +0.000 C 
ATOM      3  O   UNL     1       2.577   8.832  17.194  0.00  0.00    +0.000 OA
ATOM      4  H   UNL     1       0.770   8.315  19.752  0.00  0.00    +0.000 HD
ENDROOT
BRANCH   2   5
ATOM      5  C   UNL     1       2.412   6.933  18.535  0.00  0.00    +0.000 A 
ATOM      6  C   UNL     1       2.231   5.732  17.845  0.00  0.00    +0.000 A 
ATOM      7  C   UNL     1       2.599   4.718  18.739  0.00  0.00    +0.000 A 
ATOM      8  C   UNL     1       2.414   3.289  18.857  0.00  0.00    +0.000 A 
ATOM      9  C   UNL     1       1.483   3.003  19.799  0.00  0.00    +0.000 A 
ATOM     10  C   UNL     1       1.947   3.555  21.164  0.00  0.00    +0.000 A 
ATOM     11  O   UNL     1       1.572   3.018  22.202  0.00  0.00    +0.000 OA
ATOM     12  N   UNL     1       2.685   4.732  21.149  0.00  0.00    +0.000 N 
ATOM     13  C   UNL     1       2.815   5.348  19.936  0.00  0.00    +0.000 A 
ATOM     14  O   UNL     1       2.867   6.685  19.815  0.00  0.00    +0.000 OA
ATOM     15  H   UNL     1       2.843   5.224  22.014  0.00  0.00    +0.000 HD
BRANCH   8  16
ATOM     16  C   UNL     1       3.743   2.533  18.999  0.00  0.00    +0.000 C 
ATOM     17  F   UNL     1       4.846   3.304  18.805  0.00  0.00    +0.000 F 
ATOM     18  F   UNL     1       3.891   1.981  20.239  0.00  0.00    +0.000 F 
ATOM     19  F   UNL     1       3.828   1.501  18.121  0.00  0.00    +0.000 F 
ENDBRANCH   8  16
ENDBRANCH   2   5
BRANCH   1  24
ATOM     20  C   UNL     1      -1.474  11.499  18.167  0.00  0.00    +0.000 A 
ATOM     21  C   UNL     1      -0.768  12.665  18.460  0.00  0.00    +0.000 A 
ATOM     22  C   UNL     1       0.547  12.588  18.918  0.00  0.00    +0.000 A 
ATOM     23  C   UNL     1       1.165  11.345  19.085  0.00  0.00    +0.000 A 
ATOM     24  C   UNL     1       0.482  10.155  18.809  0.00  0.00    +0.000 A 
ATOM     25  C   UNL     1      -0.846  10.242  18.352  0.00  0.00    +0.000 A 
BRANCH  20  31
ATOM     26  C   UNL     1      -4.108  12.459  19.804  0.00  0.00    +0.000 C 
ATOM     27  C   UNL     1      -4.002  11.822  18.471  0.00  0.00    +0.000 A 
ATOM     28  N   UNL     1      -5.029  11.549  17.690  0.00  0.00    +0.000 NA
ATOM     29  N   UNL     1      -4.509  11.216  16.472  0.00  0.00    +0.000 NA
ATOM     30  N   UNL     1      -3.188  11.292  16.481  0.00  0.00    +0.000 NA
ATOM     31  N   UNL     1      -2.833  11.562  17.761  0.00  0.00    +0.000 N 
ENDBRANCH  20  31
ENDBRANCH   1  24
TORSDOF 4
ENDMDL
MODEL 3
REMARK VINA RESULT:      -9.1      7.582     10.367
REMARK  Name = 
REMARK  5 active torsions:
REMARK  status: ('A' for Active; 'I' for Inactive)
REMARK    1  A    between atoms: C_1  and  C_2
REMARK    2  A    between atoms: N_6  and  C_7
REMARK    3  A    between atoms: C_11  and  N_12
REMARK    4  A    between atoms: C_13  and  C_15
REMARK    5  A    between atoms: C_18  and  C_19
REMARK                            x       y       z     vdW  Elec       q    Type
REMARK                         _______ _______ _______ _____ _____    ______ ____
ROOT
ATOM      1  N   UNL     1       6.970   7.402  17.153  0.00  0.00    +0.000 N 
ATOM      2  C   UNL     1       7.919   7.657  18.140  0.00  0.00    +0.000 C 
ATOM      3  O   UNL     1       8.431   6.815  18.862  0.00  0.00    +0.000 OA
ATOM      4  H   UNL     1       6.680   8.206  16.609  0.00  0.00    +0.000 HD
ENDROOT
BRANCH   2   5
ATOM      5  C   UNL     1       8.268   9.069  18.290  0.00  0.00    +0.000 A 
ATOM      6  C   UNL     1       8.213  10.110  17.361  0.00  0.00    +0.000 A 
ATOM      7  C   UNL     1       8.828  11.208  17.980  0.00  0.00    +0.000 A 
ATOM      8  C   UNL     1       9.387  12.477  17.574  0.00  0.00    +0.000 A 
ATOM      9  C   UNL     1      10.741  12.429  17.588  0.00  0.00    +0.000 A 
ATOM     10  C   UNL     1      11.229  12.109  19.017  0.00  0.00    +0.000 A 
ATOM     11  O   UNL     1      12.332  12.497  19.391  0.00  0.00    +0.000 OA
ATOM     12  N   UNL     1      10.425  11.274  19.784  0.00  0.00    +0.000 N 
ATOM     13  C   UNL     1       9.349  10.722  19.149  0.00  0.00    +0.000 A 
ATOM     14  O   UNL     1       8.901   9.489  19.443  0.00  0.00    +0.000 OA
ATOM     15  H   UNL     1      10.792  10.889  20.640  0.00  0.00    +0.000 HD
BRANCH   8  16
ATOM     16  C   UNL     1       8.766  13.662  18.328  0.00  0.00    +0.000 C 
ATOM     17  F   UNL     1       8.301  13.351  19.567  0.00  0.00    +0.000 F 
ATOM     18  F   UNL     1       9.657  14.680  18.511  0.00  0.00    +0.000 F 
ATOM     19  F   UNL     1       7.725  14.199  17.642  0.00  0.00    +0.000 F 
ENDBRANCH   8  16
ENDBRANCH   2   5
BRANCH   1  24
ATOM     20  C   UNL     1       5.039   4.218  17.499  0.00  0.00    +0.000 A 
ATOM     21  C   UNL     1       5.234   3.639  16.245  0.00  0.00    +0.000 A 
ATOM     22  C   UNL     1       6.004   4.296  15.286  0.00  0.00    +0.000 A 
ATOM     23  C   UNL     1       6.583   5.536  15.574  0.00  0.00    +0.000 A 
ATOM     24  C   UNL     1       6.400   6.148  16.819  0.00  0.00    +0.000 A 
ATOM     25  C   UNL     1       5.618   5.480  17.779  0.00  0.00    +0.000 A 
BRANCH  20  31
ATOM     26  C   UNL     1       1.802   4.044  17.677  0.00  0.00    +0.000 C 
ATOM     27  C   UNL     1       2.827   3.616  18.656  0.00  0.00    +0.000 A 
ATOM     28  N   UNL     1       2.562   3.046  19.815  0.00  0.00    +0.000 NA
ATOM     29  N   UNL     1       3.751   2.578  20.295  0.00  0.00    +0.000 NA
ATOM     30  N   UNL     1       4.739   2.833  19.453  0.00  0.00    +0.000 NA
ATOM     31  N   UNL     1       4.206   3.588  18.462  0.00  0.00    +0.000 N 
ENDBRANCH  20  31
ENDBRANCH   1  24
TORSDOF 4
ENDMDL
MODEL 4
REMARK VINA RESULT:      -8.9      4.975      9.590
REMARK  Name = 
REMARK  5 active torsions:
REMARK  status: ('A' for Active; 'I' for Inactive)
REMARK    1  A    between atoms: C_1  and  C_2
REMARK    2  A    between atoms: N_6  and  C_7
REMARK    3  A    between atoms: C_11  and  N_12
REMARK    4  A    between atoms: C_13  and  C_15
REMARK    5  A    between atoms: C_18  and  C_19
REMARK                            x       y       z     vdW  Elec       q    Type
REMARK                         _______ _______ _______ _____ _____    ______ ____
ROOT
ATOM      1  N   UNL     1       2.036   7.433  18.191  0.00  0.00    +0.000 N 
ATOM      2  C   UNL     1       1.774   8.058  19.408  0.00  0.00    +0.000 C 
ATOM      3  O   UNL     1       2.030   7.596  20.509  0.00  0.00    +0.000 OA
ATOM      4  H   UNL     1       1.805   7.974  17.365  0.00  0.00    +0.000 HD
ENDROOT
BRANCH   2   5
ATOM      5  C   UNL     1       1.116   9.359  19.288  0.00  0.00    +0.000 A 
ATOM      6  C   UNL     1       0.815  10.306  20.269  0.00  0.00    +0.000 A 
ATOM      7  C   UNL     1       0.030  11.278  19.634  0.00  0.00    +0.000 A 
ATOM      8  C   UNL     1      -0.859  12.347  20.029  0.00  0.00    +0.000 A 
ATOM      9  C   UNL     1      -2.152  11.989  19.836  0.00  0.00    +0.000 A 
ATOM     10  C   UNL     1      -2.382  11.683  18.340  0.00  0.00    +0.000 A 
ATOM     11  O   UNL     1      -3.496  11.835  17.847  0.00  0.00    +0.000 OA
ATOM     12  N   UNL     1      -1.320  11.121  17.643  0.00  0.00    +0.000 N 
ATOM     13  C   UNL     1      -0.223  10.782  18.383  0.00  0.00    +0.000 A 
ATOM     14  O   UNL     1       0.538   9.714  18.085  0.00  0.00    +0.000 OA
ATOM     15  H   UNL     1      -1.484  10.733  16.727  0.00  0.00    +0.000 HD
BRANCH   8  16
ATOM     16  C   UNL     1      -0.457  13.701  19.425  0.00  0.00    +0.000 C 
ATOM     17  F   UNL     1      -0.209  13.663  18.090  0.00  0.00    +0.000 F 
ATOM     18  F   UNL     1      -1.425  14.648  19.595  0.00  0.00    +0.000 F 
ATOM     19  F   UNL     1       0.659  14.199  20.017  0.00  0.00    +0.000 F 
ENDBRANCH   8  16
ENDBRANCH   2   5
BRANCH   1  24
ATOM     20  C   UNL     1       4.627   4.794  17.639  0.00  0.00    +0.000 A 
ATOM     21  C   UNL     1       3.841   3.643  17.581  0.00  0.00    +0.000 A 
ATOM     22  C   UNL     1       2.457   3.737  17.721  0.00  0.00    +0.000 A 
ATOM     23  C   UNL     1       1.850   4.980  17.920  0.00  0.00    +0.000 A 
ATOM     24  C   UNL     1       2.610   6.153  17.993  0.00  0.00    +0.000 A 
ATOM     25  C   UNL     1       4.006   6.049  17.855  0.00  0.00    +0.000 A 
BRANCH  20  31
ATOM     26  C   UNL     1       6.576   4.628  15.048  0.00  0.00    +0.000 C 
ATOM     27  C   UNL     1       6.899   4.482  16.486  0.00  0.00    +0.000 A 
ATOM     28  N   UNL     1       8.110   4.267  16.961  0.00  0.00    +0.000 NA
ATOM     29  N   UNL     1       8.033   4.451  18.312  0.00  0.00    +0.000 NA
ATOM     30  N   UNL     1       6.806   4.787  18.677  0.00  0.00    +0.000 NA
ATOM     31  N   UNL     1       6.042   4.704  17.561  0.00  0.00    +0.000 N 
ENDBRANCH  20  31
ENDBRANCH   1  24
TORSDOF 4
ENDMDL
MODEL 5
REMARK VINA RESULT:      -8.9      1.445      1.805
REMARK  Name = 
REMARK  5 active torsions:
REMARK  status: ('A' for Active; 'I' for Inactive)
REMARK    1  A    between atoms: C_1  and  C_2
REMARK    2  A    between atoms: N_6  and  C_7
REMARK    3  A    between atoms: C_11  and  N_12
REMARK    4  A    between atoms: C_13  and  C_15
REMARK    5  A    between atoms: C_18  and  C_19
REMARK                            x       y       z     vdW  Elec       q    Type
REMARK                         _______ _______ _______ _____ _____    ______ ____
ROOT
ATOM      1  N   UNL     1       0.859   9.416  19.436  0.00  0.00    +0.000 N 
ATOM      2  C   UNL     1       1.763   9.183  18.403  0.00  0.00    +0.000 C 
ATOM      3  O   UNL     1       1.953   9.922  17.449  0.00  0.00    +0.000 OA
ATOM      4  H   UNL     1       0.857   8.726  20.178  0.00  0.00    +0.000 HD
ENDROOT
BRANCH   2   5
ATOM      5  C   UNL     1       2.495   7.922  18.517  0.00  0.00    +0.000 A 
ATOM      6  C   UNL     1       3.425   7.343  17.650  0.00  0.00    +0.000 A 
ATOM      7  C   UNL     1       3.673   6.060  18.159  0.00  0.00    +0.000 A 
ATOM      8  C   UNL     1       4.254   4.825  17.682  0.00  0.00    +0.000 A 
ATOM      9  C   UNL     1       3.286   3.915  17.412  0.00  0.00    +0.000 A 
ATOM     10  C   UNL     1       2.485   3.620  18.698  0.00  0.00    +0.000 A 
ATOM     11  O   UNL     1       1.938   2.531  18.844  0.00  0.00    +0.000 OA
ATOM     12  N   UNL     1       2.319   4.672  19.591  0.00  0.00    +0.000 N 
ATOM     13  C   UNL     1       2.775   5.892  19.178  0.00  0.00    +0.000 A 
ATOM     14  O   UNL     1       2.163   7.038  19.525  0.00  0.00    +0.000 OA
ATOM     15  H   UNL     1       1.651   4.580  20.340  0.00  0.00    +0.000 HD
BRANCH   8  16
ATOM     16  C   UNL     1       5.392   4.323  18.583  0.00  0.00    +0.000 C 
ATOM     17  F   UNL     1       5.122   3.153  19.220  0.00  0.00    +0.000 F 
ATOM     18  F   UNL     1       6.544   4.106  17.884  0.00  0.00    +0.000 F 
ATOM     19  F   UNL     1       5.705   5.229  19.543  0.00  0.00    +0.000 F 
ENDBRANCH   8  16
ENDBRANCH   2   5
BRANCH   1  24
ATOM     20  C   UNL     1      -2.130  11.603  18.913  0.00  0.00    +0.000 A 
ATOM     21  C   UNL     1      -1.838  12.676  19.756  0.00  0.00    +0.000 A 
ATOM     22  C   UNL     1      -0.655  12.680  20.494  0.00  0.00    +0.000 A 
ATOM     23  C   UNL     1       0.243  11.613  20.395  0.00  0.00    +0.000 A 
ATOM     24  C   UNL     1      -0.024  10.517  19.567  0.00  0.00    +0.000 A 
ATOM     25  C   UNL     1      -1.222  10.519  18.829  0.00  0.00    +0.000 A 
BRANCH  20  31
ATOM     26  C   UNL     1      -2.748  10.762  15.839  0.00  0.00    +0.000 C 
ATOM     27  C   UNL     1      -3.647  11.349  16.858  0.00  0.00    +0.000 A 
ATOM     28  N   UNL     1      -4.923  11.620  16.662  0.00  0.00    +0.000 NA
ATOM     29  N   UNL     1      -5.451  11.898  17.890  0.00  0.00    +0.000 NA
ATOM     30  N   UNL     1      -4.535  11.791  18.838  0.00  0.00    +0.000 NA
ATOM     31  N   UNL     1      -3.360  11.557  18.205  0.00  0.00    +0.000 N 
ENDBRANCH  20  31
ENDBRANCH   1  24
TORSDOF 4
ENDMDL
MODEL 6
REMARK VINA RESULT:      -8.9      7.458     10.224
REMARK  Name = 
REMARK  5 active torsions:
REMARK  status: ('A' for Active; 'I' for Inactive)
REMARK    1  A    between atoms: C_1  and  C_2
REMARK    2  A    between atoms: N_6  and  C_7
REMARK    3  A    between atoms: C_11  and  N_12
REMARK    4  A    between atoms: C_13  and  C_15
REMARK    5  A    between atoms: C_18  and  C_19
REMARK                            x       y       z     vdW  Elec       q    Type
REMARK                         _______ _______ _______ _____ _____    ______ ____
ROOT
ATOM      1  N   UNL     1       6.925   7.382  17.084  0.00  0.00    +0.000 N 
ATOM      2  C   UNL     1       7.844   7.628  18.101  0.00  0.00    +0.000 C 
ATOM      3  O   UNL     1       8.332   6.781  18.832  0.00  0.00    +0.000 OA
ATOM      4  H   UNL     1       6.654   8.191  16.536  0.00  0.00    +0.000 HD
ENDROOT
BRANCH   2   5
ATOM      5  C   UNL     1       8.193   9.038  18.270  0.00  0.00    +0.000 A 
ATOM      6  C   UNL     1       7.962  10.127  17.426  0.00  0.00    +0.000 A 
ATOM      7  C   UNL     1       8.658  11.204  17.994  0.00  0.00    +0.000 A 
ATOM      8  C   UNL     1       9.120  12.508  17.573  0.00  0.00    +0.000 A 
ATOM      9  C   UNL     1      10.457  12.492  17.353  0.00  0.00    +0.000 A 
ATOM     10  C   UNL     1      11.188  12.107  18.657  0.00  0.00    +0.000 A 
ATOM     11  O   UNL     1      12.333  12.501  18.859  0.00  0.00    +0.000 OA
ATOM     12  N   UNL     1      10.541  11.211  19.500  0.00  0.00    +0.000 N 
ATOM     13  C   UNL     1       9.380  10.668  19.027  0.00  0.00    +0.000 A 
ATOM     14  O   UNL     1       9.007   9.410  19.321  0.00  0.00    +0.000 OA
ATOM     15  H   UNL     1      11.055  10.789  20.257  0.00  0.00    +0.000 HD
BRANCH   8  16
ATOM     16  C   UNL     1       8.620  13.634  18.490  0.00  0.00    +0.000 C 
ATOM     17  F   UNL     1       7.441  14.187  18.098  0.00  0.00    +0.000 F 
ATOM     18  F   UNL     1       8.420  13.205  19.770  0.00  0.00    +0.000 F 
ATOM     19  F   UNL     1       9.519  14.647  18.573  0.00  0.00    +0.000 F 
ENDBRANCH   8  16
ENDBRANCH   2   5
BRANCH   1  24
ATOM     20  C   UNL     1       4.652   4.413  17.124  0.00  0.00    +0.000 A 
ATOM     21  C   UNL     1       5.181   3.647  16.085  0.00  0.00    +0.000 A 
ATOM     22  C   UNL     1       6.288   4.107  15.373  0.00  0.00    +0.000 A 
ATOM     23  C   UNL     1       6.873   5.335  15.694  0.00  0.00    +0.000 A 
ATOM     24  C   UNL     1       6.362   6.133  16.724  0.00  0.00    +0.000 A 
ATOM     25  C   UNL     1       5.242   5.663  17.434  0.00  0.00    +0.000 A 
BRANCH  20  31
ATOM     26  C   UNL     1       4.346   2.520  19.744  0.00  0.00    +0.000 C 
ATOM     27  C   UNL     1       3.305   3.061  18.841  0.00  0.00    +0.000 A 
ATOM     28  N   UNL     1       2.010   2.857  18.986  0.00  0.00    +0.000 NA
ATOM     29  N   UNL     1       1.385   3.716  18.129  0.00  0.00    +0.000 NA
ATOM     30  N   UNL     1       2.263   4.455  17.470  0.00  0.00    +0.000 NA
ATOM     31  N   UNL     1       3.487   3.985  17.814  0.00  0.00    +0.000 N 
ENDBRANCH  20  31
ENDBRANCH   1  24
TORSDOF 4
ENDMDL
MODEL 7
REMARK VINA RESULT:      -8.7      2.889      3.506
REMARK  Name = 
REMARK  5 active torsions:
REMARK  status: ('A' for Active; 'I' for Inactive)
REMARK    1  A    between atoms: C_1  and  C_2
REMARK    2  A    between atoms: N_6  and  C_7
REMARK    3  A    between atoms: C_11  and  N_12
REMARK    4  A    between atoms: C_13  and  C_15
REMARK    5  A    between atoms: C_18  and  C_19
REMARK                            x       y       z     vdW  Elec       q    Type
REMARK                         _______ _______ _______ _____ _____    ______ ____
ROOT
ATOM      1  N   UNL     1       0.903  10.430  20.663  0.00  0.00    +0.000 N 
ATOM      2  C   UNL     1       0.952   9.926  19.366  0.00  0.00    +0.000 C 
ATOM      3  O   UNL     1       0.427  10.436  18.388  0.00  0.00    +0.000 OA
ATOM      4  H   UNL     1       1.434   9.912  21.353  0.00  0.00    +0.000 HD
ENDROOT
BRANCH   2   5
ATOM      5  C   UNL     1       1.689   8.669  19.236  0.00  0.00    +0.000 A 
ATOM      6  C   UNL     1       2.113   7.991  18.091  0.00  0.00    +0.000 A 
ATOM      7  C   UNL     1       2.612   6.760  18.539  0.00  0.00    +0.000 A 
ATOM      8  C   UNL     1       2.934   5.474  17.963  0.00  0.00    +0.000 A 
ATOM      9  C   UNL     1       1.983   4.560  18.273  0.00  0.00    +0.000 A 
ATOM     10  C   UNL     1       1.899   4.407  19.807  0.00  0.00    +0.000 A 
ATOM     11  O   UNL     1       1.521   3.347  20.298  0.00  0.00    +0.000 OA
ATOM     12  N   UNL     1       2.145   5.544  20.567  0.00  0.00    +0.000 N 
ATOM     13  C   UNL     1       2.313   6.709  19.874  0.00  0.00    +0.000 A 
ATOM     14  O   UNL     1       1.904   7.894  20.359  0.00  0.00    +0.000 OA
ATOM     15  H   UNL     1       1.917   5.538  21.548  0.00  0.00    +0.000 HD
BRANCH   8  16
ATOM     16  C   UNL     1       4.379   5.042  18.256  0.00  0.00    +0.000 C 
ATOM     17  F   UNL     1       4.951   5.690  19.305  0.00  0.00    +0.000 F 
ATOM     18  F   UNL     1       4.469   3.712  18.549  0.00  0.00    +0.000 F 
ATOM     19  F   UNL     1       5.187   5.242  17.184  0.00  0.00    +0.000 F 
ENDBRANCH   8  16
ENDBRANCH   2   5
BRANCH   1  24
ATOM     20  C   UNL     1      -1.829  12.601  22.009  0.00  0.00    +0.000 A 
ATOM     21  C   UNL     1      -1.221  13.856  21.987  0.00  0.00    +0.000 A 
ATOM     22  C   UNL     1       0.088  13.988  21.526  0.00  0.00    +0.000 A 
ATOM     23  C   UNL     1       0.798  12.867  21.085  0.00  0.00    +0.000 A 
ATOM     24  C   UNL     1       0.221  11.592  21.102  0.00  0.00    +0.000 A 
ATOM     25  C   UNL     1      -1.099  11.468  21.573  0.00  0.00    +0.000 A 
BRANCH  20  31
ATOM     26  C   UNL     1      -4.720  13.028  20.594  0.00  0.00    +0.000 C 
ATOM     27  C   UNL     1      -4.391  12.759  22.013  0.00  0.00    +0.000 A 
ATOM     28  N   UNL     1      -5.284  12.625  22.974  0.00  0.00    +0.000 NA
ATOM     29  N   UNL     1      -4.613  12.137  24.058  0.00  0.00    +0.000 NA
ATOM     30  N   UNL     1      -3.332  11.953  23.783  0.00  0.00    +0.000 NA
ATOM     31  N   UNL     1      -3.139  12.444  22.535  0.00  0.00    +0.000 N 
ENDBRANCH  20  31
ENDBRANCH   1  24
TORSDOF 4
ENDMDL
MODEL 8
REMARK VINA RESULT:      -8.7      2.781      3.204
REMARK  Name = 
REMARK  5 active torsions:
REMARK  status: ('A' for Active; 'I' for Inactive)
REMARK    1  A    between atoms: C_1  and  C_2
REMARK    2  A    between atoms: N_6  and  C_7
REMARK    3  A    between atoms: C_11  and  N_12
REMARK    4  A    between atoms: C_13  and  C_15
REMARK    5  A    between atoms: C_18  and  C_19
REMARK                            x       y       z     vdW  Elec       q    Type
REMARK                         _______ _______ _______ _____ _____    ______ ____
ROOT
ATOM      1  N   UNL     1       0.951   9.380  19.906  0.00  0.00    +0.000 N 
ATOM      2  C   UNL     1       1.437   8.443  20.814  0.00  0.00    +0.000 C 
ATOM      3  O   UNL     1       1.479   8.589  22.026  0.00  0.00    +0.000 OA
ATOM      4  H   UNL     1       0.942   9.084  18.936  0.00  0.00    +0.000 HD
ENDROOT
BRANCH   2   5
ATOM      5  C   UNL     1       1.947   7.217  20.200  0.00  0.00    +0.000 A 
ATOM      6  C   UNL     1       2.530   7.016  18.947  0.00  0.00    +0.000 A 
ATOM      7  C   UNL     1       2.667   5.628  18.808  0.00  0.00    +0.000 A 
ATOM      8  C   UNL     1       2.895   4.687  17.734  0.00  0.00    +0.000 A 
ATOM      9  C   UNL     1       1.749   4.038  17.415  0.00  0.00    +0.000 A 
ATOM     10  C   UNL     1       1.237   3.264  18.649  0.00  0.00    +0.000 A 
ATOM     11  O   UNL     1       0.560   2.250  18.500  0.00  0.00    +0.000 OA
ATOM     12  N   UNL     1       1.472   3.837  19.893  0.00  0.00    +0.000 N 
ATOM     13  C   UNL     1       2.021   5.088  19.888  0.00  0.00    +0.000 A 
ATOM     14  O   UNL     1       1.716   6.006  20.822  0.00  0.00    +0.000 OA
ATOM     15  H   UNL     1       0.996   3.469  20.701  0.00  0.00    +0.000 HD
BRANCH   8  16
ATOM     16  C   UNL     1       4.110   3.784  17.991  0.00  0.00    +0.000 C 
ATOM     17  F   UNL     1       4.541   3.785  19.280  0.00  0.00    +0.000 F 
ATOM     18  F   UNL     1       3.853   2.478  17.687  0.00  0.00    +0.000 F 
ATOM     19  F   UNL     1       5.170   4.143  17.223  0.00  0.00    +0.000 F 
ENDBRANCH   8  16
ENDBRANCH   2   5
BRANCH   1  24
ATOM     20  C   UNL     1      -1.305  12.055  21.225  0.00  0.00    +0.000 A 
ATOM     21  C   UNL     1      -0.637  13.208  20.813  0.00  0.00    +0.000 A 
ATOM     22  C   UNL     1       0.556  13.104  20.098  0.00  0.00    +0.000 A 
ATOM     23  C   UNL     1       1.088  11.849  19.791  0.00  0.00    +0.000 A 
ATOM     24  C   UNL     1       0.448  10.673  20.197  0.00  0.00    +0.000 A 
ATOM     25  C   UNL     1      -0.753  10.786  20.922  0.00  0.00    +0.000 A 
BRANCH  20  31
ATOM     26  C   UNL     1      -4.315  12.932  20.379  0.00  0.00    +0.000 C 
ATOM     27  C   UNL     1      -3.751  12.658  21.721  0.00  0.00    +0.000 A 
ATOM     28  N   UNL     1      -4.437  12.715  22.845  0.00  0.00    +0.000 NA
ATOM     29  N   UNL     1      -3.647  12.155  23.808  0.00  0.00    +0.000 NA
ATOM     30  N   UNL     1      -2.498  11.741  23.300  0.00  0.00    +0.000 NA
ATOM     31  N   UNL     1      -2.487  12.148  22.007  0.00  0.00    +0.000 N 
ENDBRANCH  20  31
ENDBRANCH   1  24
TORSDOF 4
ENDMDL
MODEL 9
REMARK VINA RESULT:      -8.7      2.574      3.687
REMARK  Name = 
REMARK  5 active torsions:
REMARK  status: ('A' for Active; 'I' for Inactive)
REMARK    1  A    between atoms: C_1  and  C_2
REMARK    2  A    between atoms: N_6  and  C_7
REMARK    3  A    between atoms: C_11  and  N_12
REMARK    4  A    between atoms: C_13  and  C_15
REMARK    5  A    between atoms: C_18  and  C_19
REMARK                            x       y       z     vdW  Elec       q    Type
REMARK                         _______ _______ _______ _____ _____    ______ ____
ROOT
ATOM      1  N   UNL     1       1.021   9.082  19.421  0.00  0.00    +0.000 N 
ATOM      2  C   UNL     1       1.850   8.537  18.444  0.00  0.00    +0.000 C 
ATOM      3  O   UNL     1       2.217   9.109  17.429  0.00  0.00    +0.000 OA
ATOM      4  H   UNL     1       0.850   8.492  20.227  0.00  0.00    +0.000 HD
ENDROOT
BRANCH   2   5
ATOM      5  C   UNL     1       2.261   7.158  18.704  0.00  0.00    +0.000 A 
ATOM      6  C   UNL     1       2.132   6.018  17.907  0.00  0.00    +0.000 A 
ATOM      7  C   UNL     1       2.530   4.942  18.713  0.00  0.00    +0.000 A 
ATOM      8  C   UNL     1       2.398   3.502  18.700  0.00  0.00    +0.000 A 
ATOM      9  C   UNL     1       1.469   3.100  19.601  0.00  0.00    +0.000 A 
ATOM     10  C   UNL     1       1.899   3.544  21.016  0.00  0.00    +0.000 A 
ATOM     11  O   UNL     1       1.535   2.903  21.998  0.00  0.00    +0.000 OA
ATOM     12  N   UNL     1       2.592   4.744  21.115  0.00  0.00    +0.000 N 
ATOM     13  C   UNL     1       2.711   5.470  19.963  0.00  0.00    +0.000 A 
ATOM     14  O   UNL     1       2.713   6.814  19.963  0.00  0.00    +0.000 OA
ATOM     15  H   UNL     1       2.723   5.163  22.022  0.00  0.00    +0.000 HD
BRANCH   8  16
ATOM     16  C   UNL     1       3.753   2.786  18.792  0.00  0.00    +0.000 C 
ATOM     17  F   UNL     1       4.792   3.600  19.118  0.00  0.00    +0.000 F 
ATOM     18  F   UNL     1       3.750   1.796  19.732  0.00  0.00    +0.000 F 
ATOM     19  F   UNL     1       4.081   2.184  17.620  0.00  0.00    +0.000 F 
ENDBRANCH   8  16
ENDBRANCH   2   5
BRANCH   1  24
ATOM     20  C   UNL     1       0.527  12.727  20.099  0.00  0.00    +0.000 A 
ATOM     21  C   UNL     1      -0.696  12.961  19.470  0.00  0.00    +0.000 A 
ATOM     22  C   UNL     1      -1.359  11.919  18.824  0.00  0.00    +0.000 A 
ATOM     23  C   UNL     1      -0.805  10.635  18.803  0.00  0.00    +0.000 A 
ATOM     24  C   UNL     1       0.424  10.368  19.416  0.00  0.00    +0.000 A 
ATOM     25  C   UNL     1       1.089  11.427  20.062  0.00  0.00    +0.000 A 
BRANCH  20  31
ATOM     26  C   UNL     1       2.478  14.961  18.778  0.00  0.00    +0.000 C 
ATOM     27  C   UNL     1       2.198  14.673  20.203  0.00  0.00    +0.000 A 
ATOM     28  N   UNL     1       2.719  15.338  21.216  0.00  0.00    +0.000 NA
ATOM     29  N   UNL     1       2.028  14.950  22.328  0.00  0.00    +0.000 NA
ATOM     30  N   UNL     1       1.085  14.075  22.022  0.00  0.00    +0.000 NA
ATOM     31  N   UNL     1       1.242  13.794  20.705  0.00  0.00    +0.000 N 
ENDBRANCH  20  31
ENDBRANCH   1  24
TORSDOF 4
ENDMDL
