MODEL 1
REMARK VINA RESULT:      -8.8      0.000      0.000
REMARK  Name = 
REMARK  7 active torsions:
REMARK  status: ('A' for Active; 'I' for Inactive)
REMARK    1  A    between atoms: C_1  and  C_2
REMARK    2  A    between atoms: C_2  and  S_3
REMARK    3  A    between atoms: C_2  and  C_10
REMARK    4  A    between atoms: S_3  and  C_4
REMARK    5  A    between atoms: N_8  and  C_9
REMARK    6  A    between atoms: C_14  and  N_15
REMARK    7  A    between atoms: C_16  and  C_18
REMARK                            x       y       z     vdW  Elec       q    Type
REMARK                         _______ _______ _______ _____ _____    ______ ____
ROOT
ATOM      1  C   UNL     1       4.514   5.090  17.254  0.00  0.00    +0.000 A 
ATOM      2  C   UNL     1       3.791   3.902  17.043  0.00  0.00    +0.000 A 
ATOM      3  C   UNL     1       2.501   3.754  17.536  0.00  0.00    +0.000 A 
ATOM      4  C   UNL     1       1.921   4.775  18.282  0.00  0.00    +0.000 A 
ATOM      5  C   UNL     1       2.623   5.950  18.567  0.00  0.00    +0.000 A 
ATOM      6  C   UNL     1       3.905   6.123  18.008  0.00  0.00    +0.000 A 
ENDROOT
BRANCH   5   7
ATOM      7  N   UNL     1       2.081   6.959  19.414  0.00  0.00    +0.000 N 
ATOM      8  C   UNL     1       1.594   8.180  18.958  0.00  0.00    +0.000 C 
ATOM      9  O   UNL     1       1.533   8.501  17.770  0.00  0.00    +0.000 OA
ATOM     10  H   UNL     1       1.849   6.691  20.361  0.00  0.00    +0.000 HD
BRANCH   8  11
ATOM     11  C   UNL     1       1.222   9.210  20.038  0.00  0.00    +0.000 C 
ATOM     12  C   UNL     1       0.878   8.656  21.441  0.00  0.00    +0.000 C 
ATOM     13  C   UNL     1      -0.251   9.078  22.068  0.00  0.00    +0.000 C 
ATOM     14  C   UNL     1      -0.536  10.525  21.871  0.00  0.00    +0.000 A 
ATOM     15  C   UNL     1      -0.880  11.369  22.924  0.00  0.00    +0.000 A 
ATOM     16  C   UNL     1      -0.866  12.752  22.723  0.00  0.00    +0.000 A 
ATOM     17  C   UNL     1      -0.520  13.286  21.476  0.00  0.00    +0.000 A 
ATOM     18  C   UNL     1      -0.263  12.441  20.399  0.00  0.00    +0.000 A 
ATOM     19  C   UNL     1      -0.290  11.063  20.594  0.00  0.00    +0.000 A 
ATOM     20  C   UNL     1       0.061  10.082  19.507  0.00  0.00    +0.000 C 
ENDBRANCH   8  11
ENDBRANCH   5   7
BRANCH   1  22
ATOM     21  C   UNL     1       7.030   5.083  17.799  0.00  0.00    +0.000 C 
ATOM     22  C   UNL     1       5.947   5.136  16.722  0.00  0.00    +0.000 C 
BRANCH  22  23
ATOM     23  S   UNL     1       6.187   3.774  15.515  0.00  0.00    +0.000 S 
BRANCH  23  24
ATOM     24  C   UNL     1       7.021   4.568  14.227  0.00  0.00    +0.000 A 
ATOM     25  N   UNL     1       7.935   5.509  14.320  0.00  0.00    +0.000 NA
ATOM     26  N   UNL     1       8.314   5.846  13.035  0.00  0.00    +0.000 NA
ATOM     27  C   UNL     1       7.621   5.099  12.204  0.00  0.00    +0.000 A 
ATOM     28  N   UNL     1       6.800   4.275  12.913  0.00  0.00    +0.000 N 
ATOM     29  C   UNL     1       5.897   3.302  12.360  0.00  0.00    +0.000 C 
ENDBRANCH  23  24
ENDBRANCH  22  23
ENDBRANCH   1  22
TORSDOF 5
ENDMDL
MODEL 2
REMARK VINA RESULT:      -8.4      2.587      4.228
REMARK  Name = 
REMARK  7 active torsions:
REMARK  status: ('A' for Active; 'I' for Inactive)
REMARK    1  A    between atoms: C_1  and  C_2
REMARK    2  A    between atoms: C_2  and  S_3
REMARK    3  A    between atoms: C_2  and  C_10
REMARK    4  A    between atoms: S_3  and  C_4
REMARK    5  A    between atoms: N_8  and  C_9
REMARK    6  A    between atoms: C_14  and  N_15
REMARK    7  A    between atoms: C_16  and  C_18
REMARK                            x       y       z     vdW  Elec       q    Type
REMARK                         _______ _______ _______ _____ _____    ______ ____
ROOT
ATOM      1  C   UNL     1       2.511   6.781  19.451  0.00  0.00    +0.000 A 
ATOM      2  C   UNL     1       2.808   7.041  18.100  0.00  0.00    +0.000 A 
ATOM      3  C   UNL     1       2.495   8.264  17.522  0.00  0.00    +0.000 A 
ATOM      4  C   UNL     1       1.844   9.240  18.271  0.00  0.00    +0.000 A 
ATOM      5  C   UNL     1       1.476   9.005  19.600  0.00  0.00    +0.000 A 
ATOM      6  C   UNL     1       1.856   7.789  20.201  0.00  0.00    +0.000 A 
ENDROOT
BRANCH   5   7
ATOM      7  N   UNL     1       0.720   9.955  20.345  0.00  0.00    +0.000 N 
ATOM      8  C   UNL     1      -0.525  10.438  19.955  0.00  0.00    +0.000 C 
ATOM      9  O   UNL     1      -1.131  10.060  18.951  0.00  0.00    +0.000 OA
ATOM     10  H   UNL     1       1.007  10.128  21.299  0.00  0.00    +0.000 HD
BRANCH   8  11
ATOM     11  C   UNL     1      -1.099  11.594  20.792  0.00  0.00    +0.000 C 
ATOM     12  C   UNL     1      -0.282  12.908  20.820  0.00  0.00    +0.000 C 
ATOM     13  C   UNL     1      -0.014  13.502  22.011  0.00  0.00    +0.000 C 
ATOM     14  C   UNL     1      -1.147  13.440  22.976  0.00  0.00    +0.000 A 
ATOM     15  C   UNL     1      -1.576  14.551  23.696  0.00  0.00    +0.000 A 
ATOM     16  C   UNL     1      -2.801  14.496  24.369  0.00  0.00    +0.000 A 
ATOM     17  C   UNL     1      -3.582  13.335  24.329  0.00  0.00    +0.000 A 
ATOM     18  C   UNL     1      -3.111  12.195  23.684  0.00  0.00    +0.000 A 
ATOM     19  C   UNL     1      -1.886  12.243  23.025  0.00  0.00    +0.000 A 
ATOM     20  C   UNL     1      -1.345  11.085  22.230  0.00  0.00    +0.000 C 
ENDBRANCH   8  11
ENDBRANCH   5   7
BRANCH   1  22
ATOM     21  C   UNL     1       1.693   4.688  20.705  0.00  0.00    +0.000 C 
ATOM     22  C   UNL     1       2.843   5.386  19.980  0.00  0.00    +0.000 C 
BRANCH  22  23
ATOM     23  S   UNL     1       3.446   4.342  18.596  0.00  0.00    +0.000 S 
BRANCH  23  24
ATOM     24  C   UNL     1       5.148   4.635  18.629  0.00  0.00    +0.000 A 
ATOM     25  N   UNL     1       5.879   5.013  19.655  0.00  0.00    +0.000 NA
ATOM     26  N   UNL     1       7.183   5.128  19.213  0.00  0.00    +0.000 NA
ATOM     27  C   UNL     1       7.203   4.815  17.936  0.00  0.00    +0.000 A 
ATOM     28  N   UNL     1       5.943   4.491  17.530  0.00  0.00    +0.000 N 
ATOM     29  C   UNL     1       5.561   4.081  16.205  0.00  0.00    +0.000 C 
ENDBRANCH  23  24
ENDBRANCH  22  23
ENDBRANCH   1  22
TORSDOF 5
ENDMDL
MODEL 3
REMARK VINA RESULT:      -8.3      6.191      8.336
REMARK  Name = 
REMARK  7 active torsions:
REMARK  status: ('A' for Active; 'I' for Inactive)
REMARK    1  A    between atoms: C_1  and  C_2
REMARK    2  A    between atoms: C_2  and  S_3
REMARK    3  A    between atoms: C_2  and  C_10
REMARK    4  A    between atoms: S_3  and  C_4
REMARK    5  A    between atoms: N_8  and  C_9
REMARK    6  A    between atoms: C_14  and  N_15
REMARK    7  A    between atoms: C_16  and  C_18
REMARK                            x       y       z     vdW  Elec       q    Type
REMARK                         _______ _______ _______ _____ _____    ______ ____
ROOT
ATOM      1  C   UNL     1       6.264   6.187  17.419  0.00  0.00    +0.000 A 
ATOM      2  C   UNL     1       6.874   5.408  18.419  0.00  0.00    +0.000 A 
ATOM      3  C   UNL     1       7.922   5.911  19.177  0.00  0.00    +0.000 A 
ATOM      4  C   UNL     1       8.410   7.190  18.926  0.00  0.00    +0.000 A 
ATOM      5  C   UNL     1       7.874   7.979  17.904  0.00  0.00    +0.000 A 
ATOM      6  C   UNL     1       6.766   7.490  17.183  0.00  0.00    +0.000 A 
ENDROOT
BRANCH   5   7
ATOM      7  N   UNL     1       8.430   9.248  17.570  0.00  0.00    +0.000 N 
ATOM      8  C   UNL     1       8.976  10.128  18.499  0.00  0.00    +0.000 C 
ATOM      9  O   UNL     1       9.084   9.885  19.702  0.00  0.00    +0.000 OA
ATOM     10  H   UNL     1       8.622   9.425  16.593  0.00  0.00    +0.000 HD
BRANCH   8  11
ATOM     11  C   UNL     1       9.354  11.523  17.973  0.00  0.00    +0.000 C 
ATOM     12  C   UNL     1      10.818  11.721  17.513  0.00  0.00    +0.000 C 
ATOM     13  C   UNL     1      11.519  12.796  17.958  0.00  0.00    +0.000 C 
ATOM     14  C   UNL     1      10.708  14.041  18.044  0.00  0.00    +0.000 A 
ATOM     15  C   UNL     1      11.158  15.261  17.545  0.00  0.00    +0.000 A 
ATOM     16  C   UNL     1      10.252  16.318  17.410  0.00  0.00    +0.000 A 
ATOM     17  C   UNL     1       8.912  16.158  17.780  0.00  0.00    +0.000 A 
ATOM     18  C   UNL     1       8.483  14.967  18.362  0.00  0.00    +0.000 A 
ATOM     19  C   UNL     1       9.386  13.919  18.510  0.00  0.00    +0.000 A 
ATOM     20  C   UNL     1       8.985  12.571  19.048  0.00  0.00    +0.000 C 
ENDBRANCH   8  11
ENDBRANCH   5   7
BRANCH   1  22
ATOM     21  C   UNL     1       5.380   5.543  15.089  0.00  0.00    +0.000 C 
ATOM     22  C   UNL     1       5.155   5.526  16.601  0.00  0.00    +0.000 C 
BRANCH  22  23
ATOM     23  S   UNL     1       4.918   3.802  17.186  0.00  0.00    +0.000 S 
BRANCH  23  24
ATOM     24  C   UNL     1       3.256   3.798  17.656  0.00  0.00    +0.000 A 
ATOM     25  N   UNL     1       2.238   3.276  17.008  0.00  0.00    +0.000 NA
ATOM     26  N   UNL     1       1.103   3.519  17.757  0.00  0.00    +0.000 NA
ATOM     27  C   UNL     1       1.467   4.178  18.834  0.00  0.00    +0.000 A 
ATOM     28  N   UNL     1       2.816   4.369  18.814  0.00  0.00    +0.000 N 
ATOM     29  C   UNL     1       3.590   5.038  19.825  0.00  0.00    +0.000 C 
ENDBRANCH  23  24
ENDBRANCH  22  23
ENDBRANCH   1  22
TORSDOF 5
ENDMDL
MODEL 4
REMARK VINA RESULT:      -8.3      4.954     10.511
REMARK  Name = 
REMARK  7 active torsions:
REMARK  status: ('A' for Active; 'I' for Inactive)
REMARK    1  A    between atoms: C_1  and  C_2
REMARK    2  A    between atoms: C_2  and  S_3
REMARK    3  A    between atoms: C_2  and  C_10
REMARK    4  A    between atoms: S_3  and  C_4
REMARK    5  A    between atoms: N_8  and  C_9
REMARK    6  A    between atoms: C_14  and  N_15
REMARK    7  A    between atoms: C_16  and  C_18
REMARK                            x       y       z     vdW  Elec       q    Type
REMARK                         _______ _______ _______ _____ _____    ______ ____
ROOT
ATOM      1  C   UNL     1      -1.509  11.149  17.739  0.00  0.00    +0.000 A 
ATOM      2  C   UNL     1      -1.098  12.295  18.443  0.00  0.00    +0.000 A 
ATOM      3  C   UNL     1       0.052  12.282  19.220  0.00  0.00    +0.000 A 
ATOM      4  C   UNL     1       0.795  11.112  19.343  0.00  0.00    +0.000 A 
ATOM      5  C   UNL     1       0.393   9.932  18.709  0.00  0.00    +0.000 A 
ATOM      6  C   UNL     1      -0.736   9.969  17.867  0.00  0.00    +0.000 A 
ENDROOT
BRANCH   5   7
ATOM      7  N   UNL     1       1.087   8.704  18.907  0.00  0.00    +0.000 N 
ATOM      8  C   UNL     1       2.135   8.262  18.105  0.00  0.00    +0.000 C 
ATOM      9  O   UNL     1       2.610   8.908  17.169  0.00  0.00    +0.000 OA
ATOM     10  H   UNL     1       0.948   8.232  19.791  0.00  0.00    +0.000 HD
BRANCH   8  11
ATOM     11  C   UNL     1       2.632   6.830  18.362  0.00  0.00    +0.000 C 
ATOM     12  C   UNL     1       4.047   6.478  17.844  0.00  0.00    +0.000 C 
ATOM     13  C   UNL     1       4.230   5.343  17.121  0.00  0.00    +0.000 C 
ATOM     14  C   UNL     1       3.430   4.188  17.612  0.00  0.00    +0.000 A 
ATOM     15  C   UNL     1       3.981   2.922  17.796  0.00  0.00    +0.000 A 
ATOM     16  C   UNL     1       3.260   1.961  18.511  0.00  0.00    +0.000 A 
ATOM     17  C   UNL     1       1.994   2.262  19.027  0.00  0.00    +0.000 A 
ATOM     18  C   UNL     1       1.405   3.497  18.766  0.00  0.00    +0.000 A 
ATOM     19  C   UNL     1       2.117   4.450  18.044  0.00  0.00    +0.000 A 
ATOM     20  C   UNL     1       1.591   5.839  17.793  0.00  0.00    +0.000 C 
ENDBRANCH   8  11
ENDBRANCH   5   7
BRANCH   1  22
ATOM     21  C   UNL     1      -2.743  10.726  15.520  0.00  0.00    +0.000 C 
ATOM     22  C   UNL     1      -2.818  11.245  16.956  0.00  0.00    +0.000 C 
BRANCH  22  23
ATOM     23  S   UNL     1      -4.140  10.367  17.878  0.00  0.00    +0.000 S 
BRANCH  23  24
ATOM     24  C   UNL     1      -5.469  11.463  17.748  0.00  0.00    +0.000 A 
ATOM     25  N   UNL     1      -5.576  12.507  16.955  0.00  0.00    +0.000 NA
ATOM     26  N   UNL     1      -6.805  13.086  17.199  0.00  0.00    +0.000 NA
ATOM     27  C   UNL     1      -7.406  12.377  18.129  0.00  0.00    +0.000 A 
ATOM     28  N   UNL     1      -6.602  11.341  18.497  0.00  0.00    +0.000 N 
ATOM     29  C   UNL     1      -6.915  10.336  19.478  0.00  0.00    +0.000 C 
ENDBRANCH  23  24
ENDBRANCH  22  23
ENDBRANCH   1  22
TORSDOF 5
ENDMDL
MODEL 5
REMARK VINA RESULT:      -8.2      1.138      1.729
REMARK  Name = 
REMARK  7 active torsions:
REMARK  status: ('A' for Active; 'I' for Inactive)
REMARK    1  A    between atoms: C_1  and  C_2
REMARK    2  A    between atoms: C_2  and  S_3
REMARK    3  A    between atoms: C_2  and  C_10
REMARK    4  A    between atoms: S_3  and  C_4
REMARK    5  A    between atoms: N_8  and  C_9
REMARK    6  A    between atoms: C_14  and  N_15
REMARK    7  A    between atoms: C_16  and  C_18
REMARK                            x       y       z     vdW  Elec       q    Type
REMARK                         _______ _______ _______ _____ _____    ______ ____
ROOT
ATOM      1  C   UNL     1       4.867   6.114  17.090  0.00  0.00    +0.000 A 
ATOM      2  C   UNL     1       4.282   4.835  17.129  0.00  0.00    +0.000 A 
ATOM      3  C   UNL     1       2.986   4.656  17.593  0.00  0.00    +0.000 A 
ATOM      4  C   UNL     1       2.261   5.746  18.066  0.00  0.00    +0.000 A 
ATOM      5  C   UNL     1       2.822   7.027  18.102  0.00  0.00    +0.000 A 
ATOM      6  C   UNL     1       4.111   7.214  17.567  0.00  0.00    +0.000 A 
ENDROOT
BRANCH   5   7
ATOM      7  N   UNL     1       2.128   8.130  18.676  0.00  0.00    +0.000 N 
ATOM      8  C   UNL     1       1.582   8.126  19.956  0.00  0.00    +0.000 C 
ATOM      9  O   UNL     1       1.682   7.188  20.749  0.00  0.00    +0.000 OA
ATOM     10  H   UNL     1       2.218   9.024  18.212  0.00  0.00    +0.000 HD
BRANCH   8  11
ATOM     11  C   UNL     1       0.712   9.339  20.328  0.00  0.00    +0.000 C 
ATOM     12  C   UNL     1       1.011  10.665  19.588  0.00  0.00    +0.000 C 
ATOM     13  C   UNL     1       1.155  11.811  20.303  0.00  0.00    +0.000 C 
ATOM     14  C   UNL     1       0.207  11.923  21.446  0.00  0.00    +0.000 A 
ATOM     15  C   UNL     1      -0.523  13.081  21.700  0.00  0.00    +0.000 A 
ATOM     16  C   UNL     1      -1.584  13.033  22.609  0.00  0.00    +0.000 A 
ATOM     17  C   UNL     1      -1.904  11.838  23.264  0.00  0.00    +0.000 A 
ATOM     18  C   UNL     1      -1.119  10.703  23.078  0.00  0.00    +0.000 A 
ATOM     19  C   UNL     1      -0.054  10.753  22.183  0.00  0.00    +0.000 A 
ATOM     20  C   UNL     1       0.791   9.550  21.857  0.00  0.00    +0.000 C 
ENDBRANCH   8  11
ENDBRANCH   5   7
BRANCH   1  22
ATOM     21  C   UNL     1       7.302   6.722  17.663  0.00  0.00    +0.000 C 
ATOM     22  C   UNL     1       6.317   6.202  16.616  0.00  0.00    +0.000 C 
BRANCH  22  23
ATOM     23  S   UNL     1       6.854   4.556  16.005  0.00  0.00    +0.000 S 
BRANCH  23  24
ATOM     24  C   UNL     1       7.308   4.898  14.374  0.00  0.00    +0.000 A 
ATOM     25  N   UNL     1       8.279   5.681  13.957  0.00  0.00    +0.000 NA
ATOM     26  N   UNL     1       8.264   5.656  12.576  0.00  0.00    +0.000 NA
ATOM     27  C   UNL     1       7.289   4.860  12.199  0.00  0.00    +0.000 A 
ATOM     28  N   UNL     1       6.665   4.356  13.300  0.00  0.00    +0.000 N 
ATOM     29  C   UNL     1       5.558   3.437  13.298  0.00  0.00    +0.000 C 
ENDBRANCH  23  24
ENDBRANCH  22  23
ENDBRANCH   1  22
TORSDOF 5
ENDMDL
MODEL 6
REMARK VINA RESULT:      -8.2      1.049      1.187
REMARK  Name = 
REMARK  7 active torsions:
REMARK  status: ('A' for Active; 'I' for Inactive)
REMARK    1  A    between atoms: C_1  and  C_2
REMARK    2  A    between atoms: C_2  and  S_3
REMARK    3  A    between atoms: C_2  and  C_10
REMARK    4  A    between atoms: S_3  and  C_4
REMARK    5  A    between atoms: N_8  and  C_9
REMARK    6  A    between atoms: C_14  and  N_15
REMARK    7  A    between atoms: C_16  and  C_18
REMARK                            x       y       z     vdW  Elec       q    Type
REMARK                         _______ _______ _______ _____ _____    ______ ____
ROOT
ATOM      1  C   UNL     1       4.952   4.980  18.063  0.00  0.00    +0.000 A 
ATOM      2  C   UNL     1       4.740   3.766  18.742  0.00  0.00    +0.000 A 
ATOM      3  C   UNL     1       3.740   3.647  19.698  0.00  0.00    +0.000 A 
ATOM      4  C   UNL     1       2.957   4.750  20.025  0.00  0.00    +0.000 A 
ATOM      5  C   UNL     1       3.170   5.992  19.418  0.00  0.00    +0.000 A 
ATOM      6  C   UNL     1       4.139   6.089  18.401  0.00  0.00    +0.000 A 
ENDROOT
BRANCH   5   7
ATOM      7  N   UNL     1       2.444   7.152  19.816  0.00  0.00    +0.000 N 
ATOM      8  C   UNL     1       2.011   8.139  18.936  0.00  0.00    +0.000 C 
ATOM      9  O   UNL     1       2.164   8.093  17.714  0.00  0.00    +0.000 OA
ATOM     10  H   UNL     1       2.048   7.152  20.746  0.00  0.00    +0.000 HD
BRANCH   8  11
ATOM     11  C   UNL     1       1.409   9.402  19.574  0.00  0.00    +0.000 C 
ATOM     12  C   UNL     1       0.914   9.278  21.036  0.00  0.00    +0.000 C 
ATOM     13  C   UNL     1      -0.322   9.734  21.364  0.00  0.00    +0.000 C 
ATOM     14  C   UNL     1      -0.691  11.002  20.676  0.00  0.00    +0.000 A 
ATOM     15  C   UNL     1      -1.248  12.084  21.353  0.00  0.00    +0.000 A 
ATOM     16  C   UNL     1      -1.315  13.326  20.715  0.00  0.00    +0.000 A 
ATOM     17  C   UNL     1      -0.840  13.480  19.408  0.00  0.00    +0.000 A 
ATOM     18  C   UNL     1      -0.366  12.379  18.700  0.00  0.00    +0.000 A 
ATOM     19  C   UNL     1      -0.310  11.138  19.328  0.00  0.00    +0.000 A 
ATOM     20  C   UNL     1       0.269   9.917  18.666  0.00  0.00    +0.000 C 
ENDBRANCH   8  11
ENDBRANCH   5   7
BRANCH   1  22
ATOM     21  C   UNL     1       7.466   4.614  17.648  0.00  0.00    +0.000 C 
ATOM     22  C   UNL     1       6.113   5.027  17.070  0.00  0.00    +0.000 C 
BRANCH  22  23
ATOM     23  S   UNL     1       5.704   3.990  15.612  0.00  0.00    +0.000 S 
BRANCH  23  24
ATOM     24  C   UNL     1       6.759   4.624  14.401  0.00  0.00    +0.000 A 
ATOM     25  N   UNL     1       7.706   5.524  14.551  0.00  0.00    +0.000 NA
ATOM     26  N   UNL     1       8.284   5.726  13.313  0.00  0.00    +0.000 NA
ATOM     27  C   UNL     1       7.673   4.943  12.452  0.00  0.00    +0.000 A 
ATOM     28  N   UNL     1       6.710   4.226  13.097  0.00  0.00    +0.000 N 
ATOM     29  C   UNL     1       5.837   3.252  12.498  0.00  0.00    +0.000 C 
ENDBRANCH  23  24
ENDBRANCH  22  23
ENDBRANCH   1  22
TORSDOF 5
ENDMDL
MODEL 7
REMARK VINA RESULT:      -8.2      4.962      8.226
REMARK  Name = 
REMARK  7 active torsions:
REMARK  status: ('A' for Active; 'I' for Inactive)
REMARK    1  A    between atoms: C_1  and  C_2
REMARK    2  A    between atoms: C_2  and  S_3
REMARK    3  A    between atoms: C_2  and  C_10
REMARK    4  A    between atoms: S_3  and  C_4
REMARK    5  A    between atoms: N_8  and  C_9
REMARK    6  A    between atoms: C_14  and  N_15
REMARK    7  A    between atoms: C_16  and  C_18
REMARK                            x       y       z     vdW  Elec       q    Type
REMARK                         _______ _______ _______ _____ _____    ______ ____
ROOT
ATOM      1  C   UNL     1       4.765   5.253  17.477  0.00  0.00    +0.000 A 
ATOM      2  C   UNL     1       5.224   4.406  16.451  0.00  0.00    +0.000 A 
ATOM      3  C   UNL     1       6.551   4.433  16.042  0.00  0.00    +0.000 A 
ATOM      4  C   UNL     1       7.438   5.334  16.623  0.00  0.00    +0.000 A 
ATOM      5  C   UNL     1       7.014   6.235  17.605  0.00  0.00    +0.000 A 
ATOM      6  C   UNL     1       5.685   6.157  18.063  0.00  0.00    +0.000 A 
ENDROOT
BRANCH   5   7
ATOM      7  N   UNL     1       7.887   7.229  18.134  0.00  0.00    +0.000 N 
ATOM      8  C   UNL     1       7.820   8.580  17.805  0.00  0.00    +0.000 C 
ATOM      9  O   UNL     1       6.968   9.070  17.061  0.00  0.00    +0.000 OA
ATOM     10  H   UNL     1       8.443   6.974  18.939  0.00  0.00    +0.000 HD
BRANCH   8  11
ATOM     11  C   UNL     1       8.961   9.465  18.332  0.00  0.00    +0.000 C 
ATOM     12  C   UNL     1       9.111   9.570  19.868  0.00  0.00    +0.000 C 
ATOM     13  C   UNL     1       9.236  10.793  20.445  0.00  0.00    +0.000 C 
ATOM     14  C   UNL     1      10.077  11.738  19.661  0.00  0.00    +0.000 A 
ATOM     15  C   UNL     1      11.080  12.508  20.247  0.00  0.00    +0.000 A 
ATOM     16  C   UNL     1      12.005  13.161  19.426  0.00  0.00    +0.000 A 
ATOM     17  C   UNL     1      11.920  13.053  18.033  0.00  0.00    +0.000 A 
ATOM     18  C   UNL     1      10.866  12.358  17.447  0.00  0.00    +0.000 A 
ATOM     19  C   UNL     1       9.936  11.718  18.261  0.00  0.00    +0.000 A 
ATOM     20  C   UNL     1       8.818  10.874  17.710  0.00  0.00    +0.000 C 
ENDBRANCH   8  11
ENDBRANCH   5   7
BRANCH   1  22
ATOM     21  C   UNL     1       2.703   3.776  17.916  0.00  0.00    +0.000 C 
ATOM     22  C   UNL     1       3.277   5.190  17.817  0.00  0.00    +0.000 C 
BRANCH  22  23
ATOM     23  S   UNL     1       2.974   6.105  19.379  0.00  0.00    +0.000 S 
BRANCH  23  24
ATOM     24  C   UNL     1       2.395   7.629  18.807  0.00  0.00    +0.000 A 
ATOM     25  N   UNL     1       2.587   8.168  17.622  0.00  0.00    +0.000 NA
ATOM     26  N   UNL     1       1.947   9.392  17.618  0.00  0.00    +0.000 NA
ATOM     27  C   UNL     1       1.386   9.556  18.795  0.00  0.00    +0.000 A 
ATOM     28  N   UNL     1       1.638   8.466  19.572  0.00  0.00    +0.000 N 
ATOM     29  C   UNL     1       1.181   8.266  20.922  0.00  0.00    +0.000 C 
ENDBRANCH  23  24
ENDBRANCH  22  23
ENDBRANCH   1  22
TORSDOF 5
ENDMDL
MODEL 8
REMARK VINA RESULT:      -8.1      2.144      3.177
REMARK  Name = 
REMARK  7 active torsions:
REMARK  status: ('A' for Active; 'I' for Inactive)
REMARK    1  A    between atoms: C_1  and  C_2
REMARK    2  A    between atoms: C_2  and  S_3
REMARK    3  A    between atoms: C_2  and  C_10
REMARK    4  A    between atoms: S_3  and  C_4
REMARK    5  A    between atoms: N_8  and  C_9
REMARK    6  A    between atoms: C_14  and  N_15
REMARK    7  A    between atoms: C_16  and  C_18
REMARK                            x       y       z     vdW  Elec       q    Type
REMARK                         _______ _______ _______ _____ _____    ______ ____
ROOT
ATOM      1  C   UNL     1       4.534   4.286  16.516  0.00  0.00    +0.000 A 
ATOM      2  C   UNL     1       3.707   3.165  16.711  0.00  0.00    +0.000 A 
ATOM      3  C   UNL     1       2.511   3.272  17.409  0.00  0.00    +0.000 A 
ATOM      4  C   UNL     1       2.135   4.493  17.960  0.00  0.00    +0.000 A 
ATOM      5  C   UNL     1       2.953   5.621  17.842  0.00  0.00    +0.000 A 
ATOM      6  C   UNL     1       4.132   5.523  17.076  0.00  0.00    +0.000 A 
ENDROOT
BRANCH   5   7
ATOM      7  N   UNL     1       2.630   6.849  18.488  0.00  0.00    +0.000 N 
ATOM      8  C   UNL     1       2.236   6.950  19.819  0.00  0.00    +0.000 C 
ATOM      9  O   UNL     1       2.173   5.996  20.596  0.00  0.00    +0.000 OA
ATOM     10  H   UNL     1       2.899   7.703  18.017  0.00  0.00    +0.000 HD
BRANCH   8  11
ATOM     11  C   UNL     1       1.751   8.334  20.281  0.00  0.00    +0.000 C 
ATOM     12  C   UNL     1       0.749   8.364  21.460  0.00  0.00    +0.000 C 
ATOM     13  C   UNL     1      -0.383   9.107  21.357  0.00  0.00    +0.000 C 
ATOM     14  C   UNL     1      -0.178  10.410  20.667  0.00  0.00    +0.000 A 
ATOM     15  C   UNL     1      -0.678  11.609  21.170  0.00  0.00    +0.000 A 
ATOM     16  C   UNL     1      -0.224  12.817  20.631  0.00  0.00    +0.000 A 
ATOM     17  C   UNL     1       0.712  12.823  19.590  0.00  0.00    +0.000 A 
ATOM     18  C   UNL     1       1.143  11.625  19.027  0.00  0.00    +0.000 A 
ATOM     19  C   UNL     1       0.683  10.422  19.553  0.00  0.00    +0.000 A 
ATOM     20  C   UNL     1       1.165   9.083  19.062  0.00  0.00    +0.000 C 
ENDBRANCH   8  11
ENDBRANCH   5   7
BRANCH   1  22
ATOM     21  C   UNL     1       5.712   3.568  14.343  0.00  0.00    +0.000 C 
ATOM     22  C   UNL     1       5.856   4.057  15.784  0.00  0.00    +0.000 C 
BRANCH  22  23
ATOM     23  S   UNL     1       6.850   5.599  15.833  0.00  0.00    +0.000 S 
BRANCH  23  24
ATOM     24  C   UNL     1       7.414   5.622  17.465  0.00  0.00    +0.000 A 
ATOM     25  N   UNL     1       7.590   4.597  18.270  0.00  0.00    +0.000 NA
ATOM     26  N   UNL     1       8.047   5.092  19.475  0.00  0.00    +0.000 NA
ATOM     27  C   UNL     1       8.136   6.399  19.365  0.00  0.00    +0.000 A 
ATOM     28  N   UNL     1       7.753   6.774  18.112  0.00  0.00    +0.000 N 
ATOM     29  C   UNL     1       7.728   8.119  17.604  0.00  0.00    +0.000 C 
ENDBRANCH  23  24
ENDBRANCH  22  23
ENDBRANCH   1  22
TORSDOF 5
ENDMDL
MODEL 9
REMARK VINA RESULT:      -8.1      3.822      5.223
REMARK  Name = 
REMARK  7 active torsions:
REMARK  status: ('A' for Active; 'I' for Inactive)
REMARK    1  A    between atoms: C_1  and  C_2
REMARK    2  A    between atoms: C_2  and  S_3
REMARK    3  A    between atoms: C_2  and  C_10
REMARK    4  A    between atoms: S_3  and  C_4
REMARK    5  A    between atoms: N_8  and  C_9
REMARK    6  A    between atoms: C_14  and  N_15
REMARK    7  A    between atoms: C_16  and  C_18
REMARK                            x       y       z     vdW  Elec       q    Type
REMARK                         _______ _______ _______ _____ _____    ______ ____
ROOT
ATOM      1  C   UNL     1       2.134   7.491  19.501  0.00  0.00    +0.000 A 
ATOM      2  C   UNL     1       2.229   7.895  18.157  0.00  0.00    +0.000 A 
ATOM      3  C   UNL     1       1.685   9.100  17.733  0.00  0.00    +0.000 A 
ATOM      4  C   UNL     1       1.001   9.909  18.635  0.00  0.00    +0.000 A 
ATOM      5  C   UNL     1       0.830   9.521  19.968  0.00  0.00    +0.000 A 
ATOM      6  C   UNL     1       1.442   8.331  20.408  0.00  0.00    +0.000 A 
ENDROOT
BRANCH   5   7
ATOM      7  N   UNL     1       0.047  10.290  20.875  0.00  0.00    +0.000 N 
ATOM      8  C   UNL     1       0.420  11.538  21.363  0.00  0.00    +0.000 C 
ATOM      9  O   UNL     1       1.443  12.136  21.025  0.00  0.00    +0.000 OA
ATOM     10  H   UNL     1      -0.916  10.008  21.007  0.00  0.00    +0.000 HD
BRANCH   8  11
ATOM     11  C   UNL     1      -0.465  12.127  22.474  0.00  0.00    +0.000 C 
ATOM     12  C   UNL     1      -1.905  11.572  22.587  0.00  0.00    +0.000 C 
ATOM     13  C   UNL     1      -2.950  12.435  22.674  0.00  0.00    +0.000 C 
ATOM     14  C   UNL     1      -2.665  13.632  23.513  0.00  0.00    +0.000 A 
ATOM     15  C   UNL     1      -3.550  14.089  24.486  0.00  0.00    +0.000 A 
ATOM     16  C   UNL     1      -3.111  15.037  25.416  0.00  0.00    +0.000 A 
ATOM     17  C   UNL     1      -1.802  15.529  25.365  0.00  0.00    +0.000 A 
ATOM     18  C   UNL     1      -0.946  15.139  24.339  0.00  0.00    +0.000 A 
ATOM     19  C   UNL     1      -1.385  14.206  23.404  0.00  0.00    +0.000 A 
ATOM     20  C   UNL     1      -0.496  13.665  22.316  0.00  0.00    +0.000 C 
ENDBRANCH   8  11
ENDBRANCH   5   7
BRANCH   1  22
ATOM     21  C   UNL     1       1.725   5.164  20.522  0.00  0.00    +0.000 C 
ATOM     22  C   UNL     1       2.714   6.122  19.859  0.00  0.00    +0.000 C 
BRANCH  22  23
ATOM     23  S   UNL     1       3.425   5.354  18.351  0.00  0.00    +0.000 S 
BRANCH  23  24
ATOM     24  C   UNL     1       3.947   3.814  18.934  0.00  0.00    +0.000 A 
ATOM     25  N   UNL     1       4.965   3.557  19.725  0.00  0.00    +0.000 NA
ATOM     26  N   UNL     1       5.003   2.190  19.917  0.00  0.00    +0.000 NA
ATOM     27  C   UNL     1       4.009   1.661  19.240  0.00  0.00    +0.000 A 
ATOM     28  N   UNL     1       3.314   2.650  18.611  0.00  0.00    +0.000 N 
ATOM     29  C   UNL     1       2.150   2.471  17.785  0.00  0.00    +0.000 C 
ENDBRANCH  23  24
ENDBRANCH  22  23
ENDBRANCH   1  22
TORSDOF 5
ENDMDL
