MODEL 1
REMARK VINA RESULT:      -9.4      0.000      0.000
REMARK  Name = 
REMARK  5 active torsions:
REMARK  status: ('A' for Active; 'I' for Inactive)
REMARK    1  A    between atoms: C_1  and  C_2
REMARK    2  A    between atoms: C_7  and  N_8
REMARK    3  A    between atoms: N_11  and  C_12
REMARK    4  A    between atoms: C_12  and  C_13
REMARK    5  A    between atoms: C_13  and  C_14
REMARK                            x       y       z     vdW  Elec       q    Type
REMARK                         _______ _______ _______ _____ _____    ______ ____
ROOT
ATOM      1  N   UNL     1       8.180   9.699  17.653  0.00  0.00    +0.000 N 
ATOM      2  C   UNL     1       7.978   8.357  17.925  0.00  0.00    +0.000 C 
ATOM      3  O   UNL     1       8.524   7.711  18.807  0.00  0.00    +0.000 OA
ATOM      4  N   UNL     1       7.075   7.758  17.070  0.00  0.00    +0.000 N 
ATOM      5  H   UNL     1       7.742  10.054  16.814  0.00  0.00    +0.000 HD
ATOM      6  H   UNL     1       6.663   8.284  16.316  0.00  0.00    +0.000 HD
ENDROOT
BRANCH   1  13
ATOM      7  C   UNL     1      12.194  15.451  19.336  0.00  0.00    +0.000 C 
ATOM      8  C   UNL     1      11.430  14.191  19.250  0.00  0.00    +0.000 A 
ATOM      9  N   UNL     1      11.250  13.398  20.346  0.00  0.00    +0.000 NA
ATOM     10  C   UNL     1      10.529  12.408  19.880  0.00  0.00    +0.000 A 
ATOM     11  C   UNL     1       9.998  11.257  20.504  0.00  0.00    +0.000 A 
ATOM     12  C   UNL     1       9.262  10.392  19.787  0.00  0.00    +0.000 A 
ATOM     13  C   UNL     1       8.975  10.588  18.365  0.00  0.00    +0.000 A 
ATOM     14  C   UNL     1       9.502  11.683  17.774  0.00  0.00    +0.000 A 
ATOM     15  N   UNL     1      10.270  12.588  18.522  0.00  0.00    +0.000 N 
ATOM     16  N   UNL     1      10.862  13.745  18.120  0.00  0.00    +0.000 NA
ENDBRANCH   1  13
BRANCH   4  17
ATOM     17  C   UNL     1       6.973   6.307  17.049  0.00  0.00    +0.000 C 
BRANCH  17  18
ATOM     18  C   UNL     1       5.594   5.704  16.694  0.00  0.00    +0.000 C 
ATOM     19  C   UNL     1       5.349   5.854  15.178  0.00  0.00    +0.000 C 
ATOM     20  C   UNL     1       4.364   6.284  17.457  0.00  0.00    +0.000 C 
ATOM     21  C   UNL     1       3.482   5.070  17.612  0.00  0.00    +0.000 A 
ATOM     22  C   UNL     1       2.126   5.005  17.903  0.00  0.00    +0.000 A 
ATOM     23  C   UNL     1       1.543   3.748  18.110  0.00  0.00    +0.000 A 
ATOM     24  C   UNL     1       2.317   2.579  18.044  0.00  0.00    +0.000 A 
ATOM     25  C   UNL     1       3.673   2.651  17.727  0.00  0.00    +0.000 A 
ATOM     26  C   UNL     1       4.227   3.898  17.482  0.00  0.00    +0.000 A 
ATOM     27  C   UNL     1       5.640   4.198  17.116  0.00  0.00    +0.000 C 
ENDBRANCH  17  18
ENDBRANCH   4  17
TORSDOF 3
ENDMDL
MODEL 2
REMARK VINA RESULT:      -9.0      1.077      1.758
REMARK  Name = 
REMARK  5 active torsions:
REMARK  status: ('A' for Active; 'I' for Inactive)
REMARK    1  A    between atoms: C_1  and  C_2
REMARK    2  A    between atoms: C_7  and  N_8
REMARK    3  A    between atoms: N_11  and  C_12
REMARK    4  A    between atoms: C_12  and  C_13
REMARK    5  A    between atoms: C_13  and  C_14
REMARK                            x       y       z     vdW  Elec       q    Type
REMARK                         _______ _______ _______ _____ _____    ______ ____
ROOT
ATOM      1  N   UNL     1       8.946   9.006  18.963  0.00  0.00    +0.000 N 
ATOM      2  C   UNL     1       8.060   8.589  17.984  0.00  0.00    +0.000 C 
ATOM      3  O   UNL     1       7.428   9.313  17.229  0.00  0.00    +0.000 OA
ATOM      4  N   UNL     1       7.919   7.217  17.925  0.00  0.00    +0.000 N 
ATOM      5  H   UNL     1       9.296   8.288  19.581  0.00  0.00    +0.000 HD
ATOM      6  H   UNL     1       8.408   6.628  18.581  0.00  0.00    +0.000 HD
ENDROOT
BRANCH   1  13
ATOM      7  C   UNL     1      11.128  15.818  18.034  0.00  0.00    +0.000 C 
ATOM      8  C   UNL     1      10.697  14.483  18.495  0.00  0.00    +0.000 A 
ATOM      9  N   UNL     1      10.452  14.237  19.815  0.00  0.00    +0.000 NA
ATOM     10  C   UNL     1      10.087  12.979  19.818  0.00  0.00    +0.000 A 
ATOM     11  C   UNL     1       9.693  12.117  20.867  0.00  0.00    +0.000 A 
ATOM     12  C   UNL     1       9.342  10.851  20.590  0.00  0.00    +0.000 A 
ATOM     13  C   UNL     1       9.347  10.308  19.230  0.00  0.00    +0.000 A 
ATOM     14  C   UNL     1       9.742  11.136  18.237  0.00  0.00    +0.000 A 
ATOM     15  N   UNL     1      10.107  12.460  18.524  0.00  0.00    +0.000 N 
ATOM     16  N   UNL     1      10.508  13.442  17.672  0.00  0.00    +0.000 NA
ENDBRANCH   1  13
BRANCH   4  17
ATOM     17  C   UNL     1       6.827   6.648  17.152  0.00  0.00    +0.000 C 
BRANCH  17  18
ATOM     18  C   UNL     1       5.882   5.668  17.885  0.00  0.00    +0.000 C 
ATOM     19  C   UNL     1       6.397   5.445  19.323  0.00  0.00    +0.000 C 
ATOM     20  C   UNL     1       5.664   4.278  17.213  0.00  0.00    +0.000 C 
ATOM     21  C   UNL     1       4.222   3.984  17.544  0.00  0.00    +0.000 A 
ATOM     22  C   UNL     1       3.547   2.772  17.515  0.00  0.00    +0.000 A 
ATOM     23  C   UNL     1       2.167   2.765  17.759  0.00  0.00    +0.000 A 
ATOM     24  C   UNL     1       1.478   3.961  18.006  0.00  0.00    +0.000 A 
ATOM     25  C   UNL     1       2.167   5.172  18.058  0.00  0.00    +0.000 A 
ATOM     26  C   UNL     1       3.539   5.158  17.859  0.00  0.00    +0.000 A 
ATOM     27  C   UNL     1       4.463   6.327  17.886  0.00  0.00    +0.000 C 
ENDBRANCH  17  18
ENDBRANCH   4  17
TORSDOF 3
ENDMDL
MODEL 3
REMARK VINA RESULT:      -8.9      1.439      2.250
REMARK  Name = 
REMARK  5 active torsions:
REMARK  status: ('A' for Active; 'I' for Inactive)
REMARK    1  A    between atoms: C_1  and  C_2
REMARK    2  A    between atoms: C_7  and  N_8
REMARK    3  A    between atoms: N_11  and  C_12
REMARK    4  A    between atoms: C_12  and  C_13
REMARK    5  A    between atoms: C_13  and  C_14
REMARK                            x       y       z     vdW  Elec       q    Type
REMARK                         _______ _______ _______ _____ _____    ______ ____
ROOT
ATOM      1  N   UNL     1       8.979   9.041  19.020  0.00  0.00    +0.000 N 
ATOM      2  C   UNL     1       8.131   8.597  18.020  0.00  0.00    +0.000 C 
ATOM      3  O   UNL     1       7.554   9.297  17.201  0.00  0.00    +0.000 OA
ATOM      4  N   UNL     1       7.958   7.228  18.021  0.00  0.00    +0.000 N 
ATOM      5  H   UNL     1       9.281   8.346  19.688  0.00  0.00    +0.000 HD
ATOM      6  H   UNL     1       8.399   6.660  18.727  0.00  0.00    +0.000 HD
ENDROOT
BRANCH   1  13
ATOM      7  C   UNL     1      10.327  15.331  22.283  0.00  0.00    +0.000 C 
ATOM      8  C   UNL     1      10.160  14.166  21.391  0.00  0.00    +0.000 A 
ATOM      9  N   UNL     1      10.679  14.164  20.129  0.00  0.00    +0.000 NA
ATOM     10  C   UNL     1      10.342  12.982  19.673  0.00  0.00    +0.000 A 
ATOM     11  C   UNL     1      10.581  12.350  18.432  0.00  0.00    +0.000 A 
ATOM     12  C   UNL     1      10.134  11.101  18.226  0.00  0.00    +0.000 A 
ATOM     13  C   UNL     1       9.400  10.345  19.243  0.00  0.00    +0.000 A 
ATOM     14  C   UNL     1       9.162  10.965  20.420  0.00  0.00    +0.000 A 
ATOM     15  N   UNL     1       9.629  12.270  20.638  0.00  0.00    +0.000 N 
ATOM     16  N   UNL     1       9.512  13.048  21.748  0.00  0.00    +0.000 NA
ENDBRANCH   1  13
BRANCH   4  17
ATOM     17  C   UNL     1       6.889   6.646  17.223  0.00  0.00    +0.000 C 
BRANCH  17  18
ATOM     18  C   UNL     1       5.927   5.670  17.940  0.00  0.00    +0.000 C 
ATOM     19  C   UNL     1       6.406   5.459  19.391  0.00  0.00    +0.000 C 
ATOM     20  C   UNL     1       5.728   4.275  17.273  0.00  0.00    +0.000 C 
ATOM     21  C   UNL     1       4.279   3.982  17.571  0.00  0.00    +0.000 A 
ATOM     22  C   UNL     1       3.606   2.769  17.534  0.00  0.00    +0.000 A 
ATOM     23  C   UNL     1       2.220   2.763  17.743  0.00  0.00    +0.000 A 
ATOM     24  C   UNL     1       1.523   3.960  17.964  0.00  0.00    +0.000 A 
ATOM     25  C   UNL     1       2.210   5.172  18.023  0.00  0.00    +0.000 A 
ATOM     26  C   UNL     1       3.586   5.158  17.859  0.00  0.00    +0.000 A 
ATOM     27  C   UNL     1       4.508   6.328  17.900  0.00  0.00    +0.000 C 
ENDBRANCH  17  18
ENDBRANCH   4  17
TORSDOF 3
ENDMDL
MODEL 4
REMARK VINA RESULT:      -8.7      1.977     10.243
REMARK  Name = 
REMARK  5 active torsions:
REMARK  status: ('A' for Active; 'I' for Inactive)
REMARK    1  A    between atoms: C_1  and  C_2
REMARK    2  A    between atoms: C_7  and  N_8
REMARK    3  A    between atoms: N_11  and  C_12
REMARK    4  A    between atoms: C_12  and  C_13
REMARK    5  A    between atoms: C_13  and  C_14
REMARK                            x       y       z     vdW  Elec       q    Type
REMARK                         _______ _______ _______ _____ _____    ______ ____
ROOT
ATOM      1  N   UNL     1       6.753   7.713  17.051  0.00  0.00    +0.000 N 
ATOM      2  C   UNL     1       7.801   8.088  17.874  0.00  0.00    +0.000 C 
ATOM      3  O   UNL     1       8.303   7.408  18.756  0.00  0.00    +0.000 OA
ATOM      4  N   UNL     1       8.257   9.367  17.627  0.00  0.00    +0.000 N 
ATOM      5  H   UNL     1       6.376   8.435  16.453  0.00  0.00    +0.000 HD
ATOM      6  H   UNL     1       7.808   9.941  16.929  0.00  0.00    +0.000 HD
ENDROOT
BRANCH   1  13
ATOM      7  C   UNL     1       1.942   2.450  18.142  0.00  0.00    +0.000 C 
ATOM      8  C   UNL     1       3.067   3.334  17.777  0.00  0.00    +0.000 A 
ATOM      9  N   UNL     1       4.042   2.917  16.918  0.00  0.00    +0.000 NA
ATOM     10  C   UNL     1       4.831   3.961  16.837  0.00  0.00    +0.000 A 
ATOM     11  C   UNL     1       6.020   4.186  16.109  0.00  0.00    +0.000 A 
ATOM     12  C   UNL     1       6.634   5.378  16.190  0.00  0.00    +0.000 A 
ATOM     13  C   UNL     1       6.121   6.477  17.011  0.00  0.00    +0.000 A 
ATOM     14  C   UNL     1       4.993   6.245  17.718  0.00  0.00    +0.000 A 
ATOM     15  N   UNL     1       4.350   5.001  17.632  0.00  0.00    +0.000 N 
ATOM     16  N   UNL     1       3.207   4.584  18.242  0.00  0.00    +0.000 NA
ENDBRANCH   1  13
BRANCH   4  17
ATOM     17  C   UNL     1       9.151  10.000  18.583  0.00  0.00    +0.000 C 
BRANCH  17  18
ATOM     18  C   UNL     1       9.442  11.506  18.384  0.00  0.00    +0.000 C 
ATOM     19  C   UNL     1       8.319  12.132  17.531  0.00  0.00    +0.000 C 
ATOM     20  C   UNL     1      10.816  11.870  17.743  0.00  0.00    +0.000 C 
ATOM     21  C   UNL     1      11.171  13.152  18.453  0.00  0.00    +0.000 A 
ATOM     22  C   UNL     1      12.093  14.125  18.093  0.00  0.00    +0.000 A 
ATOM     23  C   UNL     1      12.332  15.185  18.979  0.00  0.00    +0.000 A 
ATOM     24  C   UNL     1      11.668  15.251  20.213  0.00  0.00    +0.000 A 
ATOM     25  C   UNL     1      10.726  14.283  20.557  0.00  0.00    +0.000 A 
ATOM     26  C   UNL     1      10.467  13.265  19.652  0.00  0.00    +0.000 A 
ATOM     27  C   UNL     1       9.496  12.145  19.811  0.00  0.00    +0.000 C 
ENDBRANCH  17  18
ENDBRANCH   4  17
TORSDOF 3
ENDMDL
MODEL 5
REMARK VINA RESULT:      -8.6      6.916      9.823
REMARK  Name = 
REMARK  5 active torsions:
REMARK  status: ('A' for Active; 'I' for Inactive)
REMARK    1  A    between atoms: C_1  and  C_2
REMARK    2  A    between atoms: C_7  and  N_8
REMARK    3  A    between atoms: N_11  and  C_12
REMARK    4  A    between atoms: C_12  and  C_13
REMARK    5  A    between atoms: C_13  and  C_14
REMARK                            x       y       z     vdW  Elec       q    Type
REMARK                         _______ _______ _______ _____ _____    ______ ____
ROOT
ATOM      1  N   UNL     1      -0.151   9.906  17.589  0.00  0.00    +0.000 N 
ATOM      2  C   UNL     1       0.818   9.256  18.333  0.00  0.00    +0.000 C 
ATOM      3  O   UNL     1       0.907   9.249  19.552  0.00  0.00    +0.000 OA
ATOM      4  N   UNL     1       1.745   8.589  17.557  0.00  0.00    +0.000 N 
ATOM      5  H   UNL     1      -0.014   9.913  16.588  0.00  0.00    +0.000 HD
ATOM      6  H   UNL     1       1.693   8.637  16.551  0.00  0.00    +0.000 HD
ENDROOT
BRANCH   1  13
ATOM      7  C   UNL     1      -6.955  11.922  18.881  0.00  0.00    +0.000 C 
ATOM      8  C   UNL     1      -5.496  11.729  18.772  0.00  0.00    +0.000 A 
ATOM      9  N   UNL     1      -4.627  12.493  19.497  0.00  0.00    +0.000 NA
ATOM     10  C   UNL     1      -3.456  12.022  19.145  0.00  0.00    +0.000 A 
ATOM     11  C   UNL     1      -2.145  12.374  19.538  0.00  0.00    +0.000 A 
ATOM     12  C   UNL     1      -1.097  11.705  19.030  0.00  0.00    +0.000 A 
ATOM     13  C   UNL     1      -1.248  10.607  18.073  0.00  0.00    +0.000 A 
ATOM     14  C   UNL     1      -2.505  10.291  17.691  0.00  0.00    +0.000 A 
ATOM     15  N   UNL     1      -3.601  10.987  18.222  0.00  0.00    +0.000 N 
ATOM     16  N   UNL     1      -4.928  10.807  17.982  0.00  0.00    +0.000 NA
ENDBRANCH   1  13
BRANCH   4  17
ATOM     17  C   UNL     1       2.969   8.103  18.173  0.00  0.00    +0.000 C 
BRANCH  17  18
ATOM     18  C   UNL     1       3.079   6.578  18.412  0.00  0.00    +0.000 C 
ATOM     19  C   UNL     1       4.507   6.111  18.059  0.00  0.00    +0.000 C 
ATOM     20  C   UNL     1       2.058   5.679  17.649  0.00  0.00    +0.000 C 
ATOM     21  C   UNL     1       1.801   4.574  18.643  0.00  0.00    +0.000 A 
ATOM     22  C   UNL     1       1.253   3.317  18.430  0.00  0.00    +0.000 A 
ATOM     23  C   UNL     1       1.005   2.496  19.539  0.00  0.00    +0.000 A 
ATOM     24  C   UNL     1       1.286   2.942  20.838  0.00  0.00    +0.000 A 
ATOM     25  C   UNL     1       1.859   4.197  21.042  0.00  0.00    +0.000 A 
ATOM     26  C   UNL     1       2.139   4.981  19.933  0.00  0.00    +0.000 A 
ATOM     27  C   UNL     1       2.759   6.337  19.924  0.00  0.00    +0.000 C 
ENDBRANCH  17  18
ENDBRANCH   4  17
TORSDOF 3
ENDMDL
MODEL 6
REMARK VINA RESULT:      -8.6      0.968      1.152
REMARK  Name = 
REMARK  5 active torsions:
REMARK  status: ('A' for Active; 'I' for Inactive)
REMARK    1  A    between atoms: C_1  and  C_2
REMARK    2  A    between atoms: C_7  and  N_8
REMARK    3  A    between atoms: N_11  and  C_12
REMARK    4  A    between atoms: C_12  and  C_13
REMARK    5  A    between atoms: C_13  and  C_14
REMARK                            x       y       z     vdW  Elec       q    Type
REMARK                         _______ _______ _______ _____ _____    ______ ____
ROOT
ATOM      1  N   UNL     1       8.231   9.698  17.603  0.00  0.00    +0.000 N 
ATOM      2  C   UNL     1       7.962   8.374  17.905  0.00  0.00    +0.000 C 
ATOM      3  O   UNL     1       8.449   7.731  18.824  0.00  0.00    +0.000 OA
ATOM      4  N   UNL     1       7.065   7.788  17.035  0.00  0.00    +0.000 N 
ATOM      5  H   UNL     1       7.838  10.046  16.740  0.00  0.00    +0.000 HD
ATOM      6  H   UNL     1       6.702   8.309  16.252  0.00  0.00    +0.000 HD
ENDROOT
BRANCH   1  13
ATOM      7  C   UNL     1      12.333  15.381  19.307  0.00  0.00    +0.000 C 
ATOM      8  C   UNL     1      11.549  14.133  19.217  0.00  0.00    +0.000 A 
ATOM      9  N   UNL     1      11.351  13.343  20.312  0.00  0.00    +0.000 NA
ATOM     10  C   UNL     1      10.616  12.365  19.842  0.00  0.00    +0.000 A 
ATOM     11  C   UNL     1      10.063  11.223  20.463  0.00  0.00    +0.000 A 
ATOM     12  C   UNL     1       9.315  10.371  19.743  0.00  0.00    +0.000 A 
ATOM     13  C   UNL     1       9.037  10.573  18.320  0.00  0.00    +0.000 A 
ATOM     14  C   UNL     1       9.585  11.659  17.731  0.00  0.00    +0.000 A 
ATOM     15  N   UNL     1      10.365  12.551  18.483  0.00  0.00    +0.000 N 
ATOM     16  N   UNL     1      10.978  13.698  18.084  0.00  0.00    +0.000 NA
ENDBRANCH   1  13
BRANCH   4  17
ATOM     17  C   UNL     1       6.901   6.343  17.050  0.00  0.00    +0.000 C 
BRANCH  17  18
ATOM     18  C   UNL     1       5.539   5.794  17.533  0.00  0.00    +0.000 C 
ATOM     19  C   UNL     1       4.453   6.869  17.319  0.00  0.00    +0.000 C 
ATOM     20  C   UNL     1       5.471   5.306  19.013  0.00  0.00    +0.000 C 
ATOM     21  C   UNL     1       4.519   4.140  18.922  0.00  0.00    +0.000 A 
ATOM     22  C   UNL     1       3.806   3.511  19.933  0.00  0.00    +0.000 A 
ATOM     23  C   UNL     1       3.064   2.364  19.619  0.00  0.00    +0.000 A 
ATOM     24  C   UNL     1       3.057   1.850  18.314  0.00  0.00    +0.000 A 
ATOM     25  C   UNL     1       3.756   2.501  17.298  0.00  0.00    +0.000 A 
ATOM     26  C   UNL     1       4.450   3.659  17.614  0.00  0.00    +0.000 A 
ATOM     27  C   UNL     1       5.244   4.512  16.685  0.00  0.00    +0.000 C 
ENDBRANCH  17  18
ENDBRANCH   4  17
TORSDOF 3
ENDMDL
MODEL 7
REMARK VINA RESULT:      -8.5      1.338      1.499
REMARK  Name = 
REMARK  5 active torsions:
REMARK  status: ('A' for Active; 'I' for Inactive)
REMARK    1  A    between atoms: C_1  and  C_2
REMARK    2  A    between atoms: C_7  and  N_8
REMARK    3  A    between atoms: N_11  and  C_12
REMARK    4  A    between atoms: C_12  and  C_13
REMARK    5  A    between atoms: C_13  and  C_14
REMARK                            x       y       z     vdW  Elec       q    Type
REMARK                         _______ _______ _______ _____ _____    ______ ____
ROOT
ATOM      1  N   UNL     1       8.661   8.650  19.117  0.00  0.00    +0.000 N 
ATOM      2  C   UNL     1       8.088   8.043  18.013  0.00  0.00    +0.000 C 
ATOM      3  O   UNL     1       7.850   8.577  16.940  0.00  0.00    +0.000 OA
ATOM      4  N   UNL     1       7.768   6.717  18.225  0.00  0.00    +0.000 N 
ATOM      5  H   UNL     1       8.680   8.103  19.966  0.00  0.00    +0.000 HD
ATOM      6  H   UNL     1       7.924   6.295  19.128  0.00  0.00    +0.000 HD
ENDROOT
BRANCH   1  13
ATOM      7  C   UNL     1      11.012  15.208  17.250  0.00  0.00    +0.000 C 
ATOM      8  C   UNL     1      10.580  13.952  17.891  0.00  0.00    +0.000 A 
ATOM      9  N   UNL     1      10.477  13.851  19.249  0.00  0.00    +0.000 NA
ATOM     10  C   UNL     1      10.062  12.620  19.423  0.00  0.00    +0.000 A 
ATOM     11  C   UNL     1       9.755  11.889  20.592  0.00  0.00    +0.000 A 
ATOM     12  C   UNL     1       9.321  10.622  20.489  0.00  0.00    +0.000 A 
ATOM     13  C   UNL     1       9.145   9.949  19.201  0.00  0.00    +0.000 A 
ATOM     14  C   UNL     1       9.459  10.651  18.090  0.00  0.00    +0.000 A 
ATOM     15  N   UNL     1       9.911  11.975  18.196  0.00  0.00    +0.000 N 
ATOM     16  N   UNL     1      10.253  12.846  17.207  0.00  0.00    +0.000 NA
ENDBRANCH   1  13
BRANCH   4  17
ATOM     17  C   UNL     1       6.912   6.031  17.270  0.00  0.00    +0.000 C 
BRANCH  17  18
ATOM     18  C   UNL     1       5.451   5.762  17.702  0.00  0.00    +0.000 C 
ATOM     19  C   UNL     1       4.612   7.037  17.477  0.00  0.00    +0.000 C 
ATOM     20  C   UNL     1       5.237   5.277  19.168  0.00  0.00    +0.000 C 
ATOM     21  C   UNL     1       4.073   4.328  19.024  0.00  0.00    +0.000 A 
ATOM     22  C   UNL     1       3.215   3.842  20.001  0.00  0.00    +0.000 A 
ATOM     23  C   UNL     1       2.268   2.874  19.641  0.00  0.00    +0.000 A 
ATOM     24  C   UNL     1       2.201   2.390  18.326  0.00  0.00    +0.000 A 
ATOM     25  C   UNL     1       3.051   2.901  17.345  0.00  0.00    +0.000 A 
ATOM     26  C   UNL     1       3.952   3.890  17.706  0.00  0.00    +0.000 A 
ATOM     27  C   UNL     1       4.933   4.578  16.819  0.00  0.00    +0.000 C 
ENDBRANCH  17  18
ENDBRANCH   4  17
TORSDOF 3
ENDMDL
MODEL 8
REMARK VINA RESULT:      -8.5      1.277      1.629
REMARK  Name = 
REMARK  5 active torsions:
REMARK  status: ('A' for Active; 'I' for Inactive)
REMARK    1  A    between atoms: C_1  and  C_2
REMARK    2  A    between atoms: C_7  and  N_8
REMARK    3  A    between atoms: N_11  and  C_12
REMARK    4  A    between atoms: C_12  and  C_13
REMARK    5  A    between atoms: C_13  and  C_14
REMARK                            x       y       z     vdW  Elec       q    Type
REMARK                         _______ _______ _______ _____ _____    ______ ____
ROOT
ATOM      1  N   UNL     1       9.111   9.194  19.161  0.00  0.00    +0.000 N 
ATOM      2  C   UNL     1       8.176   8.869  18.194  0.00  0.00    +0.000 C 
ATOM      3  O   UNL     1       7.581   9.657  17.474  0.00  0.00    +0.000 OA
ATOM      4  N   UNL     1       7.933   7.513  18.105  0.00  0.00    +0.000 N 
ATOM      5  H   UNL     1       9.422   8.436  19.752  0.00  0.00    +0.000 HD
ATOM      6  H   UNL     1       8.392   6.872  18.733  0.00  0.00    +0.000 HD
ENDROOT
BRANCH   1  13
ATOM      7  C   UNL     1      12.333  15.606  18.437  0.00  0.00    +0.000 C 
ATOM      8  C   UNL     1      11.636  14.372  18.848  0.00  0.00    +0.000 A 
ATOM      9  N   UNL     1      11.073  14.259  20.087  0.00  0.00    +0.000 NA
ATOM     10  C   UNL     1      10.552  13.057  20.066  0.00  0.00    +0.000 A 
ATOM     11  C   UNL     1       9.824  12.331  21.035  0.00  0.00    +0.000 A 
ATOM     12  C   UNL     1       9.378  11.098  20.746  0.00  0.00    +0.000 A 
ATOM     13  C   UNL     1       9.613  10.456  19.451  0.00  0.00    +0.000 A 
ATOM     14  C   UNL     1      10.326  11.152  18.537  0.00  0.00    +0.000 A 
ATOM     15  N   UNL     1      10.790  12.441  18.838  0.00  0.00    +0.000 N 
ATOM     16  N   UNL     1      11.498  13.300  18.055  0.00  0.00    +0.000 NA
ENDBRANCH   1  13
BRANCH   4  17
ATOM     17  C   UNL     1       6.784   7.046  17.344  0.00  0.00    +0.000 C 
BRANCH  17  18
ATOM     18  C   UNL     1       6.343   5.581  17.566  0.00  0.00    +0.000 C 
ATOM     19  C   UNL     1       7.588   4.669  17.565  0.00  0.00    +0.000 C 
ATOM     20  C   UNL     1       5.304   5.006  16.555  0.00  0.00    +0.000 C 
ATOM     21  C   UNL     1       4.477   4.096  17.428  0.00  0.00    +0.000 A 
ATOM     22  C   UNL     1       3.626   3.064  17.057  0.00  0.00    +0.000 A 
ATOM     23  C   UNL     1       2.871   2.426  18.050  0.00  0.00    +0.000 A 
ATOM     24  C   UNL     1       2.958   2.835  19.390  0.00  0.00    +0.000 A 
ATOM     25  C   UNL     1       3.833   3.856  19.758  0.00  0.00    +0.000 A 
ATOM     26  C   UNL     1       4.606   4.447  18.771  0.00  0.00    +0.000 A 
ATOM     27  C   UNL     1       5.608   5.537  18.947  0.00  0.00    +0.000 C 
ENDBRANCH  17  18
ENDBRANCH   4  17
TORSDOF 3
ENDMDL
MODEL 9
REMARK VINA RESULT:      -8.5      2.357      9.842
REMARK  Name = 
REMARK  5 active torsions:
REMARK  status: ('A' for Active; 'I' for Inactive)
REMARK    1  A    between atoms: C_1  and  C_2
REMARK    2  A    between atoms: C_7  and  N_8
REMARK    3  A    between atoms: N_11  and  C_12
REMARK    4  A    between atoms: C_12  and  C_13
REMARK    5  A    between atoms: C_13  and  C_14
REMARK                            x       y       z     vdW  Elec       q    Type
REMARK                         _______ _______ _______ _____ _____    ______ ____
ROOT
ATOM      1  N   UNL     1       6.849   7.809  17.155  0.00  0.00    +0.000 N 
ATOM      2  C   UNL     1       7.914   8.172  17.961  0.00  0.00    +0.000 C 
ATOM      3  O   UNL     1       8.468   7.460  18.785  0.00  0.00    +0.000 OA
ATOM      4  N   UNL     1       8.320   9.477  17.772  0.00  0.00    +0.000 N 
ATOM      5  H   UNL     1       6.429   8.550  16.612  0.00  0.00    +0.000 HD
ATOM      6  H   UNL     1       7.829  10.074  17.124  0.00  0.00    +0.000 HD
ENDROOT
BRANCH   1  13
ATOM      7  C   UNL     1       2.152   2.392  17.948  0.00  0.00    +0.000 C 
ATOM      8  C   UNL     1       3.265   3.315  17.646  0.00  0.00    +0.000 A 
ATOM      9  N   UNL     1       4.286   2.943  16.820  0.00  0.00    +0.000 NA
ATOM     10  C   UNL     1       5.047   4.009  16.792  0.00  0.00    +0.000 A 
ATOM     11  C   UNL     1       6.257   4.283  16.116  0.00  0.00    +0.000 A 
ATOM     12  C   UNL     1       6.832   5.489  16.245  0.00  0.00    +0.000 A 
ATOM     13  C   UNL     1       6.256   6.557  17.065  0.00  0.00    +0.000 A 
ATOM     14  C   UNL     1       5.107   6.279  17.721  0.00  0.00    +0.000 A 
ATOM     15  N   UNL     1       4.504   5.019  17.586  0.00  0.00    +0.000 N 
ATOM     16  N   UNL     1       3.350   4.558  18.140  0.00  0.00    +0.000 NA
ENDBRANCH   1  13
BRANCH   4  17
ATOM     17  C   UNL     1       9.228  10.085  18.733  0.00  0.00    +0.000 C 
BRANCH  17  18
ATOM     18  C   UNL     1       9.571  11.579  18.528  0.00  0.00    +0.000 C 
ATOM     19  C   UNL     1      10.916  11.693  17.779  0.00  0.00    +0.000 C 
ATOM     20  C   UNL     1       9.641  12.459  19.813  0.00  0.00    +0.000 C 
ATOM     21  C   UNL     1       9.107  13.783  19.324  0.00  0.00    +0.000 A 
ATOM     22  C   UNL     1       9.230  15.041  19.896  0.00  0.00    +0.000 A 
ATOM     23  C   UNL     1       8.546  16.115  19.311  0.00  0.00    +0.000 A 
ATOM     24  C   UNL     1       7.736  15.919  18.183  0.00  0.00    +0.000 A 
ATOM     25  C   UNL     1       7.636  14.657  17.600  0.00  0.00    +0.000 A 
ATOM     26  C   UNL     1       8.354  13.613  18.163  0.00  0.00    +0.000 A 
ATOM     27  C   UNL     1       8.402  12.199  17.694  0.00  0.00    +0.000 C 
ENDBRANCH  17  18
ENDBRANCH   4  17
TORSDOF 3
ENDMDL
