MODEL 1
REMARK VINA RESULT:      -8.9      0.000      0.000
REMARK  Name = 
REMARK  4 active torsions:
REMARK  status: ('A' for Active; 'I' for Inactive)
REMARK    1  A    between atoms: C_5  and  C_7
REMARK    2  A    between atoms: C_10  and  N_11
REMARK    3  A    between atoms: N_23  and  C_24
REMARK    4  A    between atoms: C_24  and  C_25
REMARK                            x       y       z     vdW  Elec       q    Type
REMARK                         _______ _______ _______ _____ _____    ______ ____
ROOT
ATOM      1  C   UNL     1       2.280   6.497  18.728  0.00  0.00    +0.000 A 
ATOM      2  C   UNL     1       1.947   6.179  20.047  0.00  0.00    +0.000 A 
ATOM      3  C   UNL     1       1.481   7.176  20.903  0.00  0.00    +0.000 A 
ATOM      4  C   UNL     1       1.323   8.490  20.436  0.00  0.00    +0.000 A 
ATOM      5  C   UNL     1       1.582   8.815  19.109  0.00  0.00    +0.000 A 
ATOM      6  C   UNL     1       2.105   7.818  18.273  0.00  0.00    +0.000 A 
ENDROOT
BRANCH   4   7
ATOM      7  N   UNL     1       1.035   9.474  21.405  0.00  0.00    +0.000 N 
ATOM      8  C   UNL     1       1.161   9.230  22.755  0.00  0.00    +0.000 A 
ATOM      9  N   UNL     1       0.297   9.906  23.469  0.00  0.00    +0.000 NA
ATOM     10  C   UNL     1      -0.372  10.673  22.553  0.00  0.00    +0.000 A 
ATOM     11  C   UNL     1      -1.496  11.483  22.754  0.00  0.00    +0.000 A 
ATOM     12  C   UNL     1      -2.006  12.205  21.674  0.00  0.00    +0.000 A 
ATOM     13  C   UNL     1      -1.379  12.155  20.425  0.00  0.00    +0.000 A 
ATOM     14  C   UNL     1      -0.279  11.316  20.189  0.00  0.00    +0.000 A 
ATOM     15  C   UNL     1       0.174  10.548  21.270  0.00  0.00    +0.000 A 
ENDBRANCH   4   7
BRANCH   1  20
ATOM     16  O   UNL     1       7.301   6.898  16.563  0.00  0.00    +0.000 OA
ATOM     17  C   UNL     1       6.317   6.221  16.814  0.00  0.00    +0.000 C 
ATOM     18  C   UNL     1       5.134   6.655  17.644  0.00  0.00    +0.000 C 
ATOM     19  N   UNL     1       4.239   5.505  17.539  0.00  0.00    +0.000 N 
ATOM     20  C   UNL     1       2.919   5.410  17.920  0.00  0.00    +0.000 C 
ATOM     21  O   UNL     1       2.225   4.447  17.600  0.00  0.00    +0.000 OA
ATOM     22  C   UNL     1       4.796   4.475  16.709  0.00  0.00    +0.000 C 
ATOM     23  N   UNL     1       6.122   4.915  16.414  0.00  0.00    +0.000 N 
BRANCH  23  24
ATOM     24  C   UNL     1       6.995   4.247  15.459  0.00  0.00    +0.000 C 
BRANCH  24  25
ATOM     25  C   UNL     1       6.627   4.429  13.983  0.00  0.00    +0.000 C 
ATOM     26  F   UNL     1       7.501   5.228  13.328  0.00  0.00    +0.000 F 
ATOM     27  F   UNL     1       6.576   3.247  13.332  0.00  0.00    +0.000 F 
ATOM     28  F   UNL     1       5.404   5.004  13.872  0.00  0.00    +0.000 F 
ENDBRANCH  24  25
ENDBRANCH  23  24
ENDBRANCH   1  20
TORSDOF 4
ENDMDL
MODEL 2
REMARK VINA RESULT:      -8.6      1.600      2.461
REMARK  Name = 
REMARK  4 active torsions:
REMARK  status: ('A' for Active; 'I' for Inactive)
REMARK    1  A    between atoms: C_5  and  C_7
REMARK    2  A    between atoms: C_10  and  N_11
REMARK    3  A    between atoms: N_23  and  C_24
REMARK    4  A    between atoms: C_24  and  C_25
REMARK                            x       y       z     vdW  Elec       q    Type
REMARK                         _______ _______ _______ _____ _____    ______ ____
ROOT
ATOM      1  C   UNL     1       2.294   7.304  18.643  0.00  0.00    +0.000 A 
ATOM      2  C   UNL     1       2.051   8.376  17.781  0.00  0.00    +0.000 A 
ATOM      3  C   UNL     1       1.488   9.551  18.277  0.00  0.00    +0.000 A 
ATOM      4  C   UNL     1       1.188   9.667  19.643  0.00  0.00    +0.000 A 
ATOM      5  C   UNL     1       1.485   8.641  20.532  0.00  0.00    +0.000 A 
ATOM      6  C   UNL     1       1.997   7.443  20.013  0.00  0.00    +0.000 A 
ENDROOT
BRANCH   4   7
ATOM      7  N   UNL     1       0.448  10.803  20.032  0.00  0.00    +0.000 N 
ATOM      8  C   UNL     1      -0.923  10.769  20.177  0.00  0.00    +0.000 A 
ATOM      9  N   UNL     1      -1.486  11.914  19.888  0.00  0.00    +0.000 NA
ATOM     10  C   UNL     1      -0.434  12.747  19.612  0.00  0.00    +0.000 A 
ATOM     11  C   UNL     1      -0.471  14.055  19.111  0.00  0.00    +0.000 A 
ATOM     12  C   UNL     1       0.733  14.736  18.925  0.00  0.00    +0.000 A 
ATOM     13  C   UNL     1       1.949  14.142  19.275  0.00  0.00    +0.000 A 
ATOM     14  C   UNL     1       2.013  12.818  19.737  0.00  0.00    +0.000 A 
ATOM     15  C   UNL     1       0.798  12.129  19.850  0.00  0.00    +0.000 A 
ENDBRANCH   4   7
BRANCH   1  20
ATOM     16  O   UNL     1       7.216   6.690  16.306  0.00  0.00    +0.000 OA
ATOM     17  C   UNL     1       6.168   6.198  16.692  0.00  0.00    +0.000 C 
ATOM     18  C   UNL     1       5.090   6.911  17.471  0.00  0.00    +0.000 C 
ATOM     19  N   UNL     1       4.055   5.886  17.582  0.00  0.00    +0.000 N 
ATOM     20  C   UNL     1       2.753   6.027  18.009  0.00  0.00    +0.000 C 
ATOM     21  O   UNL     1       1.929   5.126  17.872  0.00  0.00    +0.000 OA
ATOM     22  C   UNL     1       4.438   4.672  16.919  0.00  0.00    +0.000 C 
ATOM     23  N   UNL     1       5.793   4.882  16.519  0.00  0.00    +0.000 N 
BRANCH  23  24
ATOM     24  C   UNL     1       6.528   3.960  15.665  0.00  0.00    +0.000 C 
BRANCH  24  25
ATOM     25  C   UNL     1       6.336   4.155  14.157  0.00  0.00    +0.000 C 
ATOM     26  F   UNL     1       5.127   4.684  13.856  0.00  0.00    +0.000 F 
ATOM     27  F   UNL     1       7.285   4.960  13.633  0.00  0.00    +0.000 F 
ATOM     28  F   UNL     1       6.417   2.963  13.517  0.00  0.00    +0.000 F 
ENDBRANCH  24  25
ENDBRANCH  23  24
ENDBRANCH   1  20
TORSDOF 4
ENDMDL
MODEL 3
REMARK VINA RESULT:      -8.6      5.651      9.108
REMARK  Name = 
REMARK  4 active torsions:
REMARK  status: ('A' for Active; 'I' for Inactive)
REMARK    1  A    between atoms: C_5  and  C_7
REMARK    2  A    between atoms: C_10  and  N_11
REMARK    3  A    between atoms: N_23  and  C_24
REMARK    4  A    between atoms: C_24  and  C_25
REMARK                            x       y       z     vdW  Elec       q    Type
REMARK                         _______ _______ _______ _____ _____    ______ ____
ROOT
ATOM      1  C   UNL     1       1.073   9.438  18.836  0.00  0.00    +0.000 A 
ATOM      2  C   UNL     1       1.065   8.886  20.119  0.00  0.00    +0.000 A 
ATOM      3  C   UNL     1       1.800   7.731  20.381  0.00  0.00    +0.000 A 
ATOM      4  C   UNL     1       2.566   7.137  19.367  0.00  0.00    +0.000 A 
ATOM      5  C   UNL     1       2.646   7.706  18.102  0.00  0.00    +0.000 A 
ATOM      6  C   UNL     1       1.857   8.834  17.833  0.00  0.00    +0.000 A 
ENDROOT
BRANCH   4   7
ATOM      7  N   UNL     1       3.123   5.872  19.655  0.00  0.00    +0.000 N 
ATOM      8  C   UNL     1       4.429   5.561  19.345  0.00  0.00    +0.000 A 
ATOM      9  N   UNL     1       4.587   4.294  19.055  0.00  0.00    +0.000 NA
ATOM     10  C   UNL     1       3.347   3.746  19.252  0.00  0.00    +0.000 A 
ATOM     11  C   UNL     1       2.915   2.447  18.956  0.00  0.00    +0.000 A 
ATOM     12  C   UNL     1       1.602   2.089  19.265  0.00  0.00    +0.000 A 
ATOM     13  C   UNL     1       0.748   2.996  19.899  0.00  0.00    +0.000 A 
ATOM     14  C   UNL     1       1.145   4.316  20.165  0.00  0.00    +0.000 A 
ATOM     15  C   UNL     1       2.445   4.674  19.784  0.00  0.00    +0.000 A 
ENDBRANCH   4   7
BRANCH   1  20
ATOM     16  O   UNL     1       1.970  14.513  20.707  0.00  0.00    +0.000 OA
ATOM     17  C   UNL     1       1.315  13.749  20.016  0.00  0.00    +0.000 C 
ATOM     18  C   UNL     1       1.639  12.300  19.749  0.00  0.00    +0.000 C 
ATOM     19  N   UNL     1       0.496  11.864  18.951  0.00  0.00    +0.000 N 
ATOM     20  C   UNL     1       0.139  10.583  18.594  0.00  0.00    +0.000 C 
ATOM     21  O   UNL     1      -0.952  10.337  18.085  0.00  0.00    +0.000 OA
ATOM     22  C   UNL     1      -0.454  12.925  18.765  0.00  0.00    +0.000 C 
ATOM     23  N   UNL     1       0.172  14.082  19.319  0.00  0.00    +0.000 N 
BRANCH  23  24
ATOM     24  C   UNL     1      -0.509  15.357  19.491  0.00  0.00    +0.000 C 
BRANCH  24  25
ATOM     25  C   UNL     1       0.046  16.524  18.667  0.00  0.00    +0.000 C 
ATOM     26  F   UNL     1       1.259  16.246  18.134  0.00  0.00    +0.000 F 
ATOM     27  F   UNL     1      -0.784  16.862  17.657  0.00  0.00    +0.000 F 
ATOM     28  F   UNL     1       0.198  17.620  19.450  0.00  0.00    +0.000 F 
ENDBRANCH  24  25
ENDBRANCH  23  24
ENDBRANCH   1  20
TORSDOF 4
ENDMDL
MODEL 4
REMARK VINA RESULT:      -8.5      5.123      9.686
REMARK  Name = 
REMARK  4 active torsions:
REMARK  status: ('A' for Active; 'I' for Inactive)
REMARK    1  A    between atoms: C_5  and  C_7
REMARK    2  A    between atoms: C_10  and  N_11
REMARK    3  A    between atoms: N_23  and  C_24
REMARK    4  A    between atoms: C_24  and  C_25
REMARK                            x       y       z     vdW  Elec       q    Type
REMARK                         _______ _______ _______ _____ _____    ______ ____
ROOT
ATOM      1  C   UNL     1       1.838   8.167  19.028  0.00  0.00    +0.000 A 
ATOM      2  C   UNL     1       2.682   8.256  17.919  0.00  0.00    +0.000 A 
ATOM      3  C   UNL     1       3.626   7.258  17.684  0.00  0.00    +0.000 A 
ATOM      4  C   UNL     1       3.715   6.154  18.545  0.00  0.00    +0.000 A 
ATOM      5  C   UNL     1       2.840   6.008  19.616  0.00  0.00    +0.000 A 
ATOM      6  C   UNL     1       1.933   7.046  19.876  0.00  0.00    +0.000 A 
ENDROOT
BRANCH   4   7
ATOM      7  N   UNL     1       4.814   5.291  18.355  0.00  0.00    +0.000 N 
ATOM      8  C   UNL     1       5.858   5.227  19.254  0.00  0.00    +0.000 A 
ATOM      9  N   UNL     1       6.999   4.948  18.677  0.00  0.00    +0.000 NA
ATOM     10  C   UNL     1       6.674   4.753  17.361  0.00  0.00    +0.000 A 
ATOM     11  C   UNL     1       7.534   4.564  16.273  0.00  0.00    +0.000 A 
ATOM     12  C   UNL     1       6.982   4.358  15.008  0.00  0.00    +0.000 A 
ATOM     13  C   UNL     1       5.596   4.297  14.837  0.00  0.00    +0.000 A 
ATOM     14  C   UNL     1       4.715   4.527  15.905  0.00  0.00    +0.000 A 
ATOM     15  C   UNL     1       5.291   4.801  17.153  0.00  0.00    +0.000 A 
ENDBRANCH   4   7
BRANCH   1  20
ATOM     16  O   UNL     1       0.204   9.628  24.054  0.00  0.00    +0.000 OA
ATOM     17  C   UNL     1       0.278   9.875  22.860  0.00  0.00    +0.000 C 
ATOM     18  C   UNL     1       1.045   9.073  21.838  0.00  0.00    +0.000 C 
ATOM     19  N   UNL     1       0.717   9.759  20.591  0.00  0.00    +0.000 N 
ATOM     20  C   UNL     1       0.962   9.351  19.299  0.00  0.00    +0.000 C 
ATOM     21  O   UNL     1       0.463   9.929  18.335  0.00  0.00    +0.000 OA
ATOM     22  C   UNL     1      -0.181  10.857  20.812  0.00  0.00    +0.000 C 
ATOM     23  N   UNL     1      -0.298  10.959  22.231  0.00  0.00    +0.000 N 
BRANCH  23  24
ATOM     24  C   UNL     1      -1.246  11.841  22.897  0.00  0.00    +0.000 C 
BRANCH  24  25
ATOM     25  C   UNL     1      -0.953  13.341  22.780  0.00  0.00    +0.000 C 
ATOM     26  F   UNL     1      -1.064  13.981  23.966  0.00  0.00    +0.000 F 
ATOM     27  F   UNL     1       0.287  13.571  22.297  0.00  0.00    +0.000 F 
ATOM     28  F   UNL     1      -1.833  13.925  21.930  0.00  0.00    +0.000 F 
ENDBRANCH  24  25
ENDBRANCH  23  24
ENDBRANCH   1  20
TORSDOF 4
ENDMDL
MODEL 5
REMARK VINA RESULT:      -8.5      1.331      1.952
REMARK  Name = 
REMARK  4 active torsions:
REMARK  status: ('A' for Active; 'I' for Inactive)
REMARK    1  A    between atoms: C_5  and  C_7
REMARK    2  A    between atoms: C_10  and  N_11
REMARK    3  A    between atoms: N_23  and  C_24
REMARK    4  A    between atoms: C_24  and  C_25
REMARK                            x       y       z     vdW  Elec       q    Type
REMARK                         _______ _______ _______ _____ _____    ______ ____
ROOT
ATOM      1  C   UNL     1       2.277   7.511  18.590  0.00  0.00    +0.000 A 
ATOM      2  C   UNL     1       2.171   8.593  17.713  0.00  0.00    +0.000 A 
ATOM      3  C   UNL     1       1.611   9.791  18.155  0.00  0.00    +0.000 A 
ATOM      4  C   UNL     1       1.178   9.920  19.483  0.00  0.00    +0.000 A 
ATOM      5  C   UNL     1       1.337   8.881  20.393  0.00  0.00    +0.000 A 
ATOM      6  C   UNL     1       1.847   7.661  19.923  0.00  0.00    +0.000 A 
ENDROOT
BRANCH   4   7
ATOM      7  N   UNL     1       0.451  11.087  19.800  0.00  0.00    +0.000 N 
ATOM      8  C   UNL     1       0.628  11.757  20.991  0.00  0.00    +0.000 A 
ATOM      9  N   UNL     1      -0.469  12.337  21.407  0.00  0.00    +0.000 NA
ATOM     10  C   UNL     1      -1.379  12.093  20.412  0.00  0.00    +0.000 A 
ATOM     11  C   UNL     1      -2.752  12.368  20.405  0.00  0.00    +0.000 A 
ATOM     12  C   UNL     1      -3.493  12.054  19.265  0.00  0.00    +0.000 A 
ATOM     13  C   UNL     1      -2.869  11.516  18.136  0.00  0.00    +0.000 A 
ATOM     14  C   UNL     1      -1.503  11.191  18.137  0.00  0.00    +0.000 A 
ATOM     15  C   UNL     1      -0.793  11.451  19.316  0.00  0.00    +0.000 A 
ENDBRANCH   4   7
BRANCH   1  20
ATOM     16  O   UNL     1       7.255   6.804  16.404  0.00  0.00    +0.000 OA
ATOM     17  C   UNL     1       6.193   6.329  16.773  0.00  0.00    +0.000 C 
ATOM     18  C   UNL     1       5.100   7.068  17.505  0.00  0.00    +0.000 C 
ATOM     19  N   UNL     1       4.054   6.055  17.613  0.00  0.00    +0.000 N 
ATOM     20  C   UNL     1       2.742   6.216  18.000  0.00  0.00    +0.000 C 
ATOM     21  O   UNL     1       1.915   5.317  17.863  0.00  0.00    +0.000 OA
ATOM     22  C   UNL     1       4.446   4.822  16.990  0.00  0.00    +0.000 C 
ATOM     23  N   UNL     1       5.812   5.012  16.622  0.00  0.00    +0.000 N 
BRANCH  23  24
ATOM     24  C   UNL     1       6.563   4.064  15.811  0.00  0.00    +0.000 C 
BRANCH  24  25
ATOM     25  C   UNL     1       6.426   4.234  14.294  0.00  0.00    +0.000 C 
ATOM     26  F   UNL     1       7.403   5.011  13.772  0.00  0.00    +0.000 F 
ATOM     27  F   UNL     1       6.453   3.045  13.655  0.00  0.00    +0.000 F 
ATOM     28  F   UNL     1       5.244   4.827  13.994  0.00  0.00    +0.000 F 
ENDBRANCH  24  25
ENDBRANCH  23  24
ENDBRANCH   1  20
TORSDOF 4
ENDMDL
MODEL 6
REMARK VINA RESULT:      -8.5      5.872      9.537
REMARK  Name = 
REMARK  4 active torsions:
REMARK  status: ('A' for Active; 'I' for Inactive)
REMARK    1  A    between atoms: C_5  and  C_7
REMARK    2  A    between atoms: C_10  and  N_11
REMARK    3  A    between atoms: N_23  and  C_24
REMARK    4  A    between atoms: C_24  and  C_25
REMARK                            x       y       z     vdW  Elec       q    Type
REMARK                         _______ _______ _______ _____ _____    ______ ____
ROOT
ATOM      1  C   UNL     1       0.664   9.572  19.042  0.00  0.00    +0.000 A 
ATOM      2  C   UNL     1       0.949   8.743  20.129  0.00  0.00    +0.000 A 
ATOM      3  C   UNL     1       1.901   7.732  19.999  0.00  0.00    +0.000 A 
ATOM      4  C   UNL     1       2.588   7.562  18.788  0.00  0.00    +0.000 A 
ATOM      5  C   UNL     1       2.372   8.419  17.715  0.00  0.00    +0.000 A 
ATOM      6  C   UNL     1       1.371   9.394  17.837  0.00  0.00    +0.000 A 
ENDROOT
BRANCH   4   7
ATOM      7  N   UNL     1       3.388   6.406  18.672  0.00  0.00    +0.000 N 
ATOM      8  C   UNL     1       4.651   6.442  18.121  0.00  0.00    +0.000 A 
ATOM      9  N   UNL     1       4.961   5.330  17.505  0.00  0.00    +0.000 NA
ATOM     10  C   UNL     1       3.884   4.511  17.725  0.00  0.00    +0.000 A 
ATOM     11  C   UNL     1       3.627   3.250  17.175  0.00  0.00    +0.000 A 
ATOM     12  C   UNL     1       2.468   2.573  17.559  0.00  0.00    +0.000 A 
ATOM     13  C   UNL     1       1.604   3.125  18.509  0.00  0.00    +0.000 A 
ATOM     14  C   UNL     1       1.819   4.406  19.040  0.00  0.00    +0.000 A 
ATOM     15  C   UNL     1       2.952   5.096  18.588  0.00  0.00    +0.000 A 
ENDBRANCH   4   7
BRANCH   1  20
ATOM     16  O   UNL     1      -3.560   9.879  15.560  0.00  0.00    +0.000 OA
ATOM     17  C   UNL     1      -3.044  10.207  16.616  0.00  0.00    +0.000 C 
ATOM     18  C   UNL     1      -1.765   9.646  17.188  0.00  0.00    +0.000 C 
ATOM     19  N   UNL     1      -1.584  10.447  18.395  0.00  0.00    +0.000 N 
ATOM     20  C   UNL     1      -0.477  10.527  19.212  0.00  0.00    +0.000 C 
ATOM     21  O   UNL     1      -0.383  11.385  20.087  0.00  0.00    +0.000 OA
ATOM     22  C   UNL     1      -2.626  11.422  18.545  0.00  0.00    +0.000 C 
ATOM     23  N   UNL     1      -3.558  11.129  17.504  0.00  0.00    +0.000 N 
BRANCH  23  24
ATOM     24  C   UNL     1      -4.695  11.980  17.182  0.00  0.00    +0.000 C 
BRANCH  24  25
ATOM     25  C   UNL     1      -5.967  11.726  17.998  0.00  0.00    +0.000 C 
ATOM     26  F   UNL     1      -6.176  10.409  18.228  0.00  0.00    +0.000 F 
ATOM     27  F   UNL     1      -5.929  12.356  19.192  0.00  0.00    +0.000 F 
ATOM     28  F   UNL     1      -7.052  12.189  17.331  0.00  0.00    +0.000 F 
ENDBRANCH  24  25
ENDBRANCH  23  24
ENDBRANCH   1  20
TORSDOF 4
ENDMDL
MODEL 7
REMARK VINA RESULT:      -8.5      0.993      1.727
REMARK  Name = 
REMARK  4 active torsions:
REMARK  status: ('A' for Active; 'I' for Inactive)
REMARK    1  A    between atoms: C_5  and  C_7
REMARK    2  A    between atoms: C_10  and  N_11
REMARK    3  A    between atoms: N_23  and  C_24
REMARK    4  A    between atoms: C_24  and  C_25
REMARK                            x       y       z     vdW  Elec       q    Type
REMARK                         _______ _______ _______ _____ _____    ______ ____
ROOT
ATOM      1  C   UNL     1       2.403   6.907  18.655  0.00  0.00    +0.000 A 
ATOM      2  C   UNL     1       2.233   8.070  17.901  0.00  0.00    +0.000 A 
ATOM      3  C   UNL     1       1.713   9.216  18.501  0.00  0.00    +0.000 A 
ATOM      4  C   UNL     1       1.385   9.210  19.865  0.00  0.00    +0.000 A 
ATOM      5  C   UNL     1       1.610   8.086  20.652  0.00  0.00    +0.000 A 
ATOM      6  C   UNL     1       2.078   6.922  20.025  0.00  0.00    +0.000 A 
ENDROOT
BRANCH   4   7
ATOM      7  N   UNL     1       0.689  10.337  20.353  0.00  0.00    +0.000 N 
ATOM      8  C   UNL     1       0.561  10.591  21.701  0.00  0.00    +0.000 A 
ATOM      9  N   UNL     1      -0.562  11.196  21.993  0.00  0.00    +0.000 NA
ATOM     10  C   UNL     1      -1.157  11.408  20.777  0.00  0.00    +0.000 A 
ATOM     11  C   UNL     1      -2.443  11.896  20.514  0.00  0.00    +0.000 A 
ATOM     12  C   UNL     1      -2.841  12.056  19.186  0.00  0.00    +0.000 A 
ATOM     13  C   UNL     1      -1.958  11.777  18.139  0.00  0.00    +0.000 A 
ATOM     14  C   UNL     1      -0.681  11.245  18.379  0.00  0.00    +0.000 A 
ATOM     15  C   UNL     1      -0.328  11.027  19.717  0.00  0.00    +0.000 A 
ENDBRANCH   4   7
BRANCH   1  20
ATOM     16  O   UNL     1       7.291   6.350  16.235  0.00  0.00    +0.000 OA
ATOM     17  C   UNL     1       6.230   5.858  16.583  0.00  0.00    +0.000 C 
ATOM     18  C   UNL     1       5.179   6.532  17.431  0.00  0.00    +0.000 C 
ATOM     19  N   UNL     1       4.112   5.535  17.457  0.00  0.00    +0.000 N 
ATOM     20  C   UNL     1       2.816   5.679  17.905  0.00  0.00    +0.000 C 
ATOM     21  O   UNL     1       1.963   4.820  17.693  0.00  0.00    +0.000 OA
ATOM     22  C   UNL     1       4.452   4.374  16.684  0.00  0.00    +0.000 C 
ATOM     23  N   UNL     1       5.810   4.576  16.295  0.00  0.00    +0.000 N 
BRANCH  23  24
ATOM     24  C   UNL     1       6.512   3.713  15.355  0.00  0.00    +0.000 C 
BRANCH  24  25
ATOM     25  C   UNL     1       6.282   4.021  13.872  0.00  0.00    +0.000 C 
ATOM     26  F   UNL     1       5.029   4.468  13.627  0.00  0.00    +0.000 F 
ATOM     27  F   UNL     1       7.152   4.946  13.413  0.00  0.00    +0.000 F 
ATOM     28  F   UNL     1       6.455   2.900  13.129  0.00  0.00    +0.000 F 
ENDBRANCH  24  25
ENDBRANCH  23  24
ENDBRANCH   1  20
TORSDOF 4
ENDMDL
MODEL 8
REMARK VINA RESULT:      -8.4      6.105      9.609
REMARK  Name = 
REMARK  4 active torsions:
REMARK  status: ('A' for Active; 'I' for Inactive)
REMARK    1  A    between atoms: C_5  and  C_7
REMARK    2  A    between atoms: C_10  and  N_11
REMARK    3  A    between atoms: N_23  and  C_24
REMARK    4  A    between atoms: C_24  and  C_25
REMARK                            x       y       z     vdW  Elec       q    Type
REMARK                         _______ _______ _______ _____ _____    ______ ____
ROOT
ATOM      1  C   UNL     1       0.182   9.875  19.190  0.00  0.00    +0.000 A 
ATOM      2  C   UNL     1       0.531   9.181  20.350  0.00  0.00    +0.000 A 
ATOM      3  C   UNL     1       1.499   8.180  20.294  0.00  0.00    +0.000 A 
ATOM      4  C   UNL     1       2.140   7.885  19.081  0.00  0.00    +0.000 A 
ATOM      5  C   UNL     1       1.860   8.610  17.928  0.00  0.00    +0.000 A 
ATOM      6  C   UNL     1       0.843   9.574  17.983  0.00  0.00    +0.000 A 
ENDROOT
BRANCH   4   7
ATOM      7  N   UNL     1       2.961   6.738  19.063  0.00  0.00    +0.000 N 
ATOM      8  C   UNL     1       3.930   6.547  18.101  0.00  0.00    +0.000 A 
ATOM      9  N   UNL     1       4.112   5.283  17.817  0.00  0.00    +0.000 NA
ATOM     10  C   UNL     1       3.279   4.620  18.679  0.00  0.00    +0.000 A 
ATOM     11  C   UNL     1       2.974   3.254  18.713  0.00  0.00    +0.000 A 
ATOM     12  C   UNL     1       2.108   2.783  19.702  0.00  0.00    +0.000 A 
ATOM     13  C   UNL     1       1.591   3.652  20.667  0.00  0.00    +0.000 A 
ATOM     14  C   UNL     1       1.848   5.031  20.626  0.00  0.00    +0.000 A 
ATOM     15  C   UNL     1       2.663   5.492  19.584  0.00  0.00    +0.000 A 
ENDBRANCH   4   7
BRANCH   1  20
ATOM     16  O   UNL     1      -3.926  10.062  15.563  0.00  0.00    +0.000 OA
ATOM     17  C   UNL     1      -3.448  10.419  16.628  0.00  0.00    +0.000 C 
ATOM     18  C   UNL     1      -2.184   9.883  17.254  0.00  0.00    +0.000 C 
ATOM     19  N   UNL     1      -2.051  10.713  18.449  0.00  0.00    +0.000 N 
ATOM     20  C   UNL     1      -0.973  10.822  19.300  0.00  0.00    +0.000 C 
ATOM     21  O   UNL     1      -0.917  11.700  20.158  0.00  0.00    +0.000 OA
ATOM     22  C   UNL     1      -3.107  11.681  18.542  0.00  0.00    +0.000 C 
ATOM     23  N   UNL     1      -4.000  11.356  17.477  0.00  0.00    +0.000 N 
BRANCH  23  24
ATOM     24  C   UNL     1      -5.134  12.188  17.098  0.00  0.00    +0.000 C 
BRANCH  24  25
ATOM     25  C   UNL     1      -6.416  11.973  17.910  0.00  0.00    +0.000 C 
ATOM     26  F   UNL     1      -6.321  12.471  19.164  0.00  0.00    +0.000 F 
ATOM     27  F   UNL     1      -7.485  12.545  17.315  0.00  0.00    +0.000 F 
ATOM     28  F   UNL     1      -6.679  10.648  18.028  0.00  0.00    +0.000 F 
ENDBRANCH  24  25
ENDBRANCH  23  24
ENDBRANCH   1  20
TORSDOF 4
ENDMDL
MODEL 9
REMARK VINA RESULT:      -8.4      5.972      9.198
REMARK  Name = 
REMARK  4 active torsions:
REMARK  status: ('A' for Active; 'I' for Inactive)
REMARK    1  A    between atoms: C_5  and  C_7
REMARK    2  A    between atoms: C_10  and  N_11
REMARK    3  A    between atoms: N_23  and  C_24
REMARK    4  A    between atoms: C_24  and  C_25
REMARK                            x       y       z     vdW  Elec       q    Type
REMARK                         _______ _______ _______ _____ _____    ______ ____
ROOT
ATOM      1  C   UNL     1       1.007   9.411  19.031  0.00  0.00    +0.000 A 
ATOM      2  C   UNL     1       1.100   8.834  20.299  0.00  0.00    +0.000 A 
ATOM      3  C   UNL     1       1.855   7.676  20.480  0.00  0.00    +0.000 A 
ATOM      4  C   UNL     1       2.540   7.104  19.398  0.00  0.00    +0.000 A 
ATOM      5  C   UNL     1       2.519   7.699  18.141  0.00  0.00    +0.000 A 
ATOM      6  C   UNL     1       1.710   8.829  17.957  0.00  0.00    +0.000 A 
ENDROOT
BRANCH   4   7
ATOM      7  N   UNL     1       3.119   5.836  19.615  0.00  0.00    +0.000 N 
ATOM      8  C   UNL     1       4.419   5.554  19.256  0.00  0.00    +0.000 A 
ATOM      9  N   UNL     1       4.583   4.303  18.909  0.00  0.00    +0.000 NA
ATOM     10  C   UNL     1       3.356   3.731  19.117  0.00  0.00    +0.000 A 
ATOM     11  C   UNL     1       2.931   2.440  18.778  0.00  0.00    +0.000 A 
ATOM     12  C   UNL     1       1.631   2.053  19.108  0.00  0.00    +0.000 A 
ATOM     13  C   UNL     1       0.785   2.921  19.803  0.00  0.00    +0.000 A 
ATOM     14  C   UNL     1       1.174   4.234  20.114  0.00  0.00    +0.000 A 
ATOM     15  C   UNL     1       2.458   4.624  19.712  0.00  0.00    +0.000 A 
ENDBRANCH   4   7
BRANCH   1  20
ATOM     16  O   UNL     1       2.569  14.665  19.155  0.00  0.00    +0.000 OA
ATOM     17  C   UNL     1       1.697  13.833  18.963  0.00  0.00    +0.000 C 
ATOM     18  C   UNL     1       1.889  12.336  18.951  0.00  0.00    +0.000 C 
ATOM     19  N   UNL     1       0.526  11.847  18.765  0.00  0.00    +0.000 N 
ATOM     20  C   UNL     1       0.055  10.557  18.886  0.00  0.00    +0.000 C 
ATOM     21  O   UNL     1      -1.149  10.310  18.893  0.00  0.00    +0.000 OA
ATOM     22  C   UNL     1      -0.419  12.925  18.696  0.00  0.00    +0.000 C 
ATOM     23  N   UNL     1       0.375  14.111  18.682  0.00  0.00    +0.000 N 
BRANCH  23  24
ATOM     24  C   UNL     1      -0.184  15.452  18.783  0.00  0.00    +0.000 C 
BRANCH  24  25
ATOM     25  C   UNL     1      -0.809  15.811  20.135  0.00  0.00    +0.000 C 
ATOM     26  F   UNL     1      -2.034  15.260  20.299  0.00  0.00    +0.000 F 
ATOM     27  F   UNL     1      -0.033  15.413  21.165  0.00  0.00    +0.000 F 
ATOM     28  F   UNL     1      -0.961  17.154  20.238  0.00  0.00    +0.000 F 
ENDBRANCH  24  25
ENDBRANCH  23  24
ENDBRANCH   1  20
TORSDOF 4
ENDMDL
