MODEL 1
REMARK VINA RESULT:      -8.3      0.000      0.000
REMARK  Name = 
REMARK  3 active torsions:
REMARK  status: ('A' for Active; 'I' for Inactive)
REMARK    1  A    between atoms: C_4  and  C_5
REMARK    2  A    between atoms: N_9  and  C_10
REMARK    3  A    between atoms: C_10  and  C_11
REMARK                            x       y       z     vdW  Elec       q    Type
REMARK                         _______ _______ _______ _____ _____    ______ ____
ROOT
ATOM      1  C   UNL     1       7.068   5.164  17.649  0.00  0.00    +0.000 C 
ATOM      2  C   UNL     1       7.649   4.564  16.368  0.00  0.00    +0.000 C 
ATOM      3  C   UNL     1       6.690   4.639  15.188  0.00  0.00    +0.000 C 
ATOM      4  C   UNL     1       5.305   4.122  15.564  0.00  0.00    +0.000 C 
ATOM      5  N   UNL     1       4.721   4.912  16.661  0.00  0.00    +0.000 NA
ATOM      6  C   UNL     1       5.581   4.849  17.867  0.00  0.00    +0.000 C 
ENDROOT
BRANCH   1  10
ATOM      7  O   UNL     1       9.004   9.201  19.128  0.00  0.00    +0.000 OA
ATOM      8  C   UNL     1       8.436   8.390  18.417  0.00  0.00    +0.000 A 
ATOM      9  N   UNL     1       8.257   7.051  18.681  0.00  0.00    +0.000 NA
ATOM     10  C   UNL     1       7.418   6.631  17.767  0.00  0.00    +0.000 A 
ATOM     11  N   UNL     1       6.978   7.608  16.899  0.00  0.00    +0.000 N 
ATOM     12  N   UNL     1       7.811   8.691  17.220  0.00  0.00    +0.000 N 
ATOM     13  H   UNL     1       6.937   7.339  15.918  0.00  0.00    +0.000 HD
ATOM     14  H   UNL     1       7.472   9.641  17.123  0.00  0.00    +0.000 HD
ENDBRANCH   1  10
BRANCH   5  15
ATOM     15  C   UNL     1       3.369   4.349  16.969  0.00  0.00    +0.000 C 
BRANCH  15  16
ATOM     16  C   UNL     1       2.750   4.904  18.237  0.00  0.00    +0.000 A 
ATOM     17  C   UNL     1       2.561   6.295  18.341  0.00  0.00    +0.000 A 
ATOM     18  C   UNL     1       2.109   6.846  19.527  0.00  0.00    +0.000 A 
ATOM     19  F   UNL     1       1.959   8.173  19.627  0.00  0.00    +0.000 F 
ATOM     20  C   UNL     1       1.818   6.040  20.615  0.00  0.00    +0.000 A 
ATOM     21  C   UNL     1       1.928   4.647  20.499  0.00  0.00    +0.000 A 
ATOM     22  C   UNL     1       1.575   3.815  21.570  0.00  0.00    +0.000 A 
ATOM     23  C   UNL     1       1.639   2.436  21.426  0.00  0.00    +0.000 A 
ATOM     24  C   UNL     1       2.080   1.938  20.218  0.00  0.00    +0.000 A 
ATOM     25  N   UNL     1       2.465   2.711  19.176  0.00  0.00    +0.000 NA
ATOM     26  C   UNL     1       2.387   4.054  19.296  0.00  0.00    +0.000 A 
ENDBRANCH  15  16
ENDBRANCH   5  15
TORSDOF 3
ENDMDL
MODEL 2
REMARK VINA RESULT:      -8.2      1.648      2.659
REMARK  Name = 
REMARK  3 active torsions:
REMARK  status: ('A' for Active; 'I' for Inactive)
REMARK    1  A    between atoms: C_4  and  C_5
REMARK    2  A    between atoms: N_9  and  C_10
REMARK    3  A    between atoms: C_10  and  C_11
REMARK                            x       y       z     vdW  Elec       q    Type
REMARK                         _______ _______ _______ _____ _____    ______ ____
ROOT
ATOM      1  C   UNL     1       7.052   4.932  17.286  0.00  0.00    +0.000 C 
ATOM      2  C   UNL     1       7.394   4.575  15.838  0.00  0.00    +0.000 C 
ATOM      3  C   UNL     1       6.200   4.686  14.901  0.00  0.00    +0.000 C 
ATOM      4  C   UNL     1       4.982   3.962  15.465  0.00  0.00    +0.000 C 
ATOM      5  N   UNL     1       4.580   4.528  16.763  0.00  0.00    +0.000 NA
ATOM      6  C   UNL     1       5.682   4.414  17.747  0.00  0.00    +0.000 C 
ENDROOT
BRANCH   1  10
ATOM      7  O   UNL     1       8.808   8.944  19.032  0.00  0.00    +0.000 OA
ATOM      8  C   UNL     1       8.222   8.169  18.296  0.00  0.00    +0.000 A 
ATOM      9  N   UNL     1       8.199   6.796  18.402  0.00  0.00    +0.000 NA
ATOM     10  C   UNL     1       7.285   6.403  17.551  0.00  0.00    +0.000 A 
ATOM     11  N   UNL     1       6.647   7.425  16.880  0.00  0.00    +0.000 N 
ATOM     12  N   UNL     1       7.418   8.543  17.235  0.00  0.00    +0.000 N 
ATOM     13  H   UNL     1       6.497   7.271  15.884  0.00  0.00    +0.000 HD
ATOM     14  H   UNL     1       6.987   9.457  17.305  0.00  0.00    +0.000 HD
ENDBRANCH   1  10
BRANCH   5  15
ATOM     15  C   UNL     1       3.382   3.772  17.247  0.00  0.00    +0.000 C 
BRANCH  15  16
ATOM     16  C   UNL     1       2.970   4.122  18.664  0.00  0.00    +0.000 A 
ATOM     17  C   UNL     1       2.958   3.102  19.634  0.00  0.00    +0.000 A 
ATOM     18  C   UNL     1       2.477   3.360  20.905  0.00  0.00    +0.000 A 
ATOM     19  F   UNL     1       2.442   2.377  21.813  0.00  0.00    +0.000 F 
ATOM     20  C   UNL     1       2.022   4.623  21.245  0.00  0.00    +0.000 A 
ATOM     21  C   UNL     1       2.100   5.667  20.312  0.00  0.00    +0.000 A 
ATOM     22  C   UNL     1       1.704   6.964  20.662  0.00  0.00    +0.000 A 
ATOM     23  C   UNL     1       1.835   7.999  19.748  0.00  0.00    +0.000 A 
ATOM     24  C   UNL     1       2.336   7.692  18.500  0.00  0.00    +0.000 A 
ATOM     25  N   UNL     1       2.693   6.445  18.115  0.00  0.00    +0.000 NA
ATOM     26  C   UNL     1       2.590   5.433  19.003  0.00  0.00    +0.000 A 
ENDBRANCH  15  16
ENDBRANCH   5  15
TORSDOF 3
ENDMDL
MODEL 3
REMARK VINA RESULT:      -8.2      3.025      4.626
REMARK  Name = 
REMARK  3 active torsions:
REMARK  status: ('A' for Active; 'I' for Inactive)
REMARK    1  A    between atoms: C_4  and  C_5
REMARK    2  A    between atoms: N_9  and  C_10
REMARK    3  A    between atoms: C_10  and  C_11
REMARK                            x       y       z     vdW  Elec       q    Type
REMARK                         _______ _______ _______ _____ _____    ______ ____
ROOT
ATOM      1  C   UNL     1       4.720   4.068  18.755  0.00  0.00    +0.000 C 
ATOM      2  C   UNL     1       3.732   3.183  17.994  0.00  0.00    +0.000 C 
ATOM      3  C   UNL     1       2.502   3.942  17.515  0.00  0.00    +0.000 C 
ATOM      4  C   UNL     1       1.885   4.766  18.640  0.00  0.00    +0.000 C 
ATOM      5  N   UNL     1       2.842   5.757  19.160  0.00  0.00    +0.000 NA
ATOM      6  C   UNL     1       4.053   5.086  19.690  0.00  0.00    +0.000 C 
ENDROOT
BRANCH   1  10
ATOM      7  O   UNL     1       7.704   7.101  16.721  0.00  0.00    +0.000 OA
ATOM      8  C   UNL     1       7.166   6.054  17.039  0.00  0.00    +0.000 A 
ATOM      9  N   UNL     1       6.157   5.897  17.964  0.00  0.00    +0.000 NA
ATOM     10  C   UNL     1       5.749   4.662  17.818  0.00  0.00    +0.000 A 
ATOM     11  N   UNL     1       6.393   3.957  16.823  0.00  0.00    +0.000 N 
ATOM     12  N   UNL     1       7.443   4.821  16.476  0.00  0.00    +0.000 N 
ATOM     13  H   UNL     1       6.649   2.999  17.057  0.00  0.00    +0.000 HD
ATOM     14  H   UNL     1       7.797   4.836  15.527  0.00  0.00    +0.000 HD
ENDBRANCH   1  10
BRANCH   5  15
ATOM     15  C   UNL     1       2.165   6.525  20.253  0.00  0.00    +0.000 C 
BRANCH  15  16
ATOM     16  C   UNL     1       1.734   7.920  19.842  0.00  0.00    +0.000 A 
ATOM     17  C   UNL     1       2.094   8.387  18.564  0.00  0.00    +0.000 A 
ATOM     18  C   UNL     1       1.818   9.693  18.201  0.00  0.00    +0.000 A 
ATOM     19  F   UNL     1       2.190  10.138  16.994  0.00  0.00    +0.000 F 
ATOM     20  C   UNL     1       1.172  10.549  19.077  0.00  0.00    +0.000 A 
ATOM     21  C   UNL     1       0.740  10.074  20.324  0.00  0.00    +0.000 A 
ATOM     22  C   UNL     1       0.028  10.909  21.195  0.00  0.00    +0.000 A 
ATOM     23  C   UNL     1      -0.439  10.413  22.403  0.00  0.00    +0.000 A 
ATOM     24  C   UNL     1      -0.153   9.099  22.709  0.00  0.00    +0.000 A 
ATOM     25  N   UNL     1       0.564   8.275  21.911  0.00  0.00    +0.000 NA
ATOM     26  C   UNL     1       1.005   8.740  20.722  0.00  0.00    +0.000 A 
ENDBRANCH  15  16
ENDBRANCH   5  15
TORSDOF 3
ENDMDL
MODEL 4
REMARK VINA RESULT:      -8.1      3.202      4.858
REMARK  Name = 
REMARK  3 active torsions:
REMARK  status: ('A' for Active; 'I' for Inactive)
REMARK    1  A    between atoms: C_4  and  C_5
REMARK    2  A    between atoms: N_9  and  C_10
REMARK    3  A    between atoms: C_10  and  C_11
REMARK                            x       y       z     vdW  Elec       q    Type
REMARK                         _______ _______ _______ _____ _____    ______ ____
ROOT
ATOM      1  C   UNL     1       4.694   4.480  18.486  0.00  0.00    +0.000 C 
ATOM      2  C   UNL     1       3.770   3.336  18.064  0.00  0.00    +0.000 C 
ATOM      3  C   UNL     1       2.340   3.790  17.810  0.00  0.00    +0.000 C 
ATOM      4  C   UNL     1       1.815   4.641  18.961  0.00  0.00    +0.000 C 
ATOM      5  N   UNL     1       2.636   5.849  19.148  0.00  0.00    +0.000 NA
ATOM      6  C   UNL     1       4.042   5.485  19.447  0.00  0.00    +0.000 C 
ENDROOT
BRANCH   1  10
ATOM      7  O   UNL     1       7.652   5.242  14.894  0.00  0.00    +0.000 OA
ATOM      8  C   UNL     1       6.665   5.310  15.606  0.00  0.00    +0.000 A 
ATOM      9  N   UNL     1       6.407   4.552  16.727  0.00  0.00    +0.000 NA
ATOM     10  C   UNL     1       5.362   5.110  17.283  0.00  0.00    +0.000 A 
ATOM     11  N   UNL     1       4.893   6.232  16.633  0.00  0.00    +0.000 N 
ATOM     12  N   UNL     1       5.632   6.216  15.439  0.00  0.00    +0.000 N 
ATOM     13  H   UNL     1       3.881   6.297  16.542  0.00  0.00    +0.000 HD
ATOM     14  H   UNL     1       5.875   7.085  14.979  0.00  0.00    +0.000 HD
ENDBRANCH   1  10
BRANCH   5  15
ATOM     15  C   UNL     1       2.059   6.631  20.287  0.00  0.00    +0.000 C 
BRANCH  15  16
ATOM     16  C   UNL     1       1.643   8.040  19.912  0.00  0.00    +0.000 A 
ATOM     17  C   UNL     1       1.989   8.528  18.639  0.00  0.00    +0.000 A 
ATOM     18  C   UNL     1       1.728   9.846  18.307  0.00  0.00    +0.000 A 
ATOM     19  F   UNL     1       2.087  10.310  17.104  0.00  0.00    +0.000 F 
ATOM     20  C   UNL     1       1.109  10.693  19.211  0.00  0.00    +0.000 A 
ATOM     21  C   UNL     1       0.690  10.198  20.454  0.00  0.00    +0.000 A 
ATOM     22  C   UNL     1       0.004  11.025  21.354  0.00  0.00    +0.000 A 
ATOM     23  C   UNL     1      -0.451  10.511  22.559  0.00  0.00    +0.000 A 
ATOM     24  C   UNL     1      -0.180   9.187  22.834  0.00  0.00    +0.000 A 
ATOM     25  N   UNL     1       0.511   8.369  22.007  0.00  0.00    +0.000 NA
ATOM     26  C   UNL     1       0.941   8.852  20.821  0.00  0.00    +0.000 A 
ENDBRANCH  15  16
ENDBRANCH   5  15
TORSDOF 3
ENDMDL
MODEL 5
REMARK VINA RESULT:      -7.7      3.171      4.314
REMARK  Name = 
REMARK  3 active torsions:
REMARK  status: ('A' for Active; 'I' for Inactive)
REMARK    1  A    between atoms: C_4  and  C_5
REMARK    2  A    between atoms: N_9  and  C_10
REMARK    3  A    between atoms: C_10  and  C_11
REMARK                            x       y       z     vdW  Elec       q    Type
REMARK                         _______ _______ _______ _____ _____    ______ ____
ROOT
ATOM      1  C   UNL     1       6.004   5.642  15.654  0.00  0.00    +0.000 C 
ATOM      2  C   UNL     1       6.966   5.632  16.843  0.00  0.00    +0.000 C 
ATOM      3  C   UNL     1       6.853   4.372  17.688  0.00  0.00    +0.000 C 
ATOM      4  C   UNL     1       5.401   4.067  18.040  0.00  0.00    +0.000 C 
ATOM      5  N   UNL     1       4.591   3.861  16.828  0.00  0.00    +0.000 NA
ATOM      6  C   UNL     1       4.615   5.070  15.972  0.00  0.00    +0.000 C 
ENDROOT
BRANCH   1  10
ATOM      7  O   UNL     1       6.796   2.960  11.856  0.00  0.00    +0.000 OA
ATOM      8  C   UNL     1       6.874   3.881  12.651  0.00  0.00    +0.000 A 
ATOM      9  N   UNL     1       6.080   4.078  13.759  0.00  0.00    +0.000 NA
ATOM     10  C   UNL     1       6.656   5.048  14.424  0.00  0.00    +0.000 A 
ATOM     11  N   UNL     1       7.824   5.518  13.860  0.00  0.00    +0.000 N 
ATOM     12  N   UNL     1       7.828   4.882  12.608  0.00  0.00    +0.000 N 
ATOM     13  H   UNL     1       7.935   6.530  13.858  0.00  0.00    +0.000 HD
ATOM     14  H   UNL     1       8.706   4.640  12.164  0.00  0.00    +0.000 HD
ENDBRANCH   1  10
BRANCH   5  15
ATOM     15  C   UNL     1       3.187   3.564  17.254  0.00  0.00    +0.000 C 
BRANCH  15  16
ATOM     16  C   UNL     1       2.889   3.954  18.689  0.00  0.00    +0.000 A 
ATOM     17  C   UNL     1       2.938   2.957  19.682  0.00  0.00    +0.000 A 
ATOM     18  C   UNL     1       2.559   3.252  20.979  0.00  0.00    +0.000 A 
ATOM     19  F   UNL     1       2.582   2.291  21.911  0.00  0.00    +0.000 F 
ATOM     20  C   UNL     1       2.146   4.529  21.322  0.00  0.00    +0.000 A 
ATOM     21  C   UNL     1       2.166   5.549  20.360  0.00  0.00    +0.000 A 
ATOM     22  C   UNL     1       1.813   6.860  20.707  0.00  0.00    +0.000 A 
ATOM     23  C   UNL     1       1.886   7.871  19.760  0.00  0.00    +0.000 A 
ATOM     24  C   UNL     1       2.286   7.527  18.486  0.00  0.00    +0.000 A 
ATOM     25  N   UNL     1       2.597   6.267  18.105  0.00  0.00    +0.000 NA
ATOM     26  C   UNL     1       2.551   5.278  19.024  0.00  0.00    +0.000 A 
ENDBRANCH  15  16
ENDBRANCH   5  15
TORSDOF 3
ENDMDL
MODEL 6
REMARK VINA RESULT:      -7.6      5.442      7.523
REMARK  Name = 
REMARK  3 active torsions:
REMARK  status: ('A' for Active; 'I' for Inactive)
REMARK    1  A    between atoms: C_4  and  C_5
REMARK    2  A    between atoms: N_9  and  C_10
REMARK    3  A    between atoms: C_10  and  C_11
REMARK                            x       y       z     vdW  Elec       q    Type
REMARK                         _______ _______ _______ _____ _____    ______ ____
ROOT
ATOM      1  C   UNL     1      -1.152  11.061  19.277  0.00  0.00    +0.000 C 
ATOM      2  C   UNL     1      -0.265  12.285  19.506  0.00  0.00    +0.000 C 
ATOM      3  C   UNL     1       1.211  12.004  19.257  0.00  0.00    +0.000 C 
ATOM      4  C   UNL     1       1.665  10.742  19.982  0.00  0.00    +0.000 C 
ATOM      5  N   UNL     1       0.908   9.565  19.527  0.00  0.00    +0.000 NA
ATOM      6  C   UNL     1      -0.542   9.746  19.780  0.00  0.00    +0.000 C 
ENDROOT
BRANCH   1  10
ATOM      7  O   UNL     1      -2.952   9.486  15.212  0.00  0.00    +0.000 OA
ATOM      8  C   UNL     1      -2.589  10.250  16.091  0.00  0.00    +0.000 A 
ATOM      9  N   UNL     1      -2.118   9.901  17.337  0.00  0.00    +0.000 NA
ATOM     10  C   UNL     1      -1.650  11.012  17.848  0.00  0.00    +0.000 A 
ATOM     11  N   UNL     1      -1.739  12.110  17.018  0.00  0.00    +0.000 N 
ATOM     12  N   UNL     1      -2.536  11.626  15.969  0.00  0.00    +0.000 N 
ATOM     13  H   UNL     1      -2.044  12.974  17.463  0.00  0.00    +0.000 HD
ATOM     14  H   UNL     1      -2.412  11.984  15.029  0.00  0.00    +0.000 HD
ENDBRANCH   1  10
BRANCH   5  15
ATOM     15  C   UNL     1       1.412   8.371  20.278  0.00  0.00    +0.000 C 
BRANCH  15  16
ATOM     16  C   UNL     1       2.225   7.413  19.428  0.00  0.00    +0.000 A 
ATOM     17  C   UNL     1       2.875   7.914  18.285  0.00  0.00    +0.000 A 
ATOM     18  C   UNL     1       3.528   7.049  17.425  0.00  0.00    +0.000 A 
ATOM     19  F   UNL     1       4.120   7.530  16.325  0.00  0.00    +0.000 F 
ATOM     20  C   UNL     1       3.567   5.690  17.686  0.00  0.00    +0.000 A 
ATOM     21  C   UNL     1       2.989   5.189  18.861  0.00  0.00    +0.000 A 
ATOM     22  C   UNL     1       3.077   3.825  19.170  0.00  0.00    +0.000 A 
ATOM     23  C   UNL     1       2.547   3.349  20.361  0.00  0.00    +0.000 A 
ATOM     24  C   UNL     1       1.922   4.256  21.191  0.00  0.00    +0.000 A 
ATOM     25  N   UNL     1       1.785   5.571  20.907  0.00  0.00    +0.000 NA
ATOM     26  C   UNL     1       2.316   6.050  19.762  0.00  0.00    +0.000 A 
ENDBRANCH  15  16
ENDBRANCH   5  15
TORSDOF 3
ENDMDL
MODEL 7
REMARK VINA RESULT:      -7.5      3.322      5.533
REMARK  Name = 
REMARK  3 active torsions:
REMARK  status: ('A' for Active; 'I' for Inactive)
REMARK    1  A    between atoms: C_4  and  C_5
REMARK    2  A    between atoms: N_9  and  C_10
REMARK    3  A    between atoms: C_10  and  C_11
REMARK                            x       y       z     vdW  Elec       q    Type
REMARK                         _______ _______ _______ _____ _____    ______ ____
ROOT
ATOM      1  C   UNL     1       3.692   3.352  19.722  0.00  0.00    +0.000 C 
ATOM      2  C   UNL     1       2.509   2.449  19.370  0.00  0.00    +0.000 C 
ATOM      3  C   UNL     1       1.276   3.227  18.931  0.00  0.00    +0.000 C 
ATOM      4  C   UNL     1       0.951   4.350  19.911  0.00  0.00    +0.000 C 
ATOM      5  N   UNL     1       2.066   5.307  20.012  0.00  0.00    +0.000 NA
ATOM      6  C   UNL     1       3.297   4.627  20.481  0.00  0.00    +0.000 C 
ENDROOT
BRANCH   1  10
ATOM      7  O   UNL     1       5.086   4.203  15.298  0.00  0.00    +0.000 OA
ATOM      8  C   UNL     1       5.108   4.106  16.513  0.00  0.00    +0.000 A 
ATOM      9  N   UNL     1       4.043   3.803  17.332  0.00  0.00    +0.000 NA
ATOM     10  C   UNL     1       4.569   3.593  18.512  0.00  0.00    +0.000 A 
ATOM     11  N   UNL     1       5.943   3.700  18.558  0.00  0.00    +0.000 N 
ATOM     12  N   UNL     1       6.243   4.234  17.294  0.00  0.00    +0.000 N 
ATOM     13  H   UNL     1       6.319   4.197  19.364  0.00  0.00    +0.000 HD
ATOM     14  H   UNL     1       7.121   4.008  16.842  0.00  0.00    +0.000 HD
ENDBRANCH   1  10
BRANCH   5  15
ATOM     15  C   UNL     1       1.672   6.376  20.984  0.00  0.00    +0.000 C 
BRANCH  15  16
ATOM     16  C   UNL     1       1.416   7.724  20.338  0.00  0.00    +0.000 A 
ATOM     17  C   UNL     1       1.852   7.931  19.016  0.00  0.00    +0.000 A 
ATOM     18  C   UNL     1       1.739   9.183  18.438  0.00  0.00    +0.000 A 
ATOM     19  F   UNL     1       2.182   9.378  17.190  0.00  0.00    +0.000 F 
ATOM     20  C   UNL     1       1.182  10.238  19.140  0.00  0.00    +0.000 A 
ATOM     21  C   UNL     1       0.674  10.026  20.430  0.00  0.00    +0.000 A 
ATOM     22  C   UNL     1       0.049  11.068  21.128  0.00  0.00    +0.000 A 
ATOM     23  C   UNL     1      -0.496  10.833  22.382  0.00  0.00    +0.000 A 
ATOM     24  C   UNL     1      -0.372   9.563  22.906  0.00  0.00    +0.000 A 
ATOM     25  N   UNL     1       0.258   8.544  22.278  0.00  0.00    +0.000 NA
ATOM     26  C   UNL     1       0.773   8.754  21.047  0.00  0.00    +0.000 A 
ENDBRANCH  15  16
ENDBRANCH   5  15
TORSDOF 3
ENDMDL
MODEL 8
REMARK VINA RESULT:      -7.4      3.162      6.332
REMARK  Name = 
REMARK  3 active torsions:
REMARK  status: ('A' for Active; 'I' for Inactive)
REMARK    1  A    between atoms: C_4  and  C_5
REMARK    2  A    between atoms: N_9  and  C_10
REMARK    3  A    between atoms: C_10  and  C_11
REMARK                            x       y       z     vdW  Elec       q    Type
REMARK                         _______ _______ _______ _____ _____    ______ ____
ROOT
ATOM      1  C   UNL     1       1.326   4.449  19.829  0.00  0.00    +0.000 C 
ATOM      2  C   UNL     1       1.178   3.563  21.068  0.00  0.00    +0.000 C 
ATOM      3  C   UNL     1       2.513   3.083  21.618  0.00  0.00    +0.000 C 
ATOM      4  C   UNL     1       3.389   2.497  20.516  0.00  0.00    +0.000 C 
ATOM      5  N   UNL     1       3.674   3.497  19.474  0.00  0.00    +0.000 NA
ATOM      6  C   UNL     1       2.417   3.981  18.856  0.00  0.00    +0.000 C 
ENDROOT
BRANCH   1  10
ATOM      7  O   UNL     1       0.276   8.686  21.614  0.00  0.00    +0.000 OA
ATOM      8  C   UNL     1       0.921   7.755  21.162  0.00  0.00    +0.000 A 
ATOM      9  N   UNL     1       0.450   6.493  20.874  0.00  0.00    +0.000 NA
ATOM     10  C   UNL     1       1.419   5.909  20.215  0.00  0.00    +0.000 A 
ATOM     11  N   UNL     1       2.527   6.701  20.000  0.00  0.00    +0.000 N 
ATOM     12  N   UNL     1       2.255   7.821  20.802  0.00  0.00    +0.000 N 
ATOM     13  H   UNL     1       3.428   6.246  20.143  0.00  0.00    +0.000 HD
ATOM     14  H   UNL     1       2.597   8.735  20.532  0.00  0.00    +0.000 HD
ENDBRANCH   1  10
BRANCH   5  15
ATOM     15  C   UNL     1       4.537   2.851  18.435  0.00  0.00    +0.000 C 
BRANCH  15  16
ATOM     16  C   UNL     1       5.146   3.831  17.450  0.00  0.00    +0.000 A 
ATOM     17  C   UNL     1       4.749   3.763  16.102  0.00  0.00    +0.000 A 
ATOM     18  C   UNL     1       5.368   4.562  15.157  0.00  0.00    +0.000 A 
ATOM     19  F   UNL     1       5.005   4.472  13.872  0.00  0.00    +0.000 F 
ATOM     20  C   UNL     1       6.367   5.448  15.526  0.00  0.00    +0.000 A 
ATOM     21  C   UNL     1       6.717   5.580  16.877  0.00  0.00    +0.000 A 
ATOM     22  C   UNL     1       7.680   6.518  17.273  0.00  0.00    +0.000 A 
ATOM     23  C   UNL     1       7.981   6.675  18.618  0.00  0.00    +0.000 A 
ATOM     24  C   UNL     1       7.323   5.866  19.521  0.00  0.00    +0.000 A 
ATOM     25  N   UNL     1       6.417   4.925  19.172  0.00  0.00    +0.000 NA
ATOM     26  C   UNL     1       6.099   4.777  17.867  0.00  0.00    +0.000 A 
ENDBRANCH  15  16
ENDBRANCH   5  15
TORSDOF 3
ENDMDL
MODEL 9
REMARK VINA RESULT:      -7.4      8.421     11.118
REMARK  Name = 
REMARK  3 active torsions:
REMARK  status: ('A' for Active; 'I' for Inactive)
REMARK    1  A    between atoms: C_4  and  C_5
REMARK    2  A    between atoms: N_9  and  C_10
REMARK    3  A    between atoms: C_10  and  C_11
REMARK                            x       y       z     vdW  Elec       q    Type
REMARK                         _______ _______ _______ _____ _____    ______ ____
ROOT
ATOM      1  C   UNL     1      -5.525  12.246  18.599  0.00  0.00    +0.000 C 
ATOM      2  C   UNL     1      -5.481  11.838  17.126  0.00  0.00    +0.000 C 
ATOM      3  C   UNL     1      -4.307  10.927  16.796  0.00  0.00    +0.000 C 
ATOM      4  C   UNL     1      -2.998  11.490  17.341  0.00  0.00    +0.000 C 
ATOM      5  N   UNL     1      -3.050  11.633  18.806  0.00  0.00    +0.000 NA
ATOM      6  C   UNL     1      -4.146  12.548  19.203  0.00  0.00    +0.000 C 
ENDROOT
BRANCH   1  10
ATOM      7  O   UNL     1      -7.626   8.287  20.063  0.00  0.00    +0.000 OA
ATOM      8  C   UNL     1      -7.169   9.417  20.070  0.00  0.00    +0.000 A 
ATOM      9  N   UNL     1      -6.450  10.017  19.060  0.00  0.00    +0.000 NA
ATOM     10  C   UNL     1      -6.361  11.276  19.405  0.00  0.00    +0.000 A 
ATOM     11  N   UNL     1      -7.004  11.597  20.583  0.00  0.00    +0.000 N 
ATOM     12  N   UNL     1      -7.343  10.333  21.092  0.00  0.00    +0.000 N 
ATOM     13  H   UNL     1      -6.493  12.218  21.208  0.00  0.00    +0.000 HD
ATOM     14  H   UNL     1      -8.177  10.218  21.654  0.00  0.00    +0.000 HD
ENDBRANCH   1  10
BRANCH   5  15
ATOM     15  C   UNL     1      -1.735  12.184  19.264  0.00  0.00    +0.000 C 
BRANCH  15  16
ATOM     16  C   UNL     1      -0.676  11.123  19.499  0.00  0.00    +0.000 A 
ATOM     17  C   UNL     1       0.082  10.675  18.401  0.00  0.00    +0.000 A 
ATOM     18  C   UNL     1       0.973   9.628  18.557  0.00  0.00    +0.000 A 
ATOM     19  F   UNL     1       1.670   9.189  17.501  0.00  0.00    +0.000 F 
ATOM     20  C   UNL     1       1.145   9.024  19.790  0.00  0.00    +0.000 A 
ATOM     21  C   UNL     1       0.452   9.512  20.907  0.00  0.00    +0.000 A 
ATOM     22  C   UNL     1       0.664   8.952  22.175  0.00  0.00    +0.000 A 
ATOM     23  C   UNL     1       0.012   9.477  23.281  0.00  0.00    +0.000 A 
ATOM     24  C   UNL     1      -0.853  10.531  23.075  0.00  0.00    +0.000 A 
ATOM     25  N   UNL     1      -1.110  11.072  21.861  0.00  0.00    +0.000 NA
ATOM     26  C   UNL     1      -0.465  10.584  20.780  0.00  0.00    +0.000 A 
ENDBRANCH  15  16
ENDBRANCH   5  15
TORSDOF 3
ENDMDL
