MODEL 1
REMARK VINA RESULT:      -8.1      0.000      0.000
REMARK  Name = 
REMARK  2 active torsions:
REMARK  status: ('A' for Active; 'I' for Inactive)
REMARK    1  A    between atoms: C_2  and  C_3
REMARK    2  A    between atoms: C_16  and  C_17
REMARK                            x       y       z     vdW  Elec       q    Type
REMARK                         _______ _______ _______ _____ _____    ______ ____
ROOT
ATOM      1  O   UNL     1       2.053   8.731  17.253  0.00  0.00    +0.000 OA
ATOM      2  C   UNL     1       2.141   8.269  18.398  0.00  0.00    +0.000 C 
ATOM      3  N   UNL     1       1.716   9.006  19.490  0.00  0.00    +0.000 N 
ATOM      4  C   UNL     1       1.108  10.295  19.219  0.00  0.00    +0.000 C 
ATOM      5  C   UNL     1       0.913  10.989  20.573  0.00  0.00    +0.000 C 
ATOM      6  C   UNL     1       1.206   9.905  21.643  0.00  0.00    +0.000 C 
ATOM      7  C   UNL     1       0.149   9.532  22.677  0.00  0.00    +0.000 C 
ATOM      8  C   UNL     1      -0.721   8.483  22.008  0.00  0.00    +0.000 C 
ATOM      9  C   UNL     1       0.201   7.734  21.051  0.00  0.00    +0.000 C 
ATOM     10  C   UNL     1       1.454   8.605  20.866  0.00  0.00    +0.000 C 
ENDROOT
BRANCH   2  11
ATOM     11  C   UNL     1       2.709   6.888  18.573  0.00  0.00    +0.000 A 
ATOM     12  C   UNL     1       1.942   5.849  18.198  0.00  0.00    +0.000 A 
ATOM     13  C   UNL     1       2.463   4.483  18.301  0.00  0.00    +0.000 A 
ATOM     14  C   UNL     1       1.707   3.384  17.883  0.00  0.00    +0.000 A 
ATOM     15  C   UNL     1       2.233   2.091  17.991  0.00  0.00    +0.000 A 
ATOM     16  C   UNL     1       3.508   1.889  18.518  0.00  0.00    +0.000 A 
ATOM     17  C   UNL     1       4.272   2.979  18.934  0.00  0.00    +0.000 A 
ATOM     18  C   UNL     1       3.748   4.268  18.817  0.00  0.00    +0.000 A 
ATOM     19  C   UNL     1       4.569   5.443  19.196  0.00  0.00    +0.000 A 
ATOM     20  O   UNL     1       5.714   5.329  19.628  0.00  0.00    +0.000 OA
ATOM     21  N   UNL     1       3.990   6.676  19.016  0.00  0.00    +0.000 N 
ATOM     22  H   UNL     1       4.615   7.455  19.146  0.00  0.00    +0.000 HD
ENDBRANCH   2  11
BRANCH   5  23
ATOM     23  C   UNL     1      -0.366  11.769  20.780  0.00  0.00    +0.000 A 
ATOM     24  C   UNL     1      -0.489  12.779  21.743  0.00  0.00    +0.000 A 
ATOM     25  C   UNL     1      -1.620  13.598  21.780  0.00  0.00    +0.000 A 
ATOM     26  C   UNL     1      -2.649  13.405  20.865  0.00  0.00    +0.000 A 
ATOM     27  C   UNL     1      -2.568  12.373  19.933  0.00  0.00    +0.000 A 
ATOM     28  C   UNL     1      -1.436  11.558  19.895  0.00  0.00    +0.000 A 
ENDBRANCH   5  23
TORSDOF 2
ENDMDL
MODEL 2
REMARK VINA RESULT:      -7.8      0.624      1.103
REMARK  Name = 
REMARK  2 active torsions:
REMARK  status: ('A' for Active; 'I' for Inactive)
REMARK    1  A    between atoms: C_2  and  C_3
REMARK    2  A    between atoms: C_16  and  C_17
REMARK                            x       y       z     vdW  Elec       q    Type
REMARK                         _______ _______ _______ _____ _____    ______ ____
ROOT
ATOM      1  O   UNL     1       1.852   9.191  17.173  0.00  0.00    +0.000 OA
ATOM      2  C   UNL     1       2.007   8.630  18.266  0.00  0.00    +0.000 C 
ATOM      3  N   UNL     1       1.626   9.257  19.440  0.00  0.00    +0.000 N 
ATOM      4  C   UNL     1       0.983  10.552  19.318  0.00  0.00    +0.000 C 
ATOM      5  C   UNL     1       0.846  11.117  20.737  0.00  0.00    +0.000 C 
ATOM      6  C   UNL     1       1.212   9.949  21.688  0.00  0.00    +0.000 C 
ATOM      7  C   UNL     1       0.216   9.461  22.735  0.00  0.00    +0.000 C 
ATOM      8  C   UNL     1      -0.669   8.458  22.018  0.00  0.00    +0.000 C 
ATOM      9  C   UNL     1       0.214   7.818  20.953  0.00  0.00    +0.000 C 
ATOM     10  C   UNL     1       1.442   8.729  20.786  0.00  0.00    +0.000 C 
ENDROOT
BRANCH   2  11
ATOM     11  C   UNL     1       2.606   7.251  18.287  0.00  0.00    +0.000 A 
ATOM     12  C   UNL     1       1.764   6.206  18.208  0.00  0.00    +0.000 A 
ATOM     13  C   UNL     1       2.295   4.841  18.175  0.00  0.00    +0.000 A 
ATOM     14  C   UNL     1       1.449   3.735  18.053  0.00  0.00    +0.000 A 
ATOM     15  C   UNL     1       1.986   2.443  18.022  0.00  0.00    +0.000 A 
ATOM     16  C   UNL     1       3.364   2.248  18.116  0.00  0.00    +0.000 A 
ATOM     17  C   UNL     1       4.218   3.346  18.234  0.00  0.00    +0.000 A 
ATOM     18  C   UNL     1       3.679   4.634  18.256  0.00  0.00    +0.000 A 
ATOM     19  C   UNL     1       4.573   5.814  18.317  0.00  0.00    +0.000 A 
ATOM     20  O   UNL     1       5.797   5.706  18.360  0.00  0.00    +0.000 OA
ATOM     21  N   UNL     1       3.962   7.044  18.299  0.00  0.00    +0.000 N 
ATOM     22  H   UNL     1       4.593   7.824  18.200  0.00  0.00    +0.000 HD
ENDBRANCH   2  11
BRANCH   5  23
ATOM     23  C   UNL     1      -0.434  11.847  21.076  0.00  0.00    +0.000 A 
ATOM     24  C   UNL     1      -1.555  11.839  20.236  0.00  0.00    +0.000 A 
ATOM     25  C   UNL     1      -2.775  12.367  20.666  0.00  0.00    +0.000 A 
ATOM     26  C   UNL     1      -2.883  12.926  21.934  0.00  0.00    +0.000 A 
ATOM     27  C   UNL     1      -1.766  12.989  22.764  0.00  0.00    +0.000 A 
ATOM     28  C   UNL     1      -0.550  12.458  22.336  0.00  0.00    +0.000 A 
ENDBRANCH   5  23
TORSDOF 2
ENDMDL
MODEL 3
REMARK VINA RESULT:      -7.2      1.112      1.194
REMARK  Name = 
REMARK  2 active torsions:
REMARK  status: ('A' for Active; 'I' for Inactive)
REMARK    1  A    between atoms: C_2  and  C_3
REMARK    2  A    between atoms: C_16  and  C_17
REMARK                            x       y       z     vdW  Elec       q    Type
REMARK                         _______ _______ _______ _____ _____    ______ ____
ROOT
ATOM      1  O   UNL     1       1.844   8.827  17.365  0.00  0.00    +0.000 OA
ATOM      2  C   UNL     1       1.992   8.449  18.535  0.00  0.00    +0.000 C 
ATOM      3  N   UNL     1       1.561   9.237  19.589  0.00  0.00    +0.000 N 
ATOM      4  C   UNL     1       0.876  10.470  19.254  0.00  0.00    +0.000 C 
ATOM      5  C   UNL     1       0.685  11.244  20.564  0.00  0.00    +0.000 C 
ATOM      6  C   UNL     1       1.070  10.253  21.693  0.00  0.00    +0.000 C 
ATOM      7  C   UNL     1       0.066   9.896  22.786  0.00  0.00    +0.000 C 
ATOM      8  C   UNL     1      -0.765   8.760  22.219  0.00  0.00    +0.000 C 
ATOM      9  C   UNL     1       0.167   7.997  21.283  0.00  0.00    +0.000 C 
ATOM     10  C   UNL     1       1.364   8.918  20.997  0.00  0.00    +0.000 C 
ENDROOT
BRANCH   2  11
ATOM     11  C   UNL     1       2.640   7.115  18.783  0.00  0.00    +0.000 A 
ATOM     12  C   UNL     1       2.081   6.315  19.707  0.00  0.00    +0.000 A 
ATOM     13  C   UNL     1       2.640   4.984  19.955  0.00  0.00    +0.000 A 
ATOM     14  C   UNL     1       2.058   4.112  20.880  0.00  0.00    +0.000 A 
ATOM     15  C   UNL     1       2.615   2.845  21.093  0.00  0.00    +0.000 A 
ATOM     16  C   UNL     1       3.752   2.446  20.392  0.00  0.00    +0.000 A 
ATOM     17  C   UNL     1       4.338   3.307  19.463  0.00  0.00    +0.000 A 
ATOM     18  C   UNL     1       3.775   4.566  19.247  0.00  0.00    +0.000 A 
ATOM     19  C   UNL     1       4.347   5.470  18.219  0.00  0.00    +0.000 A 
ATOM     20  O   UNL     1       5.322   5.156  17.541  0.00  0.00    +0.000 OA
ATOM     21  N   UNL     1       3.710   6.675  18.046  0.00  0.00    +0.000 N 
ATOM     22  H   UNL     1       4.030   7.206  17.251  0.00  0.00    +0.000 HD
ENDBRANCH   2  11
BRANCH   5  23
ATOM     23  C   UNL     1      -0.628  11.968  20.762  0.00  0.00    +0.000 A 
ATOM     24  C   UNL     1      -0.787  13.007  21.688  0.00  0.00    +0.000 A 
ATOM     25  C   UNL     1      -1.957  13.771  21.713  0.00  0.00    +0.000 A 
ATOM     26  C   UNL     1      -2.988  13.494  20.822  0.00  0.00    +0.000 A 
ATOM     27  C   UNL     1      -2.868  12.432  19.928  0.00  0.00    +0.000 A 
ATOM     28  C   UNL     1      -1.698  11.673  19.902  0.00  0.00    +0.000 A 
ENDBRANCH   5  23
TORSDOF 2
ENDMDL
MODEL 4
REMARK VINA RESULT:      -7.1      2.353      4.609
REMARK  Name = 
REMARK  2 active torsions:
REMARK  status: ('A' for Active; 'I' for Inactive)
REMARK    1  A    between atoms: C_2  and  C_3
REMARK    2  A    between atoms: C_16  and  C_17
REMARK                            x       y       z     vdW  Elec       q    Type
REMARK                         _______ _______ _______ _____ _____    ______ ____
ROOT
ATOM      1  O   UNL     1       0.620   9.623  23.343  0.00  0.00    +0.000 OA
ATOM      2  C   UNL     1       0.258   9.934  22.200  0.00  0.00    +0.000 C 
ATOM      3  N   UNL     1      -0.742  10.872  22.009  0.00  0.00    +0.000 N 
ATOM      4  C   UNL     1      -1.283  11.510  23.194  0.00  0.00    +0.000 C 
ATOM      5  C   UNL     1      -2.492  12.339  22.741  0.00  0.00    +0.000 C 
ATOM      6  C   UNL     1      -2.440  12.338  21.191  0.00  0.00    +0.000 C 
ATOM      7  C   UNL     1      -2.364  13.651  20.418  0.00  0.00    +0.000 C 
ATOM      8  C   UNL     1      -0.889  14.004  20.359  0.00  0.00    +0.000 C 
ATOM      9  C   UNL     1      -0.148  12.671  20.347  0.00  0.00    +0.000 C 
ATOM     10  C   UNL     1      -1.148  11.601  20.814  0.00  0.00    +0.000 C 
ENDROOT
BRANCH   2  11
ATOM     11  C   UNL     1       0.936   9.279  21.029  0.00  0.00    +0.000 A 
ATOM     12  C   UNL     1       1.312   7.995  21.167  0.00  0.00    +0.000 A 
ATOM     13  C   UNL     1       1.932   7.291  20.043  0.00  0.00    +0.000 A 
ATOM     14  C   UNL     1       2.298   5.945  20.141  0.00  0.00    +0.000 A 
ATOM     15  C   UNL     1       2.887   5.299  19.047  0.00  0.00    +0.000 A 
ATOM     16  C   UNL     1       3.117   5.990  17.858  0.00  0.00    +0.000 A 
ATOM     17  C   UNL     1       2.753   7.332  17.748  0.00  0.00    +0.000 A 
ATOM     18  C   UNL     1       2.157   7.971  18.838  0.00  0.00    +0.000 A 
ATOM     19  C   UNL     1       1.706   9.378  18.719  0.00  0.00    +0.000 A 
ATOM     20  O   UNL     1       1.845  10.025  17.684  0.00  0.00    +0.000 OA
ATOM     21  N   UNL     1       1.098   9.919  19.827  0.00  0.00    +0.000 N 
ATOM     22  H   UNL     1       0.678  10.822  19.674  0.00  0.00    +0.000 HD
ENDBRANCH   2  11
BRANCH   5  23
ATOM     23  C   UNL     1      -2.684  13.697  23.378  0.00  0.00    +0.000 A 
ATOM     24  C   UNL     1      -3.946  14.285  23.538  0.00  0.00    +0.000 A 
ATOM     25  C   UNL     1      -4.102  15.451  24.293  0.00  0.00    +0.000 A 
ATOM     26  C   UNL     1      -2.995  16.050  24.883  0.00  0.00    +0.000 A 
ATOM     27  C   UNL     1      -1.726  15.508  24.694  0.00  0.00    +0.000 A 
ATOM     28  C   UNL     1      -1.572  14.342  23.942  0.00  0.00    +0.000 A 
ENDBRANCH   5  23
TORSDOF 2
ENDMDL
MODEL 5
REMARK VINA RESULT:      -7.0      1.528      1.972
REMARK  Name = 
REMARK  2 active torsions:
REMARK  status: ('A' for Active; 'I' for Inactive)
REMARK    1  A    between atoms: C_2  and  C_3
REMARK    2  A    between atoms: C_16  and  C_17
REMARK                            x       y       z     vdW  Elec       q    Type
REMARK                         _______ _______ _______ _____ _____    ______ ____
ROOT
ATOM      1  O   UNL     1       1.477   9.795  17.432  0.00  0.00    +0.000 OA
ATOM      2  C   UNL     1       1.734   9.217  18.496  0.00  0.00    +0.000 C 
ATOM      3  N   UNL     1       1.337   9.760  19.706  0.00  0.00    +0.000 N 
ATOM      4  C   UNL     1       0.557  10.983  19.656  0.00  0.00    +0.000 C 
ATOM      5  C   UNL     1       0.420  11.483  21.100  0.00  0.00    +0.000 C 
ATOM      6  C   UNL     1       0.945  10.328  21.992  0.00  0.00    +0.000 C 
ATOM      7  C   UNL     1       0.049   9.702  23.056  0.00  0.00    +0.000 C 
ATOM      8  C   UNL     1      -0.754   8.635  22.335  0.00  0.00    +0.000 C 
ATOM      9  C   UNL     1       0.148   8.129  21.214  0.00  0.00    +0.000 C 
ATOM     10  C   UNL     1       1.265   9.170  21.036  0.00  0.00    +0.000 C 
ENDROOT
BRANCH   2  11
ATOM     11  C   UNL     1       2.476   7.910  18.443  0.00  0.00    +0.000 A 
ATOM     12  C   UNL     1       3.320   7.717  17.415  0.00  0.00    +0.000 A 
ATOM     13  C   UNL     1       4.106   6.483  17.337  0.00  0.00    +0.000 A 
ATOM     14  C   UNL     1       5.022   6.269  16.304  0.00  0.00    +0.000 A 
ATOM     15  C   UNL     1       5.760   5.080  16.258  0.00  0.00    +0.000 A 
ATOM     16  C   UNL     1       5.586   4.102  17.237  0.00  0.00    +0.000 A 
ATOM     17  C   UNL     1       4.677   4.308  18.276  0.00  0.00    +0.000 A 
ATOM     18  C   UNL     1       3.948   5.498  18.322  0.00  0.00    +0.000 A 
ATOM     19  C   UNL     1       3.025   5.762  19.452  0.00  0.00    +0.000 A 
ATOM     20  O   UNL     1       2.861   4.955  20.364  0.00  0.00    +0.000 OA
ATOM     21  N   UNL     1       2.375   6.972  19.439  0.00  0.00    +0.000 N 
ATOM     22  H   UNL     1       1.866   7.183  20.282  0.00  0.00    +0.000 HD
ENDBRANCH   2  11
BRANCH   5  23
ATOM     23  C   UNL     1      -0.915  12.060  21.514  0.00  0.00    +0.000 A 
ATOM     24  C   UNL     1      -1.108  12.718  22.736  0.00  0.00    +0.000 A 
ATOM     25  C   UNL     1      -2.300  13.396  23.003  0.00  0.00    +0.000 A 
ATOM     26  C   UNL     1      -3.319  13.411  22.057  0.00  0.00    +0.000 A 
ATOM     27  C   UNL     1      -3.165  12.720  20.857  0.00  0.00    +0.000 A 
ATOM     28  C   UNL     1      -1.973  12.046  20.591  0.00  0.00    +0.000 A 
ENDBRANCH   5  23
TORSDOF 2
ENDMDL
MODEL 6
REMARK VINA RESULT:      -7.0      1.852      3.316
REMARK  Name = 
REMARK  2 active torsions:
REMARK  status: ('A' for Active; 'I' for Inactive)
REMARK    1  A    between atoms: C_2  and  C_3
REMARK    2  A    between atoms: C_16  and  C_17
REMARK                            x       y       z     vdW  Elec       q    Type
REMARK                         _______ _______ _______ _____ _____    ______ ____
ROOT
ATOM      1  O   UNL     1       1.511   9.168  22.735  0.00  0.00    +0.000 OA
ATOM      2  C   UNL     1       1.047   9.130  21.588  0.00  0.00    +0.000 C 
ATOM      3  N   UNL     1       0.139  10.084  21.163  0.00  0.00    +0.000 N 
ATOM      4  C   UNL     1      -0.180  11.152  22.093  0.00  0.00    +0.000 C 
ATOM      5  C   UNL     1      -1.338  11.948  21.477  0.00  0.00    +0.000 C 
ATOM      6  C   UNL     1      -1.477  11.424  20.024  0.00  0.00    +0.000 C 
ATOM      7  C   UNL     1      -1.355  12.379  18.841  0.00  0.00    +0.000 C 
ATOM      8  C   UNL     1       0.132  12.475  18.549  0.00  0.00    +0.000 C 
ATOM      9  C   UNL     1       0.717  11.122  18.941  0.00  0.00    +0.000 C 
ATOM     10  C   UNL     1      -0.329  10.425  19.826  0.00  0.00    +0.000 C 
ENDROOT
BRANCH   2  11
ATOM     11  C   UNL     1       1.501   8.031  20.666  0.00  0.00    +0.000 A 
ATOM     12  C   UNL     1       1.190   6.768  21.006  0.00  0.00    +0.000 A 
ATOM     13  C   UNL     1       1.563   5.662  20.121  0.00  0.00    +0.000 A 
ATOM     14  C   UNL     1       1.221   4.341  20.425  0.00  0.00    +0.000 A 
ATOM     15  C   UNL     1       1.590   3.305  19.559  0.00  0.00    +0.000 A 
ATOM     16  C   UNL     1       2.303   3.580  18.392  0.00  0.00    +0.000 A 
ATOM     17  C   UNL     1       2.647   4.895  18.077  0.00  0.00    +0.000 A 
ATOM     18  C   UNL     1       2.270   5.927  18.940  0.00  0.00    +0.000 A 
ATOM     19  C   UNL     1       2.571   7.336  18.591  0.00  0.00    +0.000 A 
ATOM     20  O   UNL     1       3.160   7.643  17.557  0.00  0.00    +0.000 OA
ATOM     21  N   UNL     1       2.133   8.291  19.477  0.00  0.00    +0.000 N 
ATOM     22  H   UNL     1       2.225   9.239  19.149  0.00  0.00    +0.000 HD
ENDBRANCH   2  11
BRANCH   5  23
ATOM     23  C   UNL     1      -1.302  13.453  21.618  0.00  0.00    +0.000 A 
ATOM     24  C   UNL     1      -2.459  14.242  21.600  0.00  0.00    +0.000 A 
ATOM     25  C   UNL     1      -2.404  15.601  21.916  0.00  0.00    +0.000 A 
ATOM     26  C   UNL     1      -1.187  16.191  22.239  0.00  0.00    +0.000 A 
ATOM     27  C   UNL     1      -0.018  15.434  22.213  0.00  0.00    +0.000 A 
ATOM     28  C   UNL     1      -0.075  14.076  21.900  0.00  0.00    +0.000 A 
ENDBRANCH   5  23
TORSDOF 2
ENDMDL
MODEL 7
REMARK VINA RESULT:      -6.9      1.225      1.567
REMARK  Name = 
REMARK  2 active torsions:
REMARK  status: ('A' for Active; 'I' for Inactive)
REMARK    1  A    between atoms: C_2  and  C_3
REMARK    2  A    between atoms: C_16  and  C_17
REMARK                            x       y       z     vdW  Elec       q    Type
REMARK                         _______ _______ _______ _____ _____    ______ ____
ROOT
ATOM      1  O   UNL     1       1.880   8.421  17.648  0.00  0.00    +0.000 OA
ATOM      2  C   UNL     1       1.855   8.020  18.820  0.00  0.00    +0.000 C 
ATOM      3  N   UNL     1       1.532   8.884  19.852  0.00  0.00    +0.000 N 
ATOM      4  C   UNL     1       1.163  10.239  19.488  0.00  0.00    +0.000 C 
ATOM      5  C   UNL     1       1.053  11.037  20.793  0.00  0.00    +0.000 C 
ATOM      6  C   UNL     1       1.124   9.986  21.932  0.00  0.00    +0.000 C 
ATOM      7  C   UNL     1      -0.010   9.861  22.943  0.00  0.00    +0.000 C 
ATOM      8  C   UNL     1      -1.028   8.937  22.300  0.00  0.00    +0.000 C 
ATOM      9  C   UNL     1      -0.223   7.985  21.421  0.00  0.00    +0.000 C 
ATOM     10  C   UNL     1       1.166   8.617  21.237  0.00  0.00    +0.000 C 
ENDROOT
BRANCH   2  11
ATOM     11  C   UNL     1       2.172   6.576  19.092  0.00  0.00    +0.000 A 
ATOM     12  C   UNL     1       2.508   5.805  18.043  0.00  0.00    +0.000 A 
ATOM     13  C   UNL     1       2.874   4.403  18.254  0.00  0.00    +0.000 A 
ATOM     14  C   UNL     1       3.267   3.586  17.190  0.00  0.00    +0.000 A 
ATOM     15  C   UNL     1       3.613   2.250  17.425  0.00  0.00    +0.000 A 
ATOM     16  C   UNL     1       3.565   1.723  18.715  0.00  0.00    +0.000 A 
ATOM     17  C   UNL     1       3.178   2.531  19.785  0.00  0.00    +0.000 A 
ATOM     18  C   UNL     1       2.841   3.866  19.549  0.00  0.00    +0.000 A 
ATOM     19  C   UNL     1       2.489   4.756  20.681  0.00  0.00    +0.000 A 
ATOM     20  O   UNL     1       2.469   4.360  21.844  0.00  0.00    +0.000 OA
ATOM     21  N   UNL     1       2.206   6.063  20.364  0.00  0.00    +0.000 N 
ATOM     22  H   UNL     1       2.109   6.675  21.158  0.00  0.00    +0.000 HD
ENDBRANCH   2  11
BRANCH   5  23
ATOM     23  C   UNL     1      -0.079  12.034  20.908  0.00  0.00    +0.000 A 
ATOM     24  C   UNL     1      -1.298  11.875  20.235  0.00  0.00    +0.000 A 
ATOM     25  C   UNL     1      -2.380  12.714  20.508  0.00  0.00    +0.000 A 
ATOM     26  C   UNL     1      -2.251  13.733  21.445  0.00  0.00    +0.000 A 
ATOM     27  C   UNL     1      -1.032  13.939  22.087  0.00  0.00    +0.000 A 
ATOM     28  C   UNL     1       0.047  13.097  21.816  0.00  0.00    +0.000 A 
ENDBRANCH   5  23
TORSDOF 2
ENDMDL
MODEL 8
REMARK VINA RESULT:      -6.8      7.587      8.744
REMARK  Name = 
REMARK  2 active torsions:
REMARK  status: ('A' for Active; 'I' for Inactive)
REMARK    1  A    between atoms: C_2  and  C_3
REMARK    2  A    between atoms: C_16  and  C_17
REMARK                            x       y       z     vdW  Elec       q    Type
REMARK                         _______ _______ _______ _____ _____    ______ ____
ROOT
ATOM      1  O   UNL     1       6.769  17.292  19.055  0.00  0.00    +0.000 OA
ATOM      2  C   UNL     1       6.299  16.188  19.363  0.00  0.00    +0.000 C 
ATOM      3  N   UNL     1       4.931  16.010  19.471  0.00  0.00    +0.000 N 
ATOM      4  C   UNL     1       4.090  17.146  19.142  0.00  0.00    +0.000 C 
ATOM      5  C   UNL     1       2.655  16.765  19.530  0.00  0.00    +0.000 C 
ATOM      6  C   UNL     1       2.700  15.249  19.854  0.00  0.00    +0.000 C 
ATOM      7  C   UNL     1       1.815  14.268  19.092  0.00  0.00    +0.000 C 
ATOM      8  C   UNL     1       2.590  13.912  17.836  0.00  0.00    +0.000 C 
ATOM      9  C   UNL     1       4.063  14.000  18.224  0.00  0.00    +0.000 C 
ATOM     10  C   UNL     1       4.131  14.794  19.538  0.00  0.00    +0.000 C 
ENDROOT
BRANCH   2  11
ATOM     11  C   UNL     1       7.247  15.046  19.605  0.00  0.00    +0.000 A 
ATOM     12  C   UNL     1       7.873  14.521  18.537  0.00  0.00    +0.000 A 
ATOM     13  C   UNL     1       8.845  13.440  18.718  0.00  0.00    +0.000 A 
ATOM     14  C   UNL     1       9.541  12.900  17.634  0.00  0.00    +0.000 A 
ATOM     15  C   UNL     1      10.465  11.868  17.839  0.00  0.00    +0.000 A 
ATOM     16  C   UNL     1      10.695  11.370  19.122  0.00  0.00    +0.000 A 
ATOM     17  C   UNL     1      10.008  11.905  20.212  0.00  0.00    +0.000 A 
ATOM     18  C   UNL     1       9.093  12.940  20.004  0.00  0.00    +0.000 A 
ATOM     19  C   UNL     1       8.400  13.563  21.157  0.00  0.00    +0.000 A 
ATOM     20  O   UNL     1       8.592  13.195  22.314  0.00  0.00    +0.000 OA
ATOM     21  N   UNL     1       7.544  14.598  20.867  0.00  0.00    +0.000 N 
ATOM     22  H   UNL     1       7.197  15.093  21.674  0.00  0.00    +0.000 HD
ENDBRANCH   2  11
BRANCH   5  23
ATOM     23  C   UNL     1       1.544  17.192  18.597  0.00  0.00    +0.000 A 
ATOM     24  C   UNL     1       0.200  17.237  18.992  0.00  0.00    +0.000 A 
ATOM     25  C   UNL     1      -0.769  17.810  18.166  0.00  0.00    +0.000 A 
ATOM     26  C   UNL     1      -0.410  18.329  16.927  0.00  0.00    +0.000 A 
ATOM     27  C   UNL     1       0.912  18.247  16.496  0.00  0.00    +0.000 A 
ATOM     28  C   UNL     1       1.880  17.679  17.324  0.00  0.00    +0.000 A 
ENDBRANCH   5  23
TORSDOF 2
ENDMDL
MODEL 9
REMARK VINA RESULT:      -6.7      1.812      3.391
REMARK  Name = 
REMARK  2 active torsions:
REMARK  status: ('A' for Active; 'I' for Inactive)
REMARK    1  A    between atoms: C_2  and  C_3
REMARK    2  A    between atoms: C_16  and  C_17
REMARK                            x       y       z     vdW  Elec       q    Type
REMARK                         _______ _______ _______ _____ _____    ______ ____
ROOT
ATOM      1  O   UNL     1       1.507   9.470  22.630  0.00  0.00    +0.000 OA
ATOM      2  C   UNL     1       1.010   9.410  21.498  0.00  0.00    +0.000 C 
ATOM      3  N   UNL     1       0.022  10.299  21.114  0.00  0.00    +0.000 N 
ATOM      4  C   UNL     1      -0.343  11.331  22.067  0.00  0.00    +0.000 C 
ATOM      5  C   UNL     1      -1.575  12.046  21.498  0.00  0.00    +0.000 C 
ATOM      6  C   UNL     1      -1.724  11.529  20.044  0.00  0.00    +0.000 C 
ATOM      7  C   UNL     1      -1.709  12.502  18.870  0.00  0.00    +0.000 C 
ATOM      8  C   UNL     1      -0.244  12.710  18.532  0.00  0.00    +0.000 C 
ATOM      9  C   UNL     1       0.450  11.400  18.888  0.00  0.00    +0.000 C 
ATOM     10  C   UNL     1      -0.513  10.618  19.797  0.00  0.00    +0.000 C 
ENDROOT
BRANCH   2  11
ATOM     11  C   UNL     1       1.512   8.357  20.549  0.00  0.00    +0.000 A 
ATOM     12  C   UNL     1       1.431   7.074  20.944  0.00  0.00    +0.000 A 
ATOM     13  C   UNL     1       1.860   6.003  20.042  0.00  0.00    +0.000 A 
ATOM     14  C   UNL     1       1.752   4.659  20.407  0.00  0.00    +0.000 A 
ATOM     15  C   UNL     1       2.168   3.657  19.521  0.00  0.00    +0.000 A 
ATOM     16  C   UNL     1       2.695   3.992  18.274  0.00  0.00    +0.000 A 
ATOM     17  C   UNL     1       2.804   5.331  17.898  0.00  0.00    +0.000 A 
ATOM     18  C   UNL     1       2.380   6.326  18.781  0.00  0.00    +0.000 A 
ATOM     19  C   UNL     1       2.429   7.751  18.374  0.00  0.00    +0.000 A 
ATOM     20  O   UNL     1       2.845   8.104  17.273  0.00  0.00    +0.000 OA
ATOM     21  N   UNL     1       1.960   8.663  19.289  0.00  0.00    +0.000 N 
ATOM     22  H   UNL     1       1.874   9.603  18.936  0.00  0.00    +0.000 HD
ENDBRANCH   2  11
BRANCH   5  23
ATOM     23  C   UNL     1      -1.644  13.549  21.657  0.00  0.00    +0.000 A 
ATOM     24  C   UNL     1      -0.501  14.351  21.764  0.00  0.00    +0.000 A 
ATOM     25  C   UNL     1      -0.598  15.744  21.725  0.00  0.00    +0.000 A 
ATOM     26  C   UNL     1      -1.842  16.351  21.593  0.00  0.00    +0.000 A 
ATOM     27  C   UNL     1      -2.994  15.571  21.536  0.00  0.00    +0.000 A 
ATOM     28  C   UNL     1      -2.896  14.180  21.573  0.00  0.00    +0.000 A 
ENDBRANCH   5  23
TORSDOF 2
ENDMDL
