MODEL 1
REMARK VINA RESULT:      -9.0      0.000      0.000
REMARK  Name = 
REMARK  8 active torsions:
REMARK  status: ('A' for Active; 'I' for Inactive)
REMARK    1  A    between atoms: C_1  and  C_2
REMARK    2  A    between atoms: C_6  and  C_7
REMARK    3  A    between atoms: N_9  and  C_10
REMARK    4  A    between atoms: C_13  and  N_14
REMARK    5  A    between atoms: C_15  and  C_17
REMARK    6  A    between atoms: C_21  and  S_22
REMARK    7  A    between atoms: S_22  and  C_23
REMARK    8  A    between atoms: C_27  and  C_28
REMARK                            x       y       z     vdW  Elec       q    Type
REMARK                         _______ _______ _______ _____ _____    ______ ____
ROOT
ATOM      1  C   UNL     1      -0.270  10.268  21.716  0.00  0.00    +0.000 A 
ATOM      2  C   UNL     1       0.425   9.232  22.322  0.00  0.00    +0.000 A 
ATOM      3  C   UNL     1       1.220   8.361  21.567  0.00  0.00    +0.000 A 
ATOM      4  C   UNL     1       1.338   8.480  20.178  0.00  0.00    +0.000 A 
ATOM      5  C   UNL     1       0.538   9.454  19.534  0.00  0.00    +0.000 A 
ATOM      6  C   UNL     1       0.460   9.675  18.045  0.00  0.00    +0.000 C 
ATOM      7  C   UNL     1      -0.235  10.350  20.321  0.00  0.00    +0.000 A 
ENDROOT
BRANCH   1  10
ATOM      8  C   UNL     1      -0.682  12.583  22.580  0.00  0.00    +0.000 C 
ATOM      9  O   UNL     1       0.285  13.148  22.084  0.00  0.00    +0.000 OA
ATOM     10  N   UNL     1      -1.007  11.234  22.437  0.00  0.00    +0.000 N 
ATOM     11  H   UNL     1      -1.918  10.973  22.802  0.00  0.00    +0.000 HD
BRANCH   8  17
ATOM     12  C   UNL     1      -5.170  12.954  24.398  0.00  0.00    +0.000 C 
ATOM     13  C   UNL     1      -3.808  13.561  24.247  0.00  0.00    +0.000 A 
ATOM     14  C   UNL     1      -3.518  14.805  24.803  0.00  0.00    +0.000 A 
ATOM     15  C   UNL     1      -2.243  15.343  24.628  0.00  0.00    +0.000 A 
ATOM     16  C   UNL     1      -1.301  14.622  23.904  0.00  0.00    +0.000 A 
ATOM     17  C   UNL     1      -1.668  13.384  23.380  0.00  0.00    +0.000 A 
ATOM     18  N   UNL     1      -2.905  12.838  23.537  0.00  0.00    +0.000 NA
ENDBRANCH   8  17
ENDBRANCH   1  10
BRANCH   4  19
ATOM     19  N   UNL     1       2.228   7.631  19.461  0.00  0.00    +0.000 N 
ATOM     20  C   UNL     1       2.311   6.235  19.574  0.00  0.00    +0.000 C 
ATOM     21  O   UNL     1       1.639   5.516  20.300  0.00  0.00    +0.000 OA
ATOM     22  H   UNL     1       2.951   8.098  18.936  0.00  0.00    +0.000 HD
BRANCH  20  23
ATOM     23  C   UNL     1       3.392   5.571  18.771  0.00  0.00    +0.000 A 
ATOM     24  C   UNL     1       3.033   4.685  17.737  0.00  0.00    +0.000 A 
ATOM     25  C   UNL     1       4.009   3.956  17.048  0.00  0.00    +0.000 A 
ATOM     26  C   UNL     1       5.355   4.140  17.351  0.00  0.00    +0.000 A 
ATOM     27  C   UNL     1       5.715   5.088  18.312  0.00  0.00    +0.000 A 
ATOM     28  C   UNL     1       4.747   5.796  19.029  0.00  0.00    +0.000 A 
BRANCH  27  29
ATOM     29  S   UNL     1       7.431   5.330  18.708  0.00  0.00    +0.000 S 
ATOM     30  C   UNL     1       7.791   6.942  18.055  0.00  0.00    +0.000 C 
ATOM     31  O   UNL     1       7.530   5.391  20.150  0.00  0.00    +0.000 OA
ATOM     32  O   UNL     1       8.182   4.356  17.946  0.00  0.00    +0.000 OA
ENDBRANCH  27  29
ENDBRANCH  20  23
ENDBRANCH   4  19
TORSDOF 5
ENDMDL
MODEL 2
REMARK VINA RESULT:      -8.6      1.300      1.843
REMARK  Name = 
REMARK  8 active torsions:
REMARK  status: ('A' for Active; 'I' for Inactive)
REMARK    1  A    between atoms: C_1  and  C_2
REMARK    2  A    between atoms: C_6  and  C_7
REMARK    3  A    between atoms: N_9  and  C_10
REMARK    4  A    between atoms: C_13  and  N_14
REMARK    5  A    between atoms: C_15  and  C_17
REMARK    6  A    between atoms: C_21  and  S_22
REMARK    7  A    between atoms: S_22  and  C_23
REMARK    8  A    between atoms: C_27  and  C_28
REMARK                            x       y       z     vdW  Elec       q    Type
REMARK                         _______ _______ _______ _____ _____    ______ ____
ROOT
ATOM      1  C   UNL     1      -0.324  10.735  21.776  0.00  0.00    +0.000 A 
ATOM      2  C   UNL     1       0.507   9.763  22.315  0.00  0.00    +0.000 A 
ATOM      3  C   UNL     1       1.215   8.883  21.488  0.00  0.00    +0.000 A 
ATOM      4  C   UNL     1       1.109   8.927  20.095  0.00  0.00    +0.000 A 
ATOM      5  C   UNL     1       0.172   9.830  19.537  0.00  0.00    +0.000 A 
ATOM      6  C   UNL     1      -0.148   9.962  18.070  0.00  0.00    +0.000 C 
ATOM      7  C   UNL     1      -0.511  10.738  20.391  0.00  0.00    +0.000 A 
ENDROOT
BRANCH   1  10
ATOM      8  C   UNL     1      -0.578  13.031  22.744  0.00  0.00    +0.000 C 
ATOM      9  O   UNL     1       0.408  13.560  22.245  0.00  0.00    +0.000 OA
ATOM     10  N   UNL     1      -0.984  11.710  22.555  0.00  0.00    +0.000 N 
ATOM     11  H   UNL     1      -1.900  11.487  22.934  0.00  0.00    +0.000 HD
BRANCH   8  17
ATOM     12  C   UNL     1      -1.052  16.485  26.124  0.00  0.00    +0.000 C 
ATOM     13  C   UNL     1      -1.721  15.500  25.215  0.00  0.00    +0.000 A 
ATOM     14  C   UNL     1      -3.108  15.363  25.211  0.00  0.00    +0.000 A 
ATOM     15  C   UNL     1      -3.691  14.424  24.360  0.00  0.00    +0.000 A 
ATOM     16  C   UNL     1      -2.873  13.655  23.541  0.00  0.00    +0.000 A 
ATOM     17  C   UNL     1      -1.495  13.853  23.602  0.00  0.00    +0.000 A 
ATOM     18  N   UNL     1      -0.902  14.762  24.424  0.00  0.00    +0.000 NA
ENDBRANCH   8  17
ENDBRANCH   1  10
BRANCH   4  19
ATOM     19  N   UNL     1       1.916   8.074  19.289  0.00  0.00    +0.000 N 
ATOM     20  C   UNL     1       2.191   6.721  19.535  0.00  0.00    +0.000 C 
ATOM     21  O   UNL     1       1.786   6.048  20.472  0.00  0.00    +0.000 OA
ATOM     22  H   UNL     1       2.444   8.531  18.561  0.00  0.00    +0.000 HD
BRANCH  20  23
ATOM     23  C   UNL     1       3.141   6.057  18.581  0.00  0.00    +0.000 A 
ATOM     24  C   UNL     1       2.749   4.866  17.939  0.00  0.00    +0.000 A 
ATOM     25  C   UNL     1       3.651   4.154  17.139  0.00  0.00    +0.000 A 
ATOM     26  C   UNL     1       4.936   4.649  16.932  0.00  0.00    +0.000 A 
ATOM     27  C   UNL     1       5.291   5.878  17.493  0.00  0.00    +0.000 A 
ATOM     28  C   UNL     1       4.411   6.579  18.321  0.00  0.00    +0.000 A 
BRANCH  27  29
ATOM     29  S   UNL     1       6.931   6.519  17.237  0.00  0.00    +0.000 S 
ATOM     30  C   UNL     1       7.801   6.052  18.712  0.00  0.00    +0.000 C 
ATOM     31  O   UNL     1       7.501   5.793  16.123  0.00  0.00    +0.000 OA
ATOM     32  O   UNL     1       6.822   7.962  17.214  0.00  0.00    +0.000 OA
ENDBRANCH  27  29
ENDBRANCH  20  23
ENDBRANCH   4  19
TORSDOF 5
ENDMDL
MODEL 3
REMARK VINA RESULT:      -8.6      0.729      1.358
REMARK  Name = 
REMARK  8 active torsions:
REMARK  status: ('A' for Active; 'I' for Inactive)
REMARK    1  A    between atoms: C_1  and  C_2
REMARK    2  A    between atoms: C_6  and  C_7
REMARK    3  A    between atoms: N_9  and  C_10
REMARK    4  A    between atoms: C_13  and  N_14
REMARK    5  A    between atoms: C_15  and  C_17
REMARK    6  A    between atoms: C_21  and  S_22
REMARK    7  A    between atoms: S_22  and  C_23
REMARK    8  A    between atoms: C_27  and  C_28
REMARK                            x       y       z     vdW  Elec       q    Type
REMARK                         _______ _______ _______ _____ _____    ______ ____
ROOT
ATOM      1  C   UNL     1      -0.296  10.555  21.631  0.00  0.00    +0.000 A 
ATOM      2  C   UNL     1       0.412   9.551  22.274  0.00  0.00    +0.000 A 
ATOM      3  C   UNL     1       1.186   8.639  21.547  0.00  0.00    +0.000 A 
ATOM      4  C   UNL     1       1.269   8.683  20.151  0.00  0.00    +0.000 A 
ATOM      5  C   UNL     1       0.455   9.623  19.476  0.00  0.00    +0.000 A 
ATOM      6  C   UNL     1       0.340   9.764  17.980  0.00  0.00    +0.000 C 
ATOM      7  C   UNL     1      -0.297  10.562  20.233  0.00  0.00    +0.000 A 
ENDROOT
BRANCH   1  10
ATOM      8  C   UNL     1      -0.617  12.886  22.490  0.00  0.00    +0.000 C 
ATOM      9  O   UNL     1       0.409  13.394  22.055  0.00  0.00    +0.000 OA
ATOM     10  N   UNL     1      -1.014  11.560  22.318  0.00  0.00    +0.000 N 
ATOM     11  H   UNL     1      -1.958  11.353  22.628  0.00  0.00    +0.000 HD
BRANCH   8  17
ATOM     12  C   UNL     1      -1.837  17.305  24.092  0.00  0.00    +0.000 C 
ATOM     13  C   UNL     1      -2.178  15.849  24.004  0.00  0.00    +0.000 A 
ATOM     14  C   UNL     1      -3.326  15.349  24.615  0.00  0.00    +0.000 A 
ATOM     15  C   UNL     1      -3.601  13.984  24.523  0.00  0.00    +0.000 A 
ATOM     16  C   UNL     1      -2.722  13.165  23.824  0.00  0.00    +0.000 A 
ATOM     17  C   UNL     1      -1.597  13.741  23.240  0.00  0.00    +0.000 A 
ATOM     18  N   UNL     1      -1.306  15.069  23.316  0.00  0.00    +0.000 NA
ENDBRANCH   8  17
ENDBRANCH   1  10
BRANCH   4  19
ATOM     19  N   UNL     1       2.140   7.794  19.458  0.00  0.00    +0.000 N 
ATOM     20  C   UNL     1       2.310   6.427  19.725  0.00  0.00    +0.000 C 
ATOM     21  O   UNL     1       1.744   5.771  20.588  0.00  0.00    +0.000 OA
ATOM     22  H   UNL     1       2.788   8.227  18.818  0.00  0.00    +0.000 HD
BRANCH  20  23
ATOM     23  C   UNL     1       3.353   5.720  18.908  0.00  0.00    +0.000 A 
ATOM     24  C   UNL     1       2.944   4.839  17.888  0.00  0.00    +0.000 A 
ATOM     25  C   UNL     1       3.883   4.072  17.188  0.00  0.00    +0.000 A 
ATOM     26  C   UNL     1       5.240   4.211  17.465  0.00  0.00    +0.000 A 
ATOM     27  C   UNL     1       5.649   5.155  18.411  0.00  0.00    +0.000 A 
ATOM     28  C   UNL     1       4.719   5.901  19.140  0.00  0.00    +0.000 A 
BRANCH  27  29
ATOM     29  S   UNL     1       7.380   5.340  18.775  0.00  0.00    +0.000 S 
ATOM     30  C   UNL     1       7.787   6.926  18.085  0.00  0.00    +0.000 C 
ATOM     31  O   UNL     1       7.506   5.425  20.213  0.00  0.00    +0.000 OA
ATOM     32  O   UNL     1       8.081   4.326  18.019  0.00  0.00    +0.000 OA
ENDBRANCH  27  29
ENDBRANCH  20  23
ENDBRANCH   4  19
TORSDOF 5
ENDMDL
MODEL 4
REMARK VINA RESULT:      -8.4      1.399      1.586
REMARK  Name = 
REMARK  8 active torsions:
REMARK  status: ('A' for Active; 'I' for Inactive)
REMARK    1  A    between atoms: C_1  and  C_2
REMARK    2  A    between atoms: C_6  and  C_7
REMARK    3  A    between atoms: N_9  and  C_10
REMARK    4  A    between atoms: C_13  and  N_14
REMARK    5  A    between atoms: C_15  and  C_17
REMARK    6  A    between atoms: C_21  and  S_22
REMARK    7  A    between atoms: S_22  and  C_23
REMARK    8  A    between atoms: C_27  and  C_28
REMARK                            x       y       z     vdW  Elec       q    Type
REMARK                         _______ _______ _______ _____ _____    ______ ____
ROOT
ATOM      1  C   UNL     1      -0.399  10.408  21.750  0.00  0.00    +0.000 A 
ATOM      2  C   UNL     1       0.214   9.364  22.428  0.00  0.00    +0.000 A 
ATOM      3  C   UNL     1       1.042   8.458  21.754  0.00  0.00    +0.000 A 
ATOM      4  C   UNL     1       1.275   8.548  20.378  0.00  0.00    +0.000 A 
ATOM      5  C   UNL     1       0.559   9.531  19.655  0.00  0.00    +0.000 A 
ATOM      6  C   UNL     1       0.608   9.727  18.161  0.00  0.00    +0.000 C 
ATOM      7  C   UNL     1      -0.249  10.463  20.362  0.00  0.00    +0.000 A 
ENDROOT
BRANCH   1  10
ATOM      8  C   UNL     1      -0.796  12.741  22.571  0.00  0.00    +0.000 C 
ATOM      9  O   UNL     1       0.241  13.262  22.179  0.00  0.00    +0.000 OA
ATOM     10  N   UNL     1      -1.163  11.407  22.394  0.00  0.00    +0.000 N 
ATOM     11  H   UNL     1      -2.118  11.188  22.662  0.00  0.00    +0.000 HD
BRANCH   8  17
ATOM     12  C   UNL     1      -5.418  13.295  23.952  0.00  0.00    +0.000 C 
ATOM     13  C   UNL     1      -4.028  13.851  23.925  0.00  0.00    +0.000 A 
ATOM     14  C   UNL     1      -3.746  15.091  24.495  0.00  0.00    +0.000 A 
ATOM     15  C   UNL     1      -2.441  15.580  24.436  0.00  0.00    +0.000 A 
ATOM     16  C   UNL     1      -1.462  14.817  23.812  0.00  0.00    +0.000 A 
ATOM     17  C   UNL     1      -1.823  13.587  23.267  0.00  0.00    +0.000 A 
ATOM     18  N   UNL     1      -3.089  13.088  23.311  0.00  0.00    +0.000 NA
ENDBRANCH   8  17
ENDBRANCH   1  10
BRANCH   4  19
ATOM     19  N   UNL     1       2.195   7.661  19.749  0.00  0.00    +0.000 N 
ATOM     20  C   UNL     1       2.224   6.265  19.887  0.00  0.00    +0.000 C 
ATOM     21  O   UNL     1       1.470   5.578  20.562  0.00  0.00    +0.000 OA
ATOM     22  H   UNL     1       2.974   8.098  19.281  0.00  0.00    +0.000 HD
BRANCH  20  23
ATOM     23  C   UNL     1       3.347   5.557  19.187  0.00  0.00    +0.000 A 
ATOM     24  C   UNL     1       3.718   4.267  19.616  0.00  0.00    +0.000 A 
ATOM     25  C   UNL     1       4.836   3.626  19.069  0.00  0.00    +0.000 A 
ATOM     26  C   UNL     1       5.565   4.244  18.056  0.00  0.00    +0.000 A 
ATOM     27  C   UNL     1       5.138   5.481  17.567  0.00  0.00    +0.000 A 
ATOM     28  C   UNL     1       4.045   6.145  18.128  0.00  0.00    +0.000 A 
BRANCH  27  29
ATOM     29  S   UNL     1       6.062   6.280  16.274  0.00  0.00    +0.000 S 
ATOM     30  C   UNL     1       6.939   4.945  15.497  0.00  0.00    +0.000 C 
ATOM     31  O   UNL     1       5.103   6.805  15.328  0.00  0.00    +0.000 OA
ATOM     32  O   UNL     1       7.030   7.142  16.917  0.00  0.00    +0.000 OA
ENDBRANCH  27  29
ENDBRANCH  20  23
ENDBRANCH   4  19
TORSDOF 5
ENDMDL
MODEL 5
REMARK VINA RESULT:      -8.4      1.291      1.505
REMARK  Name = 
REMARK  8 active torsions:
REMARK  status: ('A' for Active; 'I' for Inactive)
REMARK    1  A    between atoms: C_1  and  C_2
REMARK    2  A    between atoms: C_6  and  C_7
REMARK    3  A    between atoms: N_9  and  C_10
REMARK    4  A    between atoms: C_13  and  N_14
REMARK    5  A    between atoms: C_15  and  C_17
REMARK    6  A    between atoms: C_21  and  S_22
REMARK    7  A    between atoms: S_22  and  C_23
REMARK    8  A    between atoms: C_27  and  C_28
REMARK                            x       y       z     vdW  Elec       q    Type
REMARK                         _______ _______ _______ _____ _____    ______ ____
ROOT
ATOM      1  C   UNL     1      -0.028  10.681  21.550  0.00  0.00    +0.000 A 
ATOM      2  C   UNL     1       0.419   9.632  22.339  0.00  0.00    +0.000 A 
ATOM      3  C   UNL     1       1.154   8.578  21.784  0.00  0.00    +0.000 A 
ATOM      4  C   UNL     1       1.455   8.521  20.419  0.00  0.00    +0.000 A 
ATOM      5  C   UNL     1       0.900   9.519  19.584  0.00  0.00    +0.000 A 
ATOM      6  C   UNL     1       1.036   9.579  18.084  0.00  0.00    +0.000 C 
ATOM      7  C   UNL     1       0.186  10.599  20.171  0.00  0.00    +0.000 A 
ENDROOT
BRANCH   1  10
ATOM      8  C   UNL     1      -0.181  13.115  22.120  0.00  0.00    +0.000 C 
ATOM      9  O   UNL     1       0.910  13.480  21.701  0.00  0.00    +0.000 OA
ATOM     10  N   UNL     1      -0.688  11.817  22.070  0.00  0.00    +0.000 N 
ATOM     11  H   UNL     1      -1.664  11.729  22.338  0.00  0.00    +0.000 HD
BRANCH   8  17
ATOM     12  C   UNL     1      -1.504  15.762  25.971  0.00  0.00    +0.000 C 
ATOM     13  C   UNL     1      -1.750  15.395  24.540  0.00  0.00    +0.000 A 
ATOM     14  C   UNL     1      -2.809  15.960  23.831  0.00  0.00    +0.000 A 
ATOM     15  C   UNL     1      -3.013  15.581  22.504  0.00  0.00    +0.000 A 
ATOM     16  C   UNL     1      -2.155  14.651  21.929  0.00  0.00    +0.000 A 
ATOM     17  C   UNL     1      -1.119  14.133  22.703  0.00  0.00    +0.000 A 
ATOM     18  N   UNL     1      -0.899  14.486  23.999  0.00  0.00    +0.000 NA
ENDBRANCH   8  17
ENDBRANCH   1  10
BRANCH   4  19
ATOM     19  N   UNL     1       2.283   7.479  19.912  0.00  0.00    +0.000 N 
ATOM     20  C   UNL     1       2.064   6.101  20.064  0.00  0.00    +0.000 C 
ATOM     21  O   UNL     1       1.133   5.565  20.649  0.00  0.00    +0.000 OA
ATOM     22  H   UNL     1       3.173   7.769  19.537  0.00  0.00    +0.000 HD
BRANCH  20  23
ATOM     23  C   UNL     1       3.128   5.199  19.508  0.00  0.00    +0.000 A 
ATOM     24  C   UNL     1       2.790   3.880  19.148  0.00  0.00    +0.000 A 
ATOM     25  C   UNL     1       3.777   2.975  18.742  0.00  0.00    +0.000 A 
ATOM     26  C   UNL     1       5.103   3.389  18.645  0.00  0.00    +0.000 A 
ATOM     27  C   UNL     1       5.421   4.723  18.913  0.00  0.00    +0.000 A 
ATOM     28  C   UNL     1       4.449   5.626  19.351  0.00  0.00    +0.000 A 
BRANCH  27  29
ATOM     29  S   UNL     1       7.111   5.263  18.794  0.00  0.00    +0.000 S 
ATOM     30  C   UNL     1       7.004   6.786  17.886  0.00  0.00    +0.000 C 
ATOM     31  O   UNL     1       7.556   5.565  20.137  0.00  0.00    +0.000 OA
ATOM     32  O   UNL     1       7.807   4.296  17.974  0.00  0.00    +0.000 OA
ENDBRANCH  27  29
ENDBRANCH  20  23
ENDBRANCH   4  19
TORSDOF 5
ENDMDL
MODEL 6
REMARK VINA RESULT:      -8.3      3.643     11.239
REMARK  Name = 
REMARK  8 active torsions:
REMARK  status: ('A' for Active; 'I' for Inactive)
REMARK    1  A    between atoms: C_1  and  C_2
REMARK    2  A    between atoms: C_6  and  C_7
REMARK    3  A    between atoms: N_9  and  C_10
REMARK    4  A    between atoms: C_13  and  N_14
REMARK    5  A    between atoms: C_15  and  C_17
REMARK    6  A    between atoms: C_21  and  S_22
REMARK    7  A    between atoms: S_22  and  C_23
REMARK    8  A    between atoms: C_27  and  C_28
REMARK                            x       y       z     vdW  Elec       q    Type
REMARK                         _______ _______ _______ _____ _____    ______ ____
ROOT
ATOM      1  C   UNL     1       1.513   8.477  20.022  0.00  0.00    +0.000 A 
ATOM      2  C   UNL     1       1.400   8.519  21.404  0.00  0.00    +0.000 A 
ATOM      3  C   UNL     1       0.603   9.484  22.030  0.00  0.00    +0.000 A 
ATOM      4  C   UNL     1      -0.096  10.454  21.305  0.00  0.00    +0.000 A 
ATOM      5  C   UNL     1       0.109  10.500  19.905  0.00  0.00    +0.000 A 
ATOM      6  C   UNL     1      -0.483  11.520  18.968  0.00  0.00    +0.000 C 
ATOM      7  C   UNL     1       0.894   9.490  19.285  0.00  0.00    +0.000 A 
ENDROOT
BRANCH   1  10
ATOM      8  C   UNL     1       2.252   6.111  19.656  0.00  0.00    +0.000 C 
ATOM      9  O   UNL     1       1.650   5.577  20.579  0.00  0.00    +0.000 OA
ATOM     10  N   UNL     1       2.222   7.468  19.332  0.00  0.00    +0.000 N 
ATOM     11  H   UNL     1       2.670   7.707  18.452  0.00  0.00    +0.000 HD
BRANCH   8  17
ATOM     12  C   UNL     1       3.497   1.657  18.175  0.00  0.00    +0.000 C 
ATOM     13  C   UNL     1       3.662   3.138  18.019  0.00  0.00    +0.000 A 
ATOM     14  C   UNL     1       4.547   3.660  17.078  0.00  0.00    +0.000 A 
ATOM     15  C   UNL     1       4.683   5.045  16.974  0.00  0.00    +0.000 A 
ATOM     16  C   UNL     1       3.932   5.861  17.811  0.00  0.00    +0.000 A 
ATOM     17  C   UNL     1       3.068   5.262  18.725  0.00  0.00    +0.000 A 
ATOM     18  N   UNL     1       2.918   3.915  18.846  0.00  0.00    +0.000 NA
ENDBRANCH   8  17
ENDBRANCH   1  10
BRANCH   4  19
ATOM     19  N   UNL     1      -0.967  11.360  21.975  0.00  0.00    +0.000 N 
ATOM     20  C   UNL     1      -0.677  12.691  22.311  0.00  0.00    +0.000 C 
ATOM     21  O   UNL     1       0.362  13.296  22.084  0.00  0.00    +0.000 OA
ATOM     22  H   UNL     1      -1.805  10.955  22.363  0.00  0.00    +0.000 HD
BRANCH  20  23
ATOM     23  C   UNL     1      -1.731  13.419  23.094  0.00  0.00    +0.000 A 
ATOM     24  C   UNL     1      -1.343  14.445  23.977  0.00  0.00    +0.000 A 
ATOM     25  C   UNL     1      -2.283  15.062  24.812  0.00  0.00    +0.000 A 
ATOM     26  C   UNL     1      -3.623  14.695  24.740  0.00  0.00    +0.000 A 
ATOM     27  C   UNL     1      -4.020  13.744  23.796  0.00  0.00    +0.000 A 
ATOM     28  C   UNL     1      -3.086  13.098  22.982  0.00  0.00    +0.000 A 
BRANCH  27  29
ATOM     29  S   UNL     1      -5.730  13.267  23.696  0.00  0.00    +0.000 S 
ATOM     30  C   UNL     1      -5.956  12.869  21.980  0.00  0.00    +0.000 C 
ATOM     31  O   UNL     1      -5.879  12.053  24.467  0.00  0.00    +0.000 OA
ATOM     32  O   UNL     1      -6.516  14.445  23.993  0.00  0.00    +0.000 OA
ENDBRANCH  27  29
ENDBRANCH  20  23
ENDBRANCH   4  19
TORSDOF 5
ENDMDL
MODEL 7
REMARK VINA RESULT:      -8.3      3.532     11.246
REMARK  Name = 
REMARK  8 active torsions:
REMARK  status: ('A' for Active; 'I' for Inactive)
REMARK    1  A    between atoms: C_1  and  C_2
REMARK    2  A    between atoms: C_6  and  C_7
REMARK    3  A    between atoms: N_9  and  C_10
REMARK    4  A    between atoms: C_13  and  N_14
REMARK    5  A    between atoms: C_15  and  C_17
REMARK    6  A    between atoms: C_21  and  S_22
REMARK    7  A    between atoms: S_22  and  C_23
REMARK    8  A    between atoms: C_27  and  C_28
REMARK                            x       y       z     vdW  Elec       q    Type
REMARK                         _______ _______ _______ _____ _____    ______ ____
ROOT
ATOM      1  C   UNL     1       1.630   8.337  19.731  0.00  0.00    +0.000 A 
ATOM      2  C   UNL     1       1.417   8.289  21.100  0.00  0.00    +0.000 A 
ATOM      3  C   UNL     1       0.610   9.240  21.736  0.00  0.00    +0.000 A 
ATOM      4  C   UNL     1      -0.000  10.284  21.033  0.00  0.00    +0.000 A 
ATOM      5  C   UNL     1       0.308  10.417  19.658  0.00  0.00    +0.000 A 
ATOM      6  C   UNL     1      -0.178  11.521  18.756  0.00  0.00    +0.000 C 
ATOM      7  C   UNL     1       1.101   9.422  19.026  0.00  0.00    +0.000 A 
ENDROOT
BRANCH   1  10
ATOM      8  C   UNL     1       2.522   6.020  19.404  0.00  0.00    +0.000 C 
ATOM      9  O   UNL     1       2.053   5.490  20.403  0.00  0.00    +0.000 OA
ATOM     10  N   UNL     1       2.353   7.351  19.023  0.00  0.00    +0.000 N 
ATOM     11  H   UNL     1       2.697   7.577  18.094  0.00  0.00    +0.000 HD
BRANCH   8  17
ATOM     12  C   UNL     1       5.551   5.888  15.610  0.00  0.00    +0.000 C 
ATOM     13  C   UNL     1       4.761   5.126  16.629  0.00  0.00    +0.000 A 
ATOM     14  C   UNL     1       4.763   3.732  16.634  0.00  0.00    +0.000 A 
ATOM     15  C   UNL     1       4.002   3.059  17.590  0.00  0.00    +0.000 A 
ATOM     16  C   UNL     1       3.266   3.797  18.509  0.00  0.00    +0.000 A 
ATOM     17  C   UNL     1       3.316   5.188  18.438  0.00  0.00    +0.000 A 
ATOM     18  N   UNL     1       4.050   5.868  17.515  0.00  0.00    +0.000 NA
ENDBRANCH   8  17
ENDBRANCH   1  10
BRANCH   4  19
ATOM     19  N   UNL     1      -0.886  11.176  21.703  0.00  0.00    +0.000 N 
ATOM     20  C   UNL     1      -0.581  12.473  22.139  0.00  0.00    +0.000 C 
ATOM     21  O   UNL     1       0.488  13.056  22.018  0.00  0.00    +0.000 OA
ATOM     22  H   UNL     1      -1.760  10.776  22.010  0.00  0.00    +0.000 HD
BRANCH  20  23
ATOM     23  C   UNL     1      -1.662  13.186  22.899  0.00  0.00    +0.000 A 
ATOM     24  C   UNL     1      -1.314  14.255  23.747  0.00  0.00    +0.000 A 
ATOM     25  C   UNL     1      -2.277  14.863  24.562  0.00  0.00    +0.000 A 
ATOM     26  C   UNL     1      -3.603  14.444  24.502  0.00  0.00    +0.000 A 
ATOM     27  C   UNL     1      -3.962  13.448  23.591  0.00  0.00    +0.000 A 
ATOM     28  C   UNL     1      -3.004  12.811  22.798  0.00  0.00    +0.000 A 
BRANCH  27  29
ATOM     29  S   UNL     1      -5.653  12.903  23.507  0.00  0.00    +0.000 S 
ATOM     30  C   UNL     1      -6.588  14.399  23.716  0.00  0.00    +0.000 C 
ATOM     31  O   UNL     1      -5.876  12.412  22.165  0.00  0.00    +0.000 OA
ATOM     32  O   UNL     1      -5.884  12.062  24.661  0.00  0.00    +0.000 OA
ENDBRANCH  27  29
ENDBRANCH  20  23
ENDBRANCH   4  19
TORSDOF 5
ENDMDL
MODEL 8
REMARK VINA RESULT:      -8.2      3.502     11.302
REMARK  Name = 
REMARK  8 active torsions:
REMARK  status: ('A' for Active; 'I' for Inactive)
REMARK    1  A    between atoms: C_1  and  C_2
REMARK    2  A    between atoms: C_6  and  C_7
REMARK    3  A    between atoms: N_9  and  C_10
REMARK    4  A    between atoms: C_13  and  N_14
REMARK    5  A    between atoms: C_15  and  C_17
REMARK    6  A    between atoms: C_21  and  S_22
REMARK    7  A    between atoms: S_22  and  C_23
REMARK    8  A    between atoms: C_27  and  C_28
REMARK                            x       y       z     vdW  Elec       q    Type
REMARK                         _______ _______ _______ _____ _____    ______ ____
ROOT
ATOM      1  C   UNL     1       1.739   8.509  19.150  0.00  0.00    +0.000 A 
ATOM      2  C   UNL     1       0.979   9.439  18.457  0.00  0.00    +0.000 A 
ATOM      3  C   UNL     1       0.098  10.292  19.132  0.00  0.00    +0.000 A 
ATOM      4  C   UNL     1      -0.071  10.239  20.519  0.00  0.00    +0.000 A 
ATOM      5  C   UNL     1       0.605   9.214  21.223  0.00  0.00    +0.000 A 
ATOM      6  C   UNL     1       0.484   8.939  22.699  0.00  0.00    +0.000 C 
ATOM      7  C   UNL     1       1.521   8.380  20.524  0.00  0.00    +0.000 A 
ENDROOT
BRANCH   1  10
ATOM      8  C   UNL     1       2.769   6.298  18.577  0.00  0.00    +0.000 C 
ATOM      9  O   UNL     1       1.968   5.562  19.138  0.00  0.00    +0.000 OA
ATOM     10  N   UNL     1       2.714   7.691  18.535  0.00  0.00    +0.000 N 
ATOM     11  H   UNL     1       3.384   8.127  17.907  0.00  0.00    +0.000 HD
BRANCH   8  17
ATOM     12  C   UNL     1       7.381   6.637  17.094  0.00  0.00    +0.000 C 
ATOM     13  C   UNL     1       6.104   5.855  17.096  0.00  0.00    +0.000 A 
ATOM     14  C   UNL     1       6.002   4.657  16.391  0.00  0.00    +0.000 A 
ATOM     15  C   UNL     1       4.791   3.965  16.405  0.00  0.00    +0.000 A 
ATOM     16  C   UNL     1       3.723   4.491  17.123  0.00  0.00    +0.000 A 
ATOM     17  C   UNL     1       3.905   5.692  17.803  0.00  0.00    +0.000 A 
ATOM     18  N   UNL     1       5.076   6.387  17.804  0.00  0.00    +0.000 NA
ENDBRANCH   8  17
ENDBRANCH   1  10
BRANCH   4  19
ATOM     19  N   UNL     1      -0.908  11.186  21.175  0.00  0.00    +0.000 N 
ATOM     20  C   UNL     1      -0.494  12.393  21.757  0.00  0.00    +0.000 C 
ATOM     21  O   UNL     1       0.645  12.836  21.797  0.00  0.00    +0.000 OA
ATOM     22  H   UNL     1      -1.854  10.883  21.355  0.00  0.00    +0.000 HD
BRANCH  20  23
ATOM     23  C   UNL     1      -1.556  13.183  22.465  0.00  0.00    +0.000 A 
ATOM     24  C   UNL     1      -1.195  14.359  23.150  0.00  0.00    +0.000 A 
ATOM     25  C   UNL     1      -2.134  15.054  23.922  0.00  0.00    +0.000 A 
ATOM     26  C   UNL     1      -3.452  14.611  23.978  0.00  0.00    +0.000 A 
ATOM     27  C   UNL     1      -3.830  13.499  23.221  0.00  0.00    +0.000 A 
ATOM     28  C   UNL     1      -2.894  12.778  22.475  0.00  0.00    +0.000 A 
BRANCH  27  29
ATOM     29  S   UNL     1      -5.511  12.922  23.286  0.00  0.00    +0.000 S 
ATOM     30  C   UNL     1      -6.461  14.414  23.451  0.00  0.00    +0.000 C 
ATOM     31  O   UNL     1      -5.809  12.335  21.999  0.00  0.00    +0.000 OA
ATOM     32  O   UNL     1      -5.650  12.161  24.508  0.00  0.00    +0.000 OA
ENDBRANCH  27  29
ENDBRANCH  20  23
ENDBRANCH   4  19
TORSDOF 5
ENDMDL
MODEL 9
REMARK VINA RESULT:      -8.1      3.984     11.334
REMARK  Name = 
REMARK  8 active torsions:
REMARK  status: ('A' for Active; 'I' for Inactive)
REMARK    1  A    between atoms: C_1  and  C_2
REMARK    2  A    between atoms: C_6  and  C_7
REMARK    3  A    between atoms: N_9  and  C_10
REMARK    4  A    between atoms: C_13  and  N_14
REMARK    5  A    between atoms: C_15  and  C_17
REMARK    6  A    between atoms: C_21  and  S_22
REMARK    7  A    between atoms: S_22  and  C_23
REMARK    8  A    between atoms: C_27  and  C_28
REMARK                            x       y       z     vdW  Elec       q    Type
REMARK                         _______ _______ _______ _____ _____    ______ ____
ROOT
ATOM      1  C   UNL     1       2.295   8.201  18.621  0.00  0.00    +0.000 A 
ATOM      2  C   UNL     1       1.562   8.989  17.746  0.00  0.00    +0.000 A 
ATOM      3  C   UNL     1       0.526   9.808  18.211  0.00  0.00    +0.000 A 
ATOM      4  C   UNL     1       0.171   9.859  19.563  0.00  0.00    +0.000 A 
ATOM      5  C   UNL     1       0.827   8.969  20.447  0.00  0.00    +0.000 A 
ATOM      6  C   UNL     1       0.524   8.814  21.915  0.00  0.00    +0.000 C 
ATOM      7  C   UNL     1       1.899   8.171  19.960  0.00  0.00    +0.000 A 
ENDROOT
BRANCH   1  10
ATOM      8  C   UNL     1       3.408   6.073  17.907  0.00  0.00    +0.000 C 
ATOM      9  O   UNL     1       2.430   5.336  17.905  0.00  0.00    +0.000 OA
ATOM     10  N   UNL     1       3.411   7.432  18.223  0.00  0.00    +0.000 N 
ATOM     11  H   UNL     1       4.286   7.912  18.035  0.00  0.00    +0.000 HD
BRANCH   8  17
ATOM     12  C   UNL     1       6.109   4.063  14.407  0.00  0.00    +0.000 C 
ATOM     13  C   UNL     1       6.028   4.565  15.816  0.00  0.00    +0.000 A 
ATOM     14  C   UNL     1       7.131   4.487  16.664  0.00  0.00    +0.000 A 
ATOM     15  C   UNL     1       7.011   4.952  17.974  0.00  0.00    +0.000 A 
ATOM     16  C   UNL     1       5.796   5.480  18.394  0.00  0.00    +0.000 A 
ATOM     17  C   UNL     1       4.740   5.524  17.486  0.00  0.00    +0.000 A 
ATOM     18  N   UNL     1       4.832   5.077  16.203  0.00  0.00    +0.000 NA
ENDBRANCH   8  17
ENDBRANCH   1  10
BRANCH   4  19
ATOM     19  N   UNL     1      -0.827  10.773  20.006  0.00  0.00    +0.000 N 
ATOM     20  C   UNL     1      -0.632  12.130  20.304  0.00  0.00    +0.000 C 
ATOM     21  O   UNL     1       0.418  12.754  20.232  0.00  0.00    +0.000 OA
ATOM     22  H   UNL     1      -1.713  10.365  20.260  0.00  0.00    +0.000 HD
BRANCH  20  23
ATOM     23  C   UNL     1      -1.827  12.867  20.835  0.00  0.00    +0.000 A 
ATOM     24  C   UNL     1      -1.639  13.863  21.813  0.00  0.00    +0.000 A 
ATOM     25  C   UNL     1      -2.737  14.486  22.419  0.00  0.00    +0.000 A 
ATOM     26  C   UNL     1      -4.029  14.156  22.022  0.00  0.00    +0.000 A 
ATOM     27  C   UNL     1      -4.210  13.236  20.985  0.00  0.00    +0.000 A 
ATOM     28  C   UNL     1      -3.123  12.584  20.398  0.00  0.00    +0.000 A 
BRANCH  27  29
ATOM     29  S   UNL     1      -5.857  12.806  20.470  0.00  0.00    +0.000 S 
ATOM     30  C   UNL     1      -5.635  12.196  18.817  0.00  0.00    +0.000 C 
ATOM     31  O   UNL     1      -6.290  11.707  21.306  0.00  0.00    +0.000 OA
ATOM     32  O   UNL     1      -6.613  14.037  20.400  0.00  0.00    +0.000 OA
ENDBRANCH  27  29
ENDBRANCH  20  23
ENDBRANCH   4  19
TORSDOF 5
ENDMDL
