MODEL 1
REMARK VINA RESULT:      -8.3      0.000      0.000
REMARK  Name = 
REMARK  4 active torsions:
REMARK  status: ('A' for Active; 'I' for Inactive)
REMARK    1  A    between atoms: C_1  and  C_2
REMARK    2  A    between atoms: C_7  and  C_8
REMARK    3  A    between atoms: N_12  and  C_13
REMARK    4  A    between atoms: N_21  and  C_22
REMARK                            x       y       z     vdW  Elec       q    Type
REMARK                         _______ _______ _______ _____ _____    ______ ____
ROOT
ATOM      1  C   UNL     1       4.213   3.875  19.338  0.00  0.00    +0.000 C 
ATOM      2  C   UNL     1       3.060   2.861  19.339  0.00  0.00    +0.000 C 
ATOM      3  C   UNL     1       1.719   3.483  18.953  0.00  0.00    +0.000 C 
ATOM      4  C   UNL     1       1.384   4.672  19.850  0.00  0.00    +0.000 C 
ATOM      5  N   UNL     1       2.475   5.628  19.762  0.00  0.00    +0.000 N 
ATOM      6  C   UNL     1       3.836   5.183  20.064  0.00  0.00    +0.000 C 
ENDROOT
BRANCH   1  13
ATOM      7  C   UNL     1       6.434   3.717  12.259  0.00  0.00    +0.000 C 
ATOM      8  C   UNL     1       6.369   4.066  13.718  0.00  0.00    +0.000 A 
ATOM      9  C   UNL     1       7.356   4.871  14.307  0.00  0.00    +0.000 A 
ATOM     10  C   UNL     1       7.302   5.229  15.659  0.00  0.00    +0.000 A 
ATOM     11  C   UNL     1       6.228   4.735  16.399  0.00  0.00    +0.000 A 
ATOM     12  N   UNL     1       5.860   4.881  17.706  0.00  0.00    +0.000 N 
ATOM     13  C   UNL     1       4.778   4.083  17.961  0.00  0.00    +0.000 A 
ATOM     14  N   UNL     1       4.361   3.508  16.838  0.00  0.00    +0.000 NA
ATOM     15  C   UNL     1       5.251   3.903  15.868  0.00  0.00    +0.000 A 
ATOM     16  C   UNL     1       5.308   3.571  14.500  0.00  0.00    +0.000 A 
ATOM     17  H   UNL     1       6.366   5.405  18.412  0.00  0.00    +0.000 HD
ENDBRANCH   1  13
BRANCH   5  18
ATOM     18  C   UNL     1       2.222   6.926  19.378  0.00  0.00    +0.000 A 
ATOM     19  N   UNL     1       2.555   7.311  18.114  0.00  0.00    +0.000 NA
ATOM     20  C   UNL     1       2.267   8.563  17.708  0.00  0.00    +0.000 A 
ATOM     21  N   UNL     1       1.690   9.558  18.401  0.00  0.00    +0.000 NA
ATOM     22  C   UNL     1       1.409   9.165  19.667  0.00  0.00    +0.000 A 
ATOM     23  C   UNL     1       1.601   7.906  20.195  0.00  0.00    +0.000 A 
ATOM     24  N   UNL     1       1.179   7.852  21.514  0.00  0.00    +0.000 NA
ATOM     25  C   UNL     1       0.827   9.076  21.799  0.00  0.00    +0.000 A 
ATOM     26  N   UNL     1       0.923   9.903  20.716  0.00  0.00    +0.000 N 
BRANCH  26  27
ATOM     27  C   UNL     1       0.547  11.296  20.772  0.00  0.00    +0.000 C 
ATOM     28  C   UNL     1      -0.428  11.823  21.797  0.00  0.00    +0.000 C 
ATOM     29  C   UNL     1      -0.818  11.821  20.357  0.00  0.00    +0.000 C 
ENDBRANCH  26  27
ENDBRANCH   5  18
TORSDOF 3
ENDMDL
MODEL 2
REMARK VINA RESULT:      -8.0      3.321      5.010
REMARK  Name = 
REMARK  4 active torsions:
REMARK  status: ('A' for Active; 'I' for Inactive)
REMARK    1  A    between atoms: C_1  and  C_2
REMARK    2  A    between atoms: C_7  and  C_8
REMARK    3  A    between atoms: N_12  and  C_13
REMARK    4  A    between atoms: N_21  and  C_22
REMARK                            x       y       z     vdW  Elec       q    Type
REMARK                         _______ _______ _______ _____ _____    ______ ____
ROOT
ATOM      1  C   UNL     1       7.331   5.341  17.632  0.00  0.00    +0.000 C 
ATOM      2  C   UNL     1       7.069   5.045  16.148  0.00  0.00    +0.000 C 
ATOM      3  C   UNL     1       5.627   5.326  15.729  0.00  0.00    +0.000 C 
ATOM      4  C   UNL     1       4.639   4.561  16.607  0.00  0.00    +0.000 C 
ATOM      5  N   UNL     1       4.887   4.927  17.991  0.00  0.00    +0.000 N 
ATOM      6  C   UNL     1       6.232   4.756  18.543  0.00  0.00    +0.000 C 
ENDROOT
BRANCH   1  13
ATOM      7  C   UNL     1       8.430  12.679  17.523  0.00  0.00    +0.000 C 
ATOM      8  C   UNL     1       8.499  11.241  17.947  0.00  0.00    +0.000 A 
ATOM      9  C   UNL     1       9.326  10.846  19.009  0.00  0.00    +0.000 A 
ATOM     10  C   UNL     1       9.387   9.515  19.438  0.00  0.00    +0.000 A 
ATOM     11  C   UNL     1       8.597   8.595  18.749  0.00  0.00    +0.000 A 
ATOM     12  N   UNL     1       8.405   7.251  18.892  0.00  0.00    +0.000 N 
ATOM     13  C   UNL     1       7.612   6.798  17.874  0.00  0.00    +0.000 A 
ATOM     14  N   UNL     1       7.189   7.820  17.136  0.00  0.00    +0.000 NA
ATOM     15  C   UNL     1       7.795   8.933  17.667  0.00  0.00    +0.000 A 
ATOM     16  C   UNL     1       7.727  10.281  17.264  0.00  0.00    +0.000 A 
ATOM     17  H   UNL     1       8.862   6.653  19.573  0.00  0.00    +0.000 HD
ENDBRANCH   1  13
BRANCH   5  18
ATOM     18  C   UNL     1       3.868   5.446  18.758  0.00  0.00    +0.000 A 
ATOM     19  N   UNL     1       3.383   4.702  19.792  0.00  0.00    +0.000 NA
ATOM     20  C   UNL     1       2.422   5.217  20.582  0.00  0.00    +0.000 A 
ATOM     21  N   UNL     1       1.813   6.411  20.494  0.00  0.00    +0.000 NA
ATOM     22  C   UNL     1       2.280   7.114  19.433  0.00  0.00    +0.000 A 
ATOM     23  C   UNL     1       3.292   6.730  18.579  0.00  0.00    +0.000 A 
ATOM     24  N   UNL     1       3.528   7.704  17.621  0.00  0.00    +0.000 NA
ATOM     25  C   UNL     1       2.615   8.611  17.840  0.00  0.00    +0.000 A 
ATOM     26  N   UNL     1       1.851   8.317  18.934  0.00  0.00    +0.000 N 
BRANCH  26  27
ATOM     27  C   UNL     1       0.803   9.193  19.402  0.00  0.00    +0.000 C 
ATOM     28  C   UNL     1       0.953  10.695  19.400  0.00  0.00    +0.000 C 
ATOM     29  C   UNL     1       0.873   9.975  20.704  0.00  0.00    +0.000 C 
ENDBRANCH  26  27
ENDBRANCH   5  18
TORSDOF 3
ENDMDL
MODEL 3
REMARK VINA RESULT:      -7.8      0.615      1.321
REMARK  Name = 
REMARK  4 active torsions:
REMARK  status: ('A' for Active; 'I' for Inactive)
REMARK    1  A    between atoms: C_1  and  C_2
REMARK    2  A    between atoms: C_7  and  C_8
REMARK    3  A    between atoms: N_12  and  C_13
REMARK    4  A    between atoms: N_21  and  C_22
REMARK                            x       y       z     vdW  Elec       q    Type
REMARK                         _______ _______ _______ _____ _____    ______ ____
ROOT
ATOM      1  C   UNL     1       4.696   3.717  19.291  0.00  0.00    +0.000 C 
ATOM      2  C   UNL     1       3.576   2.666  19.298  0.00  0.00    +0.000 C 
ATOM      3  C   UNL     1       2.232   3.223  18.834  0.00  0.00    +0.000 C 
ATOM      4  C   UNL     1       1.825   4.440  19.660  0.00  0.00    +0.000 C 
ATOM      5  N   UNL     1       2.887   5.428  19.565  0.00  0.00    +0.000 N 
ATOM      6  C   UNL     1       4.249   5.044  19.938  0.00  0.00    +0.000 C 
ENDROOT
BRANCH   1  13
ATOM      7  C   UNL     1       8.226   5.649  13.056  0.00  0.00    +0.000 C 
ATOM      8  C   UNL     1       7.247   4.994  13.987  0.00  0.00    +0.000 A 
ATOM      9  C   UNL     1       6.194   4.213  13.487  0.00  0.00    +0.000 A 
ATOM     10  C   UNL     1       5.285   3.572  14.337  0.00  0.00    +0.000 A 
ATOM     11  C   UNL     1       5.466   3.760  15.707  0.00  0.00    +0.000 A 
ATOM     12  N   UNL     1       4.793   3.296  16.800  0.00  0.00    +0.000 N 
ATOM     13  C   UNL     1       5.306   3.879  17.926  0.00  0.00    +0.000 A 
ATOM     14  N   UNL     1       6.363   4.621  17.614  0.00  0.00    +0.000 NA
ATOM     15  C   UNL     1       6.468   4.556  16.246  0.00  0.00    +0.000 A 
ATOM     16  C   UNL     1       7.388   5.174  15.376  0.00  0.00    +0.000 A 
ATOM     17  H   UNL     1       3.970   2.702  16.786  0.00  0.00    +0.000 HD
ENDBRANCH   1  13
BRANCH   5  18
ATOM     18  C   UNL     1       2.608   6.697  19.111  0.00  0.00    +0.000 A 
ATOM     19  N   UNL     1       3.062   7.066  17.880  0.00  0.00    +0.000 NA
ATOM     20  C   UNL     1       2.753   8.286  17.401  0.00  0.00    +0.000 A 
ATOM     21  N   UNL     1       2.045   9.264  17.989  0.00  0.00    +0.000 NA
ATOM     22  C   UNL     1       1.643   8.891  19.228  0.00  0.00    +0.000 A 
ATOM     23  C   UNL     1       1.843   7.661  19.818  0.00  0.00    +0.000 A 
ATOM     24  N   UNL     1       1.276   7.619  21.082  0.00  0.00    +0.000 NA
ATOM     25  C   UNL     1       0.825   8.828  21.283  0.00  0.00    +0.000 A 
ATOM     26  N   UNL     1       0.999   9.628  20.189  0.00  0.00    +0.000 N 
BRANCH  26  27
ATOM     27  C   UNL     1       0.541  10.997  20.155  0.00  0.00    +0.000 C 
ATOM     28  C   UNL     1      -0.481  11.526  21.131  0.00  0.00    +0.000 C 
ATOM     29  C   UNL     1      -0.845  11.413  19.689  0.00  0.00    +0.000 C 
ENDBRANCH  26  27
ENDBRANCH   5  18
TORSDOF 3
ENDMDL
MODEL 4
REMARK VINA RESULT:      -7.5      6.596     10.295
REMARK  Name = 
REMARK  4 active torsions:
REMARK  status: ('A' for Active; 'I' for Inactive)
REMARK    1  A    between atoms: C_1  and  C_2
REMARK    2  A    between atoms: C_7  and  C_8
REMARK    3  A    between atoms: N_12  and  C_13
REMARK    4  A    between atoms: N_21  and  C_22
REMARK                            x       y       z     vdW  Elec       q    Type
REMARK                         _______ _______ _______ _____ _____    ______ ____
ROOT
ATOM      1  C   UNL     1      -6.104  11.217  18.051  0.00  0.00    +0.000 C 
ATOM      2  C   UNL     1      -6.631  12.455  17.311  0.00  0.00    +0.000 C 
ATOM      3  C   UNL     1      -6.612  13.716  18.172  0.00  0.00    +0.000 C 
ATOM      4  C   UNL     1      -7.379  13.508  19.475  0.00  0.00    +0.000 C 
ATOM      5  N   UNL     1      -6.798  12.367  20.164  0.00  0.00    +0.000 N 
ATOM      6  C   UNL     1      -6.706  11.085  19.465  0.00  0.00    +0.000 C 
ENDROOT
BRANCH   1  13
ATOM      7  C   UNL     1       1.118   9.512  17.997  0.00  0.00    +0.000 C 
ATOM      8  C   UNL     1      -0.152  10.295  18.150  0.00  0.00    +0.000 A 
ATOM      9  C   UNL     1      -0.132  11.603  18.659  0.00  0.00    +0.000 A 
ATOM     10  C   UNL     1      -1.301  12.361  18.786  0.00  0.00    +0.000 A 
ATOM     11  C   UNL     1      -2.493  11.750  18.398  0.00  0.00    +0.000 A 
ATOM     12  N   UNL     1      -3.789  12.179  18.378  0.00  0.00    +0.000 N 
ATOM     13  C   UNL     1      -4.602  11.140  18.017  0.00  0.00    +0.000 A 
ATOM     14  N   UNL     1      -3.870  10.079  17.693  0.00  0.00    +0.000 NA
ATOM     15  C   UNL     1      -2.567  10.445  17.927  0.00  0.00    +0.000 A 
ATOM     16  C   UNL     1      -1.377   9.705  17.783  0.00  0.00    +0.000 A 
ATOM     17  H   UNL     1      -4.121  13.087  18.688  0.00  0.00    +0.000 HD
ENDBRANCH   1  13
BRANCH   5  18
ATOM     18  C   UNL     1      -6.326  12.509  21.449  0.00  0.00    +0.000 A 
ATOM     19  N   UNL     1      -7.135  12.154  22.487  0.00  0.00    +0.000 NA
ATOM     20  C   UNL     1      -6.668  12.238  23.747  0.00  0.00    +0.000 A 
ATOM     21  N   UNL     1      -5.467  12.664  24.170  0.00  0.00    +0.000 NA
ATOM     22  C   UNL     1      -4.697  13.053  23.126  0.00  0.00    +0.000 A 
ATOM     23  C   UNL     1      -5.028  12.971  21.790  0.00  0.00    +0.000 A 
ATOM     24  N   UNL     1      -3.993  13.435  20.993  0.00  0.00    +0.000 NA
ATOM     25  C   UNL     1      -3.097  13.872  21.836  0.00  0.00    +0.000 A 
ATOM     26  N   UNL     1      -3.459  13.644  23.134  0.00  0.00    +0.000 N 
BRANCH  26  27
ATOM     27  C   UNL     1      -2.610  14.000  24.246  0.00  0.00    +0.000 C 
ATOM     28  C   UNL     1      -3.088  14.891  25.367  0.00  0.00    +0.000 C 
ATOM     29  C   UNL     1      -2.021  15.387  24.449  0.00  0.00    +0.000 C 
ENDBRANCH  26  27
ENDBRANCH   5  18
TORSDOF 3
ENDMDL
MODEL 5
REMARK VINA RESULT:      -7.4      2.029      6.848
REMARK  Name = 
REMARK  4 active torsions:
REMARK  status: ('A' for Active; 'I' for Inactive)
REMARK    1  A    between atoms: C_1  and  C_2
REMARK    2  A    between atoms: C_7  and  C_8
REMARK    3  A    between atoms: N_12  and  C_13
REMARK    4  A    between atoms: N_21  and  C_22
REMARK                            x       y       z     vdW  Elec       q    Type
REMARK                         _______ _______ _______ _____ _____    ______ ____
ROOT
ATOM      1  C   UNL     1       1.852   3.345  18.287  0.00  0.00    +0.000 C 
ATOM      2  C   UNL     1       2.227   2.208  19.248  0.00  0.00    +0.000 C 
ATOM      3  C   UNL     1       3.735   2.065  19.442  0.00  0.00    +0.000 C 
ATOM      4  C   UNL     1       4.449   1.888  18.104  0.00  0.00    +0.000 C 
ATOM      5  N   UNL     1       4.112   3.022  17.258  0.00  0.00    +0.000 N 
ATOM      6  C   UNL     1       2.704   3.323  17.001  0.00  0.00    +0.000 C 
ENDROOT
BRANCH   1  13
ATOM      7  C   UNL     1       0.769   9.383  22.464  0.00  0.00    +0.000 C 
ATOM      8  C   UNL     1       1.169   8.509  21.311  0.00  0.00    +0.000 A 
ATOM      9  C   UNL     1       1.646   9.071  20.117  0.00  0.00    +0.000 A 
ATOM     10  C   UNL     1       2.050   8.276  19.039  0.00  0.00    +0.000 A 
ATOM     11  C   UNL     1       1.940   6.895  19.200  0.00  0.00    +0.000 A 
ATOM     12  N   UNL     1       2.238   5.842  18.384  0.00  0.00    +0.000 N 
ATOM     13  C   UNL     1       1.826   4.680  18.978  0.00  0.00    +0.000 A 
ATOM     14  N   UNL     1       1.372   4.930  20.202  0.00  0.00    +0.000 NA
ATOM     15  C   UNL     1       1.436   6.295  20.347  0.00  0.00    +0.000 A 
ATOM     16  C   UNL     1       1.057   7.111  21.431  0.00  0.00    +0.000 A 
ATOM     17  H   UNL     1       2.602   5.905  17.438  0.00  0.00    +0.000 HD
ENDBRANCH   1  13
BRANCH   5  18
ATOM     18  C   UNL     1       5.113   3.806  16.729  0.00  0.00    +0.000 A 
ATOM     19  N   UNL     1       5.610   3.492  15.500  0.00  0.00    +0.000 NA
ATOM     20  C   UNL     1       6.552   4.280  14.948  0.00  0.00    +0.000 A 
ATOM     21  N   UNL     1       7.131   5.380  15.458  0.00  0.00    +0.000 NA
ATOM     22  C   UNL     1       6.653   5.646  16.697  0.00  0.00    +0.000 A 
ATOM     23  C   UNL     1       5.657   4.957  17.356  0.00  0.00    +0.000 A 
ATOM     24  N   UNL     1       5.403   5.519  18.598  0.00  0.00    +0.000 NA
ATOM     25  C   UNL     1       6.292   6.468  18.719  0.00  0.00    +0.000 A 
ATOM     26  N   UNL     1       7.055   6.603  17.594  0.00  0.00    +0.000 N 
BRANCH  26  27
ATOM     27  C   UNL     1       8.077   7.615  17.472  0.00  0.00    +0.000 C 
ATOM     28  C   UNL     1       8.569   8.405  18.661  0.00  0.00    +0.000 C 
ATOM     29  C   UNL     1       7.807   9.107  17.587  0.00  0.00    +0.000 C 
ENDBRANCH  26  27
ENDBRANCH   5  18
TORSDOF 3
ENDMDL
MODEL 6
REMARK VINA RESULT:      -7.2      6.604      9.000
REMARK  Name = 
REMARK  4 active torsions:
REMARK  status: ('A' for Active; 'I' for Inactive)
REMARK    1  A    between atoms: C_1  and  C_2
REMARK    2  A    between atoms: C_7  and  C_8
REMARK    3  A    between atoms: N_12  and  C_13
REMARK    4  A    between atoms: N_21  and  C_22
REMARK                            x       y       z     vdW  Elec       q    Type
REMARK                         _______ _______ _______ _____ _____    ______ ____
ROOT
ATOM      1  C   UNL     1       0.283  10.697  20.286  0.00  0.00    +0.000 C 
ATOM      2  C   UNL     1       0.400   9.400  21.099  0.00  0.00    +0.000 C 
ATOM      3  C   UNL     1      -0.639   9.298  22.213  0.00  0.00    +0.000 C 
ATOM      4  C   UNL     1      -0.578  10.512  23.137  0.00  0.00    +0.000 C 
ATOM      5  N   UNL     1      -0.760  11.706  22.328  0.00  0.00    +0.000 N 
ATOM      6  C   UNL     1       0.133  11.937  21.192  0.00  0.00    +0.000 C 
ENDROOT
BRANCH   1  13
ATOM      7  C   UNL     1      -3.851   9.980  14.166  0.00  0.00    +0.000 C 
ATOM      8  C   UNL     1      -3.426  10.365  15.552  0.00  0.00    +0.000 A 
ATOM      9  C   UNL     1      -4.240  11.183  16.351  0.00  0.00    +0.000 A 
ATOM     10  C   UNL     1      -3.876  11.534  17.656  0.00  0.00    +0.000 A 
ATOM     11  C   UNL     1      -2.655  11.045  18.121  0.00  0.00    +0.000 A 
ATOM     12  N   UNL     1      -2.000  11.177  19.312  0.00  0.00    +0.000 N 
ATOM     13  C   UNL     1      -0.765  10.596  19.213  0.00  0.00    +0.000 A 
ATOM     14  N   UNL     1      -0.638   9.994  18.035  0.00  0.00    +0.000 NA
ATOM     15  C   UNL     1      -1.798  10.268  17.353  0.00  0.00    +0.000 A 
ATOM     16  C   UNL     1      -2.192   9.904  16.051  0.00  0.00    +0.000 A 
ATOM     17  H   UNL     1      -2.319  11.714  20.112  0.00  0.00    +0.000 HD
ENDBRANCH   1  13
BRANCH   5  18
ATOM     18  C   UNL     1      -1.774  12.589  22.624  0.00  0.00    +0.000 A 
ATOM     19  N   UNL     1      -3.064  12.192  22.436  0.00  0.00    +0.000 NA
ATOM     20  C   UNL     1      -4.067  13.026  22.770  0.00  0.00    +0.000 A 
ATOM     21  N   UNL     1      -3.992  14.272  23.266  0.00  0.00    +0.000 NA
ATOM     22  C   UNL     1      -2.702  14.661  23.401  0.00  0.00    +0.000 A 
ATOM     23  C   UNL     1      -1.585  13.894  23.150  0.00  0.00    +0.000 A 
ATOM     24  N   UNL     1      -0.424  14.602  23.420  0.00  0.00    +0.000 NA
ATOM     25  C   UNL     1      -0.836  15.800  23.739  0.00  0.00    +0.000 A 
ATOM     26  N   UNL     1      -2.199  15.884  23.767  0.00  0.00    +0.000 N 
BRANCH  26  27
ATOM     27  C   UNL     1      -2.890  17.097  24.136  0.00  0.00    +0.000 C 
ATOM     28  C   UNL     1      -2.533  17.878  25.377  0.00  0.00    +0.000 C 
ATOM     29  C   UNL     1      -3.858  17.196  25.304  0.00  0.00    +0.000 C 
ENDBRANCH  26  27
ENDBRANCH   5  18
TORSDOF 3
ENDMDL
MODEL 7
REMARK VINA RESULT:      -7.0      4.694      8.362
REMARK  Name = 
REMARK  4 active torsions:
REMARK  status: ('A' for Active; 'I' for Inactive)
REMARK    1  A    between atoms: C_1  and  C_2
REMARK    2  A    between atoms: C_7  and  C_8
REMARK    3  A    between atoms: N_12  and  C_13
REMARK    4  A    between atoms: N_21  and  C_22
REMARK                            x       y       z     vdW  Elec       q    Type
REMARK                         _______ _______ _______ _____ _____    ______ ____
ROOT
ATOM      1  C   UNL     1      -0.533  12.628  21.583  0.00  0.00    +0.000 C 
ATOM      2  C   UNL     1      -1.090  12.439  23.002  0.00  0.00    +0.000 C 
ATOM      3  C   UNL     1      -2.517  11.895  23.014  0.00  0.00    +0.000 C 
ATOM      4  C   UNL     1      -3.451  12.775  22.188  0.00  0.00    +0.000 C 
ATOM      5  N   UNL     1      -2.912  12.867  20.841  0.00  0.00    +0.000 N 
ATOM      6  C   UNL     1      -1.539  13.337  20.654  0.00  0.00    +0.000 C 
ENDROOT
BRANCH   1  13
ATOM      7  C   UNL     1       2.497   6.022  20.082  0.00  0.00    +0.000 C 
ATOM      8  C   UNL     1       1.992   7.424  19.904  0.00  0.00    +0.000 A 
ATOM      9  C   UNL     1       2.188   8.108  18.694  0.00  0.00    +0.000 A 
ATOM     10  C   UNL     1       1.704   9.407  18.496  0.00  0.00    +0.000 A 
ATOM     11  C   UNL     1       1.031   9.997  19.566  0.00  0.00    +0.000 A 
ATOM     12  N   UNL     1       0.436  11.215  19.724  0.00  0.00    +0.000 N 
ATOM     13  C   UNL     1       0.019  11.348  21.021  0.00  0.00    +0.000 A 
ATOM     14  N   UNL     1       0.223  10.214  21.683  0.00  0.00    +0.000 NA
ATOM     15  C   UNL     1       0.850   9.375  20.794  0.00  0.00    +0.000 A 
ATOM     16  C   UNL     1       1.322   8.059  20.967  0.00  0.00    +0.000 A 
ATOM     17  H   UNL     1       0.402  11.957  19.032  0.00  0.00    +0.000 HD
ENDBRANCH   1  13
BRANCH   5  18
ATOM     18  C   UNL     1      -3.686  12.495  19.764  0.00  0.00    +0.000 A 
ATOM     19  N   UNL     1      -4.979  12.921  19.708  0.00  0.00    +0.000 NA
ATOM     20  C   UNL     1      -5.732  12.608  18.636  0.00  0.00    +0.000 A 
ATOM     21  N   UNL     1      -5.397  11.878  17.560  0.00  0.00    +0.000 NA
ATOM     22  C   UNL     1      -4.123  11.428  17.660  0.00  0.00    +0.000 A 
ATOM     23  C   UNL     1      -3.230  11.715  18.670  0.00  0.00    +0.000 A 
ATOM     24  N   UNL     1      -2.006  11.107  18.438  0.00  0.00    +0.000 NA
ATOM     25  C   UNL     1      -2.190  10.395  17.359  0.00  0.00    +0.000 A 
ATOM     26  N   UNL     1      -3.440  10.570  16.835  0.00  0.00    +0.000 N 
BRANCH  26  27
ATOM     27  C   UNL     1      -3.865   9.920  15.618  0.00  0.00    +0.000 C 
ATOM     28  C   UNL     1      -2.882   9.465  14.566  0.00  0.00    +0.000 C 
ATOM     29  C   UNL     1      -3.821  10.580  14.249  0.00  0.00    +0.000 C 
ENDBRANCH  26  27
ENDBRANCH   5  18
TORSDOF 3
ENDMDL
MODEL 8
REMARK VINA RESULT:      -7.0      5.433     11.341
REMARK  Name = 
REMARK  4 active torsions:
REMARK  status: ('A' for Active; 'I' for Inactive)
REMARK    1  A    between atoms: C_1  and  C_2
REMARK    2  A    between atoms: C_7  and  C_8
REMARK    3  A    between atoms: N_12  and  C_13
REMARK    4  A    between atoms: N_21  and  C_22
REMARK                            x       y       z     vdW  Elec       q    Type
REMARK                         _______ _______ _______ _____ _____    ______ ____
ROOT
ATOM      1  C   UNL     1      -4.129  13.737  23.297  0.00  0.00    +0.000 C 
ATOM      2  C   UNL     1      -3.391  15.080  23.395  0.00  0.00    +0.000 C 
ATOM      3  C   UNL     1      -1.983  15.030  22.807  0.00  0.00    +0.000 C 
ATOM      4  C   UNL     1      -1.155  13.920  23.449  0.00  0.00    +0.000 C 
ATOM      5  N   UNL     1      -1.866  12.665  23.271  0.00  0.00    +0.000 N 
ATOM      6  C   UNL     1      -3.245  12.555  23.746  0.00  0.00    +0.000 C 
ENDROOT
BRANCH   1  13
ATOM      7  C   UNL     1      -7.651  14.064  16.773  0.00  0.00    +0.000 C 
ATOM      8  C   UNL     1      -7.025  13.512  18.020  0.00  0.00    +0.000 A 
ATOM      9  C   UNL     1      -7.121  12.146  18.327  0.00  0.00    +0.000 A 
ATOM     10  C   UNL     1      -6.523  11.605  19.471  0.00  0.00    +0.000 A 
ATOM     11  C   UNL     1      -5.840  12.491  20.303  0.00  0.00    +0.000 A 
ATOM     12  N   UNL     1      -5.149  12.320  21.469  0.00  0.00    +0.000 N 
ATOM     13  C   UNL     1      -4.768  13.543  21.949  0.00  0.00    +0.000 A 
ATOM     14  N   UNL     1      -5.088  14.495  21.080  0.00  0.00    +0.000 NA
ATOM     15  C   UNL     1      -5.753  13.856  20.062  0.00  0.00    +0.000 A 
ATOM     16  C   UNL     1      -6.340  14.379  18.893  0.00  0.00    +0.000 A 
ATOM     17  H   UNL     1      -5.030  11.444  21.968  0.00  0.00    +0.000 HD
ENDBRANCH   1  13
BRANCH   5  18
ATOM     18  C   UNL     1      -1.246  11.607  22.643  0.00  0.00    +0.000 A 
ATOM     19  N   UNL     1      -0.871  10.531  23.390  0.00  0.00    +0.000 NA
ATOM     20  C   UNL     1      -0.312   9.468  22.782  0.00  0.00    +0.000 A 
ATOM     21  N   UNL     1      -0.026   9.300  21.480  0.00  0.00    +0.000 NA
ATOM     22  C   UNL     1      -0.366  10.399  20.766  0.00  0.00    +0.000 A 
ATOM     23  C   UNL     1      -0.991  11.529  21.249  0.00  0.00    +0.000 A 
ATOM     24  N   UNL     1      -1.211  12.447  20.234  0.00  0.00    +0.000 NA
ATOM     25  C   UNL     1      -0.647  11.918  19.182  0.00  0.00    +0.000 A 
ATOM     26  N   UNL     1      -0.144  10.675  19.440  0.00  0.00    +0.000 N 
BRANCH  26  27
ATOM     27  C   UNL     1       0.489   9.871  18.421  0.00  0.00    +0.000 C 
ATOM     28  C   UNL     1       1.602   8.903  18.739  0.00  0.00    +0.000 C 
ATOM     29  C   UNL     1       1.902  10.109  17.914  0.00  0.00    +0.000 C 
ENDBRANCH  26  27
ENDBRANCH   5  18
TORSDOF 3
ENDMDL
MODEL 9
REMARK VINA RESULT:      -6.9      2.995      4.708
REMARK  Name = 
REMARK  4 active torsions:
REMARK  status: ('A' for Active; 'I' for Inactive)
REMARK    1  A    between atoms: C_1  and  C_2
REMARK    2  A    between atoms: C_7  and  C_8
REMARK    3  A    between atoms: N_12  and  C_13
REMARK    4  A    between atoms: N_21  and  C_22
REMARK                            x       y       z     vdW  Elec       q    Type
REMARK                         _______ _______ _______ _____ _____    ______ ____
ROOT
ATOM      1  C   UNL     1       6.791   4.571  17.702  0.00  0.00    +0.000 C 
ATOM      2  C   UNL     1       6.432   4.238  16.246  0.00  0.00    +0.000 C 
ATOM      3  C   UNL     1       5.045   4.735  15.845  0.00  0.00    +0.000 C 
ATOM      4  C   UNL     1       3.973   4.203  16.793  0.00  0.00    +0.000 C 
ATOM      5  N   UNL     1       4.326   4.601  18.145  0.00  0.00    +0.000 N 
ATOM      6  C   UNL     1       5.641   4.236  18.674  0.00  0.00    +0.000 C 
ENDROOT
BRANCH   1  13
ATOM      7  C   UNL     1       9.720  11.105  19.652  0.00  0.00    +0.000 C 
ATOM      8  C   UNL     1       8.907  10.077  18.920  0.00  0.00    +0.000 A 
ATOM      9  C   UNL     1       8.002  10.459  17.919  0.00  0.00    +0.000 A 
ATOM     10  C   UNL     1       7.252   9.516  17.206  0.00  0.00    +0.000 A 
ATOM     11  C   UNL     1       7.435   8.177  17.550  0.00  0.00    +0.000 A 
ATOM     12  N   UNL     1       6.891   7.018  17.075  0.00  0.00    +0.000 N 
ATOM     13  C   UNL     1       7.321   5.971  17.844  0.00  0.00    +0.000 A 
ATOM     14  N   UNL     1       8.213   6.394  18.733  0.00  0.00    +0.000 NA
ATOM     15  C   UNL     1       8.288   7.755  18.561  0.00  0.00    +0.000 A 
ATOM     16  C   UNL     1       9.053   8.716  19.251  0.00  0.00    +0.000 A 
ATOM     17  H   UNL     1       6.192   6.944  16.343  0.00  0.00    +0.000 HD
ENDBRANCH   1  13
BRANCH   5  18
ATOM     18  C   UNL     1       3.436   5.329  18.902  0.00  0.00    +0.000 A 
ATOM     19  N   UNL     1       2.882   4.747  20.003  0.00  0.00    +0.000 NA
ATOM     20  C   UNL     1       2.050   5.465  20.781  0.00  0.00    +0.000 A 
ATOM     21  N   UNL     1       1.636   6.732  20.621  0.00  0.00    +0.000 NA
ATOM     22  C   UNL     1       2.163   7.275  19.498  0.00  0.00    +0.000 A 
ATOM     23  C   UNL     1       3.064   6.675  18.644  0.00  0.00    +0.000 A 
ATOM     24  N   UNL     1       3.411   7.529  17.609  0.00  0.00    +0.000 NA
ATOM     25  C   UNL     1       2.664   8.584  17.787  0.00  0.00    +0.000 A 
ATOM     26  N   UNL     1       1.911   8.495  18.923  0.00  0.00    +0.000 N 
BRANCH  26  27
ATOM     27  C   UNL     1       1.036   9.559  19.355  0.00  0.00    +0.000 C 
ATOM     28  C   UNL     1       0.077  10.243  18.410  0.00  0.00    +0.000 C 
ATOM     29  C   UNL     1       1.224  11.017  18.968  0.00  0.00    +0.000 C 
ENDBRANCH  26  27
ENDBRANCH   5  18
TORSDOF 3
ENDMDL
