MODEL 1
REMARK VINA RESULT:      -8.6      0.000      0.000
REMARK  Name = 
REMARK  4 active torsions:
REMARK  status: ('A' for Active; 'I' for Inactive)
REMARK    1  A    between atoms: C_1  and  C_2
REMARK    2  A    between atoms: C_7  and  N_8
REMARK    3  A    between atoms: C_9  and  C_11
REMARK    4  A    between atoms: C_20  and  C_21
REMARK                            x       y       z     vdW  Elec       q    Type
REMARK                         _______ _______ _______ _____ _____    ______ ____
ROOT
ATOM      1  N   UNL     1       2.091   7.954  19.284  0.00  0.00    +0.000 N 
ATOM      2  C   UNL     1       2.409   6.611  19.434  0.00  0.00    +0.000 C 
ATOM      3  O   UNL     1       2.079   5.920  20.395  0.00  0.00    +0.000 OA
ATOM      4  H   UNL     1       2.253   8.351  18.364  0.00  0.00    +0.000 HD
ENDROOT
BRANCH   1  11
ATOM      5  C   UNL     1      -2.665  12.618  23.341  0.00  0.00    +0.000 C 
ATOM      6  C   UNL     1      -1.568  12.127  22.402  0.00  0.00    +0.000 C 
ATOM      7  O   UNL     1      -1.102  10.862  22.875  0.00  0.00    +0.000 OA
ATOM      8  C   UNL     1      -0.295  10.220  21.972  0.00  0.00    +0.000 A 
ATOM      9  C   UNL     1       0.506   9.199  22.464  0.00  0.00    +0.000 A 
ATOM     10  C   UNL     1       1.311   8.460  21.588  0.00  0.00    +0.000 A 
ATOM     11  C   UNL     1       1.325   8.719  20.211  0.00  0.00    +0.000 A 
ATOM     12  C   UNL     1       0.524   9.763  19.725  0.00  0.00    +0.000 A 
ATOM     13  C   UNL     1      -0.303  10.486  20.598  0.00  0.00    +0.000 A 
ATOM     14  N   UNL     1      -1.213  11.425  20.092  0.00  0.00    +0.000 N 
ATOM     15  C   UNL     1      -2.027  12.147  20.934  0.00  0.00    +0.000 C 
ATOM     16  O   UNL     1      -2.960  12.814  20.499  0.00  0.00    +0.000 OA
ATOM     17  H   UNL     1      -1.398  11.491  19.102  0.00  0.00    +0.000 HD
ENDBRANCH   1  11
BRANCH   2  18
ATOM     18  C   UNL     1       3.248   5.970  18.321  0.00  0.00    +0.000 C 
ATOM     19  O   UNL     1       4.669   6.117  18.487  0.00  0.00    +0.000 OA
ATOM     20  C   UNL     1       5.325   5.498  17.439  0.00  0.00    +0.000 A 
ATOM     21  C   UNL     1       6.633   5.890  17.169  0.00  0.00    +0.000 A 
ATOM     22  C   UNL     1       7.320   5.327  16.088  0.00  0.00    +0.000 A 
ATOM     23  C   UNL     1       6.703   4.375  15.277  0.00  0.00    +0.000 A 
ATOM     24  C   UNL     1       5.397   3.968  15.554  0.00  0.00    +0.000 A 
ATOM     25  C   UNL     1       4.720   4.515  16.644  0.00  0.00    +0.000 A 
ATOM     26  O   UNL     1       3.454   4.044  16.866  0.00  0.00    +0.000 OA
ATOM     27  C   UNL     1       2.926   4.482  18.137  0.00  0.00    +0.000 C 
ATOM     28  C   UNL     1       1.441   4.146  18.107  0.00  0.00    +0.000 C 
ENDBRANCH   2  18
TORSDOF 2
ENDMDL
MODEL 2
REMARK VINA RESULT:      -8.6      2.048      3.725
REMARK  Name = 
REMARK  4 active torsions:
REMARK  status: ('A' for Active; 'I' for Inactive)
REMARK    1  A    between atoms: C_1  and  C_2
REMARK    2  A    between atoms: C_7  and  N_8
REMARK    3  A    between atoms: C_9  and  C_11
REMARK    4  A    between atoms: C_20  and  C_21
REMARK                            x       y       z     vdW  Elec       q    Type
REMARK                         _______ _______ _______ _____ _____    ______ ____
ROOT
ATOM      1  N   UNL     1       3.811   6.218  17.599  0.00  0.00    +0.000 N 
ATOM      2  C   UNL     1       4.822   5.272  17.700  0.00  0.00    +0.000 C 
ATOM      3  O   UNL     1       5.150   4.709  18.742  0.00  0.00    +0.000 OA
ATOM      4  H   UNL     1       3.514   6.457  16.659  0.00  0.00    +0.000 HD
ENDROOT
BRANCH   1  11
ATOM      5  C   UNL     1      -0.813   9.675  22.844  0.00  0.00    +0.000 C 
ATOM      6  C   UNL     1       0.369   9.368  21.930  0.00  0.00    +0.000 C 
ATOM      7  O   UNL     1       0.442   7.954  21.745  0.00  0.00    +0.000 OA
ATOM      8  C   UNL     1       1.310   7.590  20.749  0.00  0.00    +0.000 A 
ATOM      9  C   UNL     1       1.742   6.271  20.745  0.00  0.00    +0.000 A 
ATOM     10  C   UNL     1       2.583   5.815  19.722  0.00  0.00    +0.000 A 
ATOM     11  C   UNL     1       2.999   6.660  18.684  0.00  0.00    +0.000 A 
ATOM     12  C   UNL     1       2.570   7.996  18.704  0.00  0.00    +0.000 A 
ATOM     13  C   UNL     1       1.705   8.446  19.714  0.00  0.00    +0.000 A 
ATOM     14  N   UNL     1       1.157   9.735  19.651  0.00  0.00    +0.000 N 
ATOM     15  C   UNL     1       0.313  10.195  20.634  0.00  0.00    +0.000 C 
ATOM     16  O   UNL     1      -0.328  11.230  20.490  0.00  0.00    +0.000 OA
ATOM     17  H   UNL     1       1.248  10.300  18.819  0.00  0.00    +0.000 HD
ENDBRANCH   1  11
BRANCH   2  18
ATOM     18  C   UNL     1       5.583   4.935  16.411  0.00  0.00    +0.000 C 
ATOM     19  O   UNL     1       4.743   4.595  15.294  0.00  0.00    +0.000 OA
ATOM     20  C   UNL     1       5.528   4.320  14.190  0.00  0.00    +0.000 A 
ATOM     21  C   UNL     1       4.966   3.560  13.167  0.00  0.00    +0.000 A 
ATOM     22  C   UNL     1       5.737   3.216  12.052  0.00  0.00    +0.000 A 
ATOM     23  C   UNL     1       7.066   3.627  11.956  0.00  0.00    +0.000 A 
ATOM     24  C   UNL     1       7.627   4.402  12.973  0.00  0.00    +0.000 A 
ATOM     25  C   UNL     1       6.852   4.762  14.075  0.00  0.00    +0.000 A 
ATOM     26  O   UNL     1       7.467   5.546  15.014  0.00  0.00    +0.000 OA
ATOM     27  C   UNL     1       6.532   6.064  15.986  0.00  0.00    +0.000 C 
ATOM     28  C   UNL     1       7.380   6.645  17.109  0.00  0.00    +0.000 C 
ENDBRANCH   2  18
TORSDOF 2
ENDMDL
MODEL 3
REMARK VINA RESULT:      -8.5      2.874      9.021
REMARK  Name = 
REMARK  4 active torsions:
REMARK  status: ('A' for Active; 'I' for Inactive)
REMARK    1  A    between atoms: C_1  and  C_2
REMARK    2  A    between atoms: C_7  and  N_8
REMARK    3  A    between atoms: C_9  and  C_11
REMARK    4  A    between atoms: C_20  and  C_21
REMARK                            x       y       z     vdW  Elec       q    Type
REMARK                         _______ _______ _______ _____ _____    ______ ____
ROOT
ATOM      1  N   UNL     1       1.276   8.126  18.507  0.00  0.00    +0.000 N 
ATOM      2  C   UNL     1       1.289   9.481  18.203  0.00  0.00    +0.000 C 
ATOM      3  O   UNL     1       2.302  10.131  17.955  0.00  0.00    +0.000 OA
ATOM      4  H   UNL     1       0.367   7.676  18.498  0.00  0.00    +0.000 HD
ENDROOT
BRANCH   1  11
ATOM      5  C   UNL     1       8.056   4.319  17.905  0.00  0.00    +0.000 C 
ATOM      6  C   UNL     1       6.686   4.903  17.578  0.00  0.00    +0.000 C 
ATOM      7  O   UNL     1       5.936   5.005  18.789  0.00  0.00    +0.000 OA
ATOM      8  C   UNL     1       4.790   5.743  18.647  0.00  0.00    +0.000 A 
ATOM      9  C   UNL     1       3.818   5.584  19.625  0.00  0.00    +0.000 A 
ATOM     10  C   UNL     1       2.648   6.351  19.576  0.00  0.00    +0.000 A 
ATOM     11  C   UNL     1       2.430   7.292  18.560  0.00  0.00    +0.000 A 
ATOM     12  C   UNL     1       3.411   7.434  17.567  0.00  0.00    +0.000 A 
ATOM     13  C   UNL     1       4.596   6.686  17.631  0.00  0.00    +0.000 A 
ATOM     14  N   UNL     1       5.638   6.936  16.727  0.00  0.00    +0.000 N 
ATOM     15  C   UNL     1       6.804   6.208  16.771  0.00  0.00    +0.000 C 
ATOM     16  O   UNL     1       7.792   6.549  16.129  0.00  0.00    +0.000 OA
ATOM     17  H   UNL     1       5.621   7.744  16.123  0.00  0.00    +0.000 HD
ENDBRANCH   1  11
BRANCH   2  18
ATOM     18  C   UNL     1      -0.066  10.202  18.201  0.00  0.00    +0.000 C 
ATOM     19  O   UNL     1      -1.046   9.627  17.320  0.00  0.00    +0.000 OA
ATOM     20  C   UNL     1      -2.224  10.345  17.404  0.00  0.00    +0.000 A 
ATOM     21  C   UNL     1      -3.122  10.244  16.345  0.00  0.00    +0.000 A 
ATOM     22  C   UNL     1      -4.306  10.989  16.363  0.00  0.00    +0.000 A 
ATOM     23  C   UNL     1      -4.593  11.836  17.434  0.00  0.00    +0.000 A 
ATOM     24  C   UNL     1      -3.701  11.928  18.503  0.00  0.00    +0.000 A 
ATOM     25  C   UNL     1      -2.531  11.168  18.495  0.00  0.00    +0.000 A 
ATOM     26  O   UNL     1      -1.723  11.292  19.593  0.00  0.00    +0.000 OA
ATOM     27  C   UNL     1      -0.670  10.304  19.608  0.00  0.00    +0.000 C 
ATOM     28  C   UNL     1       0.301  10.748  20.693  0.00  0.00    +0.000 C 
ENDBRANCH   2  18
TORSDOF 2
ENDMDL
MODEL 4
REMARK VINA RESULT:      -8.3      2.035      9.680
REMARK  Name = 
REMARK  4 active torsions:
REMARK  status: ('A' for Active; 'I' for Inactive)
REMARK    1  A    between atoms: C_1  and  C_2
REMARK    2  A    between atoms: C_7  and  N_8
REMARK    3  A    between atoms: C_9  and  C_11
REMARK    4  A    between atoms: C_20  and  C_21
REMARK                            x       y       z     vdW  Elec       q    Type
REMARK                         _______ _______ _______ _____ _____    ______ ____
ROOT
ATOM      1  N   UNL     1       0.468  10.310  20.019  0.00  0.00    +0.000 N 
ATOM      2  C   UNL     1      -0.799  10.652  19.565  0.00  0.00    +0.000 C 
ATOM      3  O   UNL     1      -1.377  10.103  18.630  0.00  0.00    +0.000 OA
ATOM      4  H   UNL     1       0.744  10.706  20.912  0.00  0.00    +0.000 HD
ENDROOT
BRANCH   1  11
ATOM      5  C   UNL     1       4.491   3.922  18.059  0.00  0.00    +0.000 C 
ATOM      6  C   UNL     1       4.008   5.161  18.807  0.00  0.00    +0.000 C 
ATOM      7  O   UNL     1       3.461   6.077  17.859  0.00  0.00    +0.000 OA
ATOM      8  C   UNL     1       2.778   7.110  18.447  0.00  0.00    +0.000 A 
ATOM      9  C   UNL     1       2.548   8.234  17.666  0.00  0.00    +0.000 A 
ATOM     10  C   UNL     1       1.805   9.302  18.183  0.00  0.00    +0.000 A 
ATOM     11  C   UNL     1       1.272   9.265  19.479  0.00  0.00    +0.000 A 
ATOM     12  C   UNL     1       1.524   8.132  20.267  0.00  0.00    +0.000 A 
ATOM     13  C   UNL     1       2.245   7.050  19.740  0.00  0.00    +0.000 A 
ATOM     14  N   UNL     1       2.366   5.860  20.471  0.00  0.00    +0.000 N 
ATOM     15  C   UNL     1       3.075   4.791  19.973  0.00  0.00    +0.000 C 
ATOM     16  O   UNL     1       3.018   3.687  20.503  0.00  0.00    +0.000 OA
ATOM     17  H   UNL     1       1.822   5.703  21.306  0.00  0.00    +0.000 HD
ENDBRANCH   1  11
BRANCH   2  18
ATOM     18  C   UNL     1      -1.500  11.813  20.282  0.00  0.00    +0.000 C 
ATOM     19  O   UNL     1      -1.651  11.633  21.701  0.00  0.00    +0.000 OA
ATOM     20  C   UNL     1      -2.284  12.736  22.244  0.00  0.00    +0.000 A 
ATOM     21  C   UNL     1      -2.912  12.582  23.477  0.00  0.00    +0.000 A 
ATOM     22  C   UNL     1      -3.606  13.657  24.044  0.00  0.00    +0.000 A 
ATOM     23  C   UNL     1      -3.675  14.882  23.382  0.00  0.00    +0.000 A 
ATOM     24  C   UNL     1      -3.033  15.044  22.153  0.00  0.00    +0.000 A 
ATOM     25  C   UNL     1      -2.324  13.978  21.598  0.00  0.00    +0.000 A 
ATOM     26  O   UNL     1      -1.699  14.225  20.405  0.00  0.00    +0.000 OA
ATOM     27  C   UNL     1      -0.803  13.156  20.029  0.00  0.00    +0.000 C 
ATOM     28  C   UNL     1      -0.428  13.421  18.578  0.00  0.00    +0.000 C 
ENDBRANCH   2  18
TORSDOF 2
ENDMDL
MODEL 5
REMARK VINA RESULT:      -8.3      2.199      9.350
REMARK  Name = 
REMARK  4 active torsions:
REMARK  status: ('A' for Active; 'I' for Inactive)
REMARK    1  A    between atoms: C_1  and  C_2
REMARK    2  A    between atoms: C_7  and  N_8
REMARK    3  A    between atoms: C_9  and  C_11
REMARK    4  A    between atoms: C_20  and  C_21
REMARK                            x       y       z     vdW  Elec       q    Type
REMARK                         _______ _______ _______ _____ _____    ______ ____
ROOT
ATOM      1  N   UNL     1       1.947   8.604  19.223  0.00  0.00    +0.000 N 
ATOM      2  C   UNL     1       1.006   9.466  18.675  0.00  0.00    +0.000 C 
ATOM      3  O   UNL     1       0.585   9.399  17.523  0.00  0.00    +0.000 OA
ATOM      4  H   UNL     1       2.059   8.648  20.230  0.00  0.00    +0.000 HD
ENDROOT
BRANCH   1  11
ATOM      5  C   UNL     1       6.208   3.406  15.267  0.00  0.00    +0.000 C 
ATOM      6  C   UNL     1       5.383   4.640  15.618  0.00  0.00    +0.000 C 
ATOM      7  O   UNL     1       4.468   4.291  16.657  0.00  0.00    +0.000 OA
ATOM      8  C   UNL     1       3.854   5.381  17.216  0.00  0.00    +0.000 A 
ATOM      9  C   UNL     1       2.694   5.145  17.940  0.00  0.00    +0.000 A 
ATOM     10  C   UNL     1       2.047   6.204  18.588  0.00  0.00    +0.000 A 
ATOM     11  C   UNL     1       2.549   7.512  18.533  0.00  0.00    +0.000 A 
ATOM     12  C   UNL     1       3.712   7.745  17.786  0.00  0.00    +0.000 A 
ATOM     13  C   UNL     1       4.376   6.679  17.159  0.00  0.00    +0.000 A 
ATOM     14  N   UNL     1       5.617   6.886  16.541  0.00  0.00    +0.000 N 
ATOM     15  C   UNL     1       6.279   5.855  15.916  0.00  0.00    +0.000 C 
ATOM     16  O   UNL     1       7.444   5.973  15.555  0.00  0.00    +0.000 OA
ATOM     17  H   UNL     1       6.122   7.752  16.662  0.00  0.00    +0.000 HD
ENDBRANCH   1  11
BRANCH   2  18
ATOM     18  C   UNL     1       0.481  10.584  19.586  0.00  0.00    +0.000 C 
ATOM     19  O   UNL     1       0.072  10.146  20.893  0.00  0.00    +0.000 OA
ATOM     20  C   UNL     1      -0.372  11.230  21.628  0.00  0.00    +0.000 A 
ATOM     21  C   UNL     1      -1.205  10.979  22.715  0.00  0.00    +0.000 A 
ATOM     22  C   UNL     1      -1.718  12.047  23.460  0.00  0.00    +0.000 A 
ATOM     23  C   UNL     1      -1.404  13.362  23.119  0.00  0.00    +0.000 A 
ATOM     24  C   UNL     1      -0.557  13.616  22.039  0.00  0.00    +0.000 A 
ATOM     25  C   UNL     1      -0.029  12.550  21.310  0.00  0.00    +0.000 A 
ATOM     26  O   UNL     1       0.815  12.881  20.284  0.00  0.00    +0.000 OA
ATOM     27  C   UNL     1       1.494  11.725  19.745  0.00  0.00    +0.000 C 
ATOM     28  C   UNL     1       2.143  12.193  18.449  0.00  0.00    +0.000 C 
ENDBRANCH   2  18
TORSDOF 2
ENDMDL
MODEL 6
REMARK VINA RESULT:      -8.3      1.780      9.606
REMARK  Name = 
REMARK  4 active torsions:
REMARK  status: ('A' for Active; 'I' for Inactive)
REMARK    1  A    between atoms: C_1  and  C_2
REMARK    2  A    between atoms: C_7  and  N_8
REMARK    3  A    between atoms: C_9  and  C_11
REMARK    4  A    between atoms: C_20  and  C_21
REMARK                            x       y       z     vdW  Elec       q    Type
REMARK                         _______ _______ _______ _____ _____    ______ ____
ROOT
ATOM      1  N   UNL     1       0.395   9.566  20.258  0.00  0.00    +0.000 N 
ATOM      2  C   UNL     1       0.660  10.783  20.871  0.00  0.00    +0.000 C 
ATOM      3  O   UNL     1       1.754  11.342  20.868  0.00  0.00    +0.000 OA
ATOM      4  H   UNL     1      -0.584   9.314  20.170  0.00  0.00    +0.000 HD
ENDROOT
BRANCH   1  11
ATOM      5  C   UNL     1       5.476   4.522  17.162  0.00  0.00    +0.000 C 
ATOM      6  C   UNL     1       4.817   5.524  18.104  0.00  0.00    +0.000 C 
ATOM      7  O   UNL     1       3.994   6.399  17.332  0.00  0.00    +0.000 OA
ATOM      8  C   UNL     1       3.168   7.175  18.102  0.00  0.00    +0.000 A 
ATOM      9  C   UNL     1       2.625   8.301  17.501  0.00  0.00    +0.000 A 
ATOM     10  C   UNL     1       1.726   9.107  18.210  0.00  0.00    +0.000 A 
ATOM     11  C   UNL     1       1.346   8.799  19.524  0.00  0.00    +0.000 A 
ATOM     12  C   UNL     1       1.912   7.667  20.130  0.00  0.00    +0.000 A 
ATOM     13  C   UNL     1       2.792   6.845  19.410  0.00  0.00    +0.000 A 
ATOM     14  N   UNL     1       3.237   5.635  19.961  0.00  0.00    +0.000 N 
ATOM     15  C   UNL     1       4.105   4.820  19.273  0.00  0.00    +0.000 C 
ATOM     16  O   UNL     1       4.338   3.677  19.650  0.00  0.00    +0.000 OA
ATOM     17  H   UNL     1       2.825   5.263  20.804  0.00  0.00    +0.000 HD
ENDBRANCH   1  11
BRANCH   2  18
ATOM     18  C   UNL     1      -0.504  11.449  21.617  0.00  0.00    +0.000 C 
ATOM     19  O   UNL     1      -1.533  11.979  20.763  0.00  0.00    +0.000 OA
ATOM     20  C   UNL     1      -2.530  12.544  21.535  0.00  0.00    +0.000 A 
ATOM     21  C   UNL     1      -3.367  13.479  20.931  0.00  0.00    +0.000 A 
ATOM     22  C   UNL     1      -4.361  14.114  21.685  0.00  0.00    +0.000 A 
ATOM     23  C   UNL     1      -4.518  13.819  23.039  0.00  0.00    +0.000 A 
ATOM     24  C   UNL     1      -3.690  12.871  23.643  0.00  0.00    +0.000 A 
ATOM     25  C   UNL     1      -2.714  12.223  22.887  0.00  0.00    +0.000 A 
ATOM     26  O   UNL     1      -1.962  11.288  23.545  0.00  0.00    +0.000 OA
ATOM     27  C   UNL     1      -1.151  10.507  22.640  0.00  0.00    +0.000 C 
ATOM     28  C   UNL     1      -0.170   9.741  23.518  0.00  0.00    +0.000 C 
ENDBRANCH   2  18
TORSDOF 2
ENDMDL
MODEL 7
REMARK VINA RESULT:      -8.2      1.901      9.834
REMARK  Name = 
REMARK  4 active torsions:
REMARK  status: ('A' for Active; 'I' for Inactive)
REMARK    1  A    between atoms: C_1  and  C_2
REMARK    2  A    between atoms: C_7  and  N_8
REMARK    3  A    between atoms: C_9  and  C_11
REMARK    4  A    between atoms: C_20  and  C_21
REMARK                            x       y       z     vdW  Elec       q    Type
REMARK                         _______ _______ _______ _____ _____    ______ ____
ROOT
ATOM      1  N   UNL     1       0.215  10.296  20.018  0.00  0.00    +0.000 N 
ATOM      2  C   UNL     1       0.323  10.834  21.293  0.00  0.00    +0.000 C 
ATOM      3  O   UNL     1       1.190  10.528  22.109  0.00  0.00    +0.000 OA
ATOM      4  H   UNL     1      -0.418  10.772  19.385  0.00  0.00    +0.000 HD
ENDROOT
BRANCH   1  11
ATOM      5  C   UNL     1       4.708   4.259  17.968  0.00  0.00    +0.000 C 
ATOM      6  C   UNL     1       4.126   5.439  18.739  0.00  0.00    +0.000 C 
ATOM      7  O   UNL     1       3.536   6.344  17.805  0.00  0.00    +0.000 OA
ATOM      8  C   UNL     1       2.771   7.310  18.407  0.00  0.00    +0.000 A 
ATOM      9  C   UNL     1       2.479   8.437  17.653  0.00  0.00    +0.000 A 
ATOM     10  C   UNL     1       1.654   9.437  18.183  0.00  0.00    +0.000 A 
ATOM     11  C   UNL     1       1.100   9.325  19.466  0.00  0.00    +0.000 A 
ATOM     12  C   UNL     1       1.414   8.189  20.227  0.00  0.00    +0.000 A 
ATOM     13  C   UNL     1       2.218   7.175  19.686  0.00  0.00    +0.000 A 
ATOM     14  N   UNL     1       2.407   5.975  20.386  0.00  0.00    +0.000 N 
ATOM     15  C   UNL     1       3.197   4.972  19.873  0.00  0.00    +0.000 C 
ATOM     16  O   UNL     1       3.206   3.852  20.371  0.00  0.00    +0.000 OA
ATOM     17  H   UNL     1       1.858   5.757  21.204  0.00  0.00    +0.000 HD
ENDBRANCH   1  11
BRANCH   2  18
ATOM     18  C   UNL     1      -0.735  11.869  21.699  0.00  0.00    +0.000 C 
ATOM     19  O   UNL     1      -1.493  11.517  22.870  0.00  0.00    +0.000 OA
ATOM     20  C   UNL     1      -2.406  12.517  23.149  0.00  0.00    +0.000 A 
ATOM     21  C   UNL     1      -3.505  12.191  23.938  0.00  0.00    +0.000 A 
ATOM     22  C   UNL     1      -4.481  13.157  24.208  0.00  0.00    +0.000 A 
ATOM     23  C   UNL     1      -4.361  14.446  23.690  0.00  0.00    +0.000 A 
ATOM     24  C   UNL     1      -3.252  14.781  22.911  0.00  0.00    +0.000 A 
ATOM     25  C   UNL     1      -2.269  13.823  22.660  0.00  0.00    +0.000 A 
ATOM     26  O   UNL     1      -1.200  14.237  21.912  0.00  0.00    +0.000 OA
ATOM     27  C   UNL     1      -0.132  13.264  21.905  0.00  0.00    +0.000 C 
ATOM     28  C   UNL     1       0.831  13.714  20.815  0.00  0.00    +0.000 C 
ENDBRANCH   2  18
TORSDOF 2
ENDMDL
MODEL 8
REMARK VINA RESULT:      -8.2      0.953      1.023
REMARK  Name = 
REMARK  4 active torsions:
REMARK  status: ('A' for Active; 'I' for Inactive)
REMARK    1  A    between atoms: C_1  and  C_2
REMARK    2  A    between atoms: C_7  and  N_8
REMARK    3  A    between atoms: C_9  and  C_11
REMARK    4  A    between atoms: C_20  and  C_21
REMARK                            x       y       z     vdW  Elec       q    Type
REMARK                         _______ _______ _______ _____ _____    ______ ____
ROOT
ATOM      1  N   UNL     1       2.033   7.816  19.760  0.00  0.00    +0.000 N 
ATOM      2  C   UNL     1       1.997   6.429  19.827  0.00  0.00    +0.000 C 
ATOM      3  O   UNL     1       1.350   5.786  20.651  0.00  0.00    +0.000 OA
ATOM      4  H   UNL     1       2.444   8.211  18.922  0.00  0.00    +0.000 HD
ENDROOT
BRANCH   1  11
ATOM      5  C   UNL     1      -2.503  12.975  23.454  0.00  0.00    +0.000 C 
ATOM      6  C   UNL     1      -1.453  12.364  22.531  0.00  0.00    +0.000 C 
ATOM      7  O   UNL     1      -0.975  11.158  23.126  0.00  0.00    +0.000 OA
ATOM      8  C   UNL     1      -0.214  10.405  22.270  0.00  0.00    +0.000 A 
ATOM      9  C   UNL     1       0.601   9.438  22.841  0.00  0.00    +0.000 A 
ATOM     10  C   UNL     1       1.361   8.593  22.023  0.00  0.00    +0.000 A 
ATOM     11  C   UNL     1       1.315   8.691  20.625  0.00  0.00    +0.000 A 
ATOM     12  C   UNL     1       0.501   9.682  20.057  0.00  0.00    +0.000 A 
ATOM     13  C   UNL     1      -0.282  10.511  20.875  0.00  0.00    +0.000 A 
ATOM     14  N   UNL     1      -1.207  11.396  20.305  0.00  0.00    +0.000 N 
ATOM     15  C   UNL     1      -1.977  12.220  21.092  0.00  0.00    +0.000 C 
ATOM     16  O   UNL     1      -2.923  12.844  20.624  0.00  0.00    +0.000 OA
ATOM     17  H   UNL     1      -1.435  11.350  19.323  0.00  0.00    +0.000 HD
ENDBRANCH   1  11
BRANCH   2  18
ATOM     18  C   UNL     1       2.847   5.666  18.803  0.00  0.00    +0.000 C 
ATOM     19  O   UNL     1       3.757   6.488  18.052  0.00  0.00    +0.000 OA
ATOM     20  C   UNL     1       4.475   5.701  17.171  0.00  0.00    +0.000 A 
ATOM     21  C   UNL     1       5.062   6.325  16.074  0.00  0.00    +0.000 A 
ATOM     22  C   UNL     1       5.758   5.563  15.129  0.00  0.00    +0.000 A 
ATOM     23  C   UNL     1       5.866   4.180  15.276  0.00  0.00    +0.000 A 
ATOM     24  C   UNL     1       5.290   3.554  16.383  0.00  0.00    +0.000 A 
ATOM     25  C   UNL     1       4.615   4.317  17.336  0.00  0.00    +0.000 A 
ATOM     26  O   UNL     1       4.104   3.632  18.406  0.00  0.00    +0.000 OA
ATOM     27  C   UNL     1       3.638   4.519  19.446  0.00  0.00    +0.000 C 
ATOM     28  C   UNL     1       2.840   3.648  20.406  0.00  0.00    +0.000 C 
ENDBRANCH   2  18
TORSDOF 2
ENDMDL
MODEL 9
REMARK VINA RESULT:      -8.2      1.381      1.624
REMARK  Name = 
REMARK  4 active torsions:
REMARK  status: ('A' for Active; 'I' for Inactive)
REMARK    1  A    between atoms: C_1  and  C_2
REMARK    2  A    between atoms: C_7  and  N_8
REMARK    3  A    between atoms: C_9  and  C_11
REMARK    4  A    between atoms: C_20  and  C_21
REMARK                            x       y       z     vdW  Elec       q    Type
REMARK                         _______ _______ _______ _____ _____    ______ ____
ROOT
ATOM      1  N   UNL     1       1.829   8.436  18.129  0.00  0.00    +0.000 N 
ATOM      2  C   UNL     1       2.382   7.306  18.716  0.00  0.00    +0.000 C 
ATOM      3  O   UNL     1       2.214   6.974  19.887  0.00  0.00    +0.000 OA
ATOM      4  H   UNL     1       1.886   8.487  17.118  0.00  0.00    +0.000 HD
ENDROOT
BRANCH   1  11
ATOM      5  C   UNL     1      -3.658  13.270  20.842  0.00  0.00    +0.000 C 
ATOM      6  C   UNL     1      -2.588  12.640  19.956  0.00  0.00    +0.000 C 
ATOM      7  O   UNL     1      -1.669  11.933  20.789  0.00  0.00    +0.000 OA
ATOM      8  C   UNL     1      -0.815  11.129  20.081  0.00  0.00    +0.000 A 
ATOM      9  C   UNL     1       0.337  10.711  20.732  0.00  0.00    +0.000 A 
ATOM     10  C   UNL     1       1.225   9.840  20.089  0.00  0.00    +0.000 A 
ATOM     11  C   UNL     1       0.975   9.364  18.794  0.00  0.00    +0.000 A 
ATOM     12  C   UNL     1      -0.184   9.804  18.138  0.00  0.00    +0.000 A 
ATOM     13  C   UNL     1      -1.087  10.655  18.792  0.00  0.00    +0.000 A 
ATOM     14  N   UNL     1      -2.315  10.973  18.196  0.00  0.00    +0.000 N 
ATOM     15  C   UNL     1      -3.210  11.810  18.819  0.00  0.00    +0.000 C 
ATOM     16  O   UNL     1      -4.360  11.932  18.410  0.00  0.00    +0.000 OA
ATOM     17  H   UNL     1      -2.636  10.486  17.371  0.00  0.00    +0.000 HD
ENDBRANCH   1  11
BRANCH   2  18
ATOM     18  C   UNL     1       3.279   6.434  17.827  0.00  0.00    +0.000 C 
ATOM     19  O   UNL     1       4.689   6.664  17.994  0.00  0.00    +0.000 OA
ATOM     20  C   UNL     1       5.399   5.824  17.157  0.00  0.00    +0.000 A 
ATOM     21  C   UNL     1       6.707   6.180  16.838  0.00  0.00    +0.000 A 
ATOM     22  C   UNL     1       7.449   5.386  15.957  0.00  0.00    +0.000 A 
ATOM     23  C   UNL     1       6.887   4.241  15.393  0.00  0.00    +0.000 A 
ATOM     24  C   UNL     1       5.581   3.874  15.723  0.00  0.00    +0.000 A 
ATOM     25  C   UNL     1       4.849   4.654  16.618  0.00  0.00    +0.000 A 
ATOM     26  O   UNL     1       3.588   4.212  16.912  0.00  0.00    +0.000 OA
ATOM     27  C   UNL     1       3.001   4.937  18.014  0.00  0.00    +0.000 C 
ATOM     28  C   UNL     1       1.527   4.555  18.024  0.00  0.00    +0.000 C 
ENDBRANCH   2  18
TORSDOF 2
ENDMDL
