MODEL 1
REMARK VINA RESULT:      -9.2      0.000      0.000
REMARK  Name = 
REMARK  5 active torsions:
REMARK  status: ('A' for Active; 'I' for Inactive)
REMARK    1  A    between atoms: C_2  and  C_17
REMARK    2  A    between atoms: N_3  and  C_4
REMARK    3  A    between atoms: C_4  and  C_5
REMARK    4  A    between atoms: C_9  and  C_10
REMARK    5  A    between atoms: C_10  and  N_11
REMARK                            x       y       z     vdW  Elec       q    Type
REMARK                         _______ _______ _______ _____ _____    ______ ____
ROOT
ATOM      1  O   UNL     1       0.831  10.527  20.902  0.00  0.00    +0.000 OA
ATOM      2  C   UNL     1       0.725   9.861  19.873  0.00  0.00    +0.000 C 
ATOM      3  N   UNL     1      -0.242  10.128  18.935  0.00  0.00    +0.000 N 
ATOM      4  H   UNL     1      -0.326   9.499  18.147  0.00  0.00    +0.000 HD
ENDROOT
BRANCH   2   5
ATOM      5  C   UNL     1       1.568   8.701  19.594  0.00  0.00    +0.000 A 
ATOM      6  C   UNL     1       1.706   7.566  20.375  0.00  0.00    +0.000 A 
ATOM      7  C   UNL     1       2.435   6.546  19.702  0.00  0.00    +0.000 A 
ATOM      8  C   UNL     1       2.959   6.991  18.503  0.00  0.00    +0.000 A 
ATOM      9  S   UNL     1       2.512   8.589  18.161  0.00  0.00    +0.000 S 
ATOM     10  C   UNL     1       3.689   6.107  17.590  0.00  0.00    +0.000 A 
ATOM     11  C   UNL     1       4.634   6.552  16.664  0.00  0.00    +0.000 A 
ATOM     12  C   UNL     1       5.293   5.631  15.848  0.00  0.00    +0.000 A 
ATOM     13  C   UNL     1       4.991   4.270  15.931  0.00  0.00    +0.000 A 
ATOM     14  C   UNL     1       4.058   3.811  16.861  0.00  0.00    +0.000 A 
ATOM     15  C   UNL     1       3.439   4.716  17.726  0.00  0.00    +0.000 A 
ATOM     16  C   UNL     1       2.482   4.236  18.812  0.00  0.00    +0.000 C 
ATOM     17  C   UNL     1       2.618   5.106  20.085  0.00  0.00    +0.000 C 
ENDBRANCH   2   5
BRANCH   3  18
ATOM     18  C   UNL     1      -1.226  11.175  19.086  0.00  0.00    +0.000 C 
BRANCH  18  19
ATOM     19  C   UNL     1      -2.299  11.060  18.032  0.00  0.00    +0.000 A 
ATOM     20  C   UNL     1      -2.030  10.461  16.795  0.00  0.00    +0.000 A 
ATOM     21  C   UNL     1      -3.033  10.343  15.832  0.00  0.00    +0.000 A 
ATOM     22  C   UNL     1      -4.323  10.798  16.102  0.00  0.00    +0.000 A 
ATOM     23  C   UNL     1      -4.623  11.379  17.342  0.00  0.00    +0.000 A 
ATOM     24  C   UNL     1      -3.600  11.513  18.297  0.00  0.00    +0.000 A 
BRANCH  23  25
ATOM     25  C   UNL     1      -6.037  11.789  17.670  0.00  0.00    +0.000 C 
BRANCH  25  26
ATOM     26  N   UNL     1      -6.514  11.129  18.873  0.00  0.00    +0.000 N 
ATOM     27  C   UNL     1      -6.789  11.692  20.081  0.00  0.00    +0.000 A 
ATOM     28  N   UNL     1      -7.252  10.776  20.900  0.00  0.00    +0.000 NA
ATOM     29  C   UNL     1      -7.243   9.647  20.130  0.00  0.00    +0.000 A 
ATOM     30  N   UNL     1      -6.812   9.813  18.877  0.00  0.00    +0.000 NA
ENDBRANCH  25  26
ENDBRANCH  23  25
ENDBRANCH  18  19
ENDBRANCH   3  18
TORSDOF 5
ENDMDL
MODEL 2
REMARK VINA RESULT:      -8.7      0.933      1.183
REMARK  Name = 
REMARK  5 active torsions:
REMARK  status: ('A' for Active; 'I' for Inactive)
REMARK    1  A    between atoms: C_2  and  C_17
REMARK    2  A    between atoms: N_3  and  C_4
REMARK    3  A    between atoms: C_4  and  C_5
REMARK    4  A    between atoms: C_9  and  C_10
REMARK    5  A    between atoms: C_10  and  N_11
REMARK                            x       y       z     vdW  Elec       q    Type
REMARK                         _______ _______ _______ _____ _____    ______ ____
ROOT
ATOM      1  O   UNL     1       1.593  10.877  18.418  0.00  0.00    +0.000 OA
ATOM      2  C   UNL     1       0.978   9.937  18.917  0.00  0.00    +0.000 C 
ATOM      3  N   UNL     1      -0.308  10.078  19.380  0.00  0.00    +0.000 N 
ATOM      4  H   UNL     1      -0.734   9.289  19.848  0.00  0.00    +0.000 HD
ENDROOT
BRANCH   2   5
ATOM      5  C   UNL     1       1.577   8.620  19.121  0.00  0.00    +0.000 A 
ATOM      6  C   UNL     1       1.514   7.846  20.267  0.00  0.00    +0.000 A 
ATOM      7  C   UNL     1       2.020   6.535  20.048  0.00  0.00    +0.000 A 
ATOM      8  C   UNL     1       2.593   6.404  18.796  0.00  0.00    +0.000 A 
ATOM      9  S   UNL     1       2.451   7.819  17.876  0.00  0.00    +0.000 S 
ATOM     10  C   UNL     1       3.121   5.128  18.305  0.00  0.00    +0.000 A 
ATOM     11  C   UNL     1       4.112   5.020  17.328  0.00  0.00    +0.000 A 
ATOM     12  C   UNL     1       4.567   3.760  16.936  0.00  0.00    +0.000 A 
ATOM     13  C   UNL     1       4.012   2.605  17.493  0.00  0.00    +0.000 A 
ATOM     14  C   UNL     1       3.030   2.699  18.479  0.00  0.00    +0.000 A 
ATOM     15  C   UNL     1       2.613   3.956  18.924  0.00  0.00    +0.000 A 
ATOM     16  C   UNL     1       1.607   4.093  20.061  0.00  0.00    +0.000 C 
ATOM     17  C   UNL     1       1.934   5.327  20.936  0.00  0.00    +0.000 C 
ENDBRANCH   2   5
BRANCH   3  18
ATOM     18  C   UNL     1      -1.029  11.330  19.351  0.00  0.00    +0.000 C 
BRANCH  18  19
ATOM     19  C   UNL     1      -2.190  11.258  18.391  0.00  0.00    +0.000 A 
ATOM     20  C   UNL     1      -2.059  10.620  17.151  0.00  0.00    +0.000 A 
ATOM     21  C   UNL     1      -3.144  10.543  16.275  0.00  0.00    +0.000 A 
ATOM     22  C   UNL     1      -4.379  11.079  16.639  0.00  0.00    +0.000 A 
ATOM     23  C   UNL     1      -4.541  11.701  17.884  0.00  0.00    +0.000 A 
ATOM     24  C   UNL     1      -3.437  11.792  18.749  0.00  0.00    +0.000 A 
BRANCH  23  25
ATOM     25  C   UNL     1      -5.897  12.200  18.316  0.00  0.00    +0.000 C 
BRANCH  25  26
ATOM     26  N   UNL     1      -6.488  11.329  19.317  0.00  0.00    +0.000 N 
ATOM     27  C   UNL     1      -6.759  11.616  20.620  0.00  0.00    +0.000 A 
ATOM     28  N   UNL     1      -7.343  10.587  21.187  0.00  0.00    +0.000 NA
ATOM     29  C   UNL     1      -7.411   9.677  20.171  0.00  0.00    +0.000 A 
ATOM     30  N   UNL     1      -6.912  10.088  19.002  0.00  0.00    +0.000 NA
ENDBRANCH  25  26
ENDBRANCH  23  25
ENDBRANCH  18  19
ENDBRANCH   3  18
TORSDOF 5
ENDMDL
MODEL 3
REMARK VINA RESULT:      -8.5      1.464      1.928
REMARK  Name = 
REMARK  5 active torsions:
REMARK  status: ('A' for Active; 'I' for Inactive)
REMARK    1  A    between atoms: C_2  and  C_17
REMARK    2  A    between atoms: N_3  and  C_4
REMARK    3  A    between atoms: C_4  and  C_5
REMARK    4  A    between atoms: C_9  and  C_10
REMARK    5  A    between atoms: C_10  and  N_11
REMARK                            x       y       z     vdW  Elec       q    Type
REMARK                         _______ _______ _______ _____ _____    ______ ____
ROOT
ATOM      1  O   UNL     1       0.871  10.936  20.890  0.00  0.00    +0.000 OA
ATOM      2  C   UNL     1       0.603  10.128  20.002  0.00  0.00    +0.000 C 
ATOM      3  N   UNL     1      -0.460  10.313  19.152  0.00  0.00    +0.000 N 
ATOM      4  H   UNL     1      -0.674   9.578  18.492  0.00  0.00    +0.000 HD
ENDROOT
BRANCH   2   5
ATOM      5  C   UNL     1       1.343   8.882  19.819  0.00  0.00    +0.000 A 
ATOM      6  C   UNL     1       1.351   7.788  20.668  0.00  0.00    +0.000 A 
ATOM      7  C   UNL     1       2.004   6.668  20.081  0.00  0.00    +0.000 A 
ATOM      8  C   UNL     1       2.604   6.992  18.878  0.00  0.00    +0.000 A 
ATOM      9  S   UNL     1       2.316   8.601  18.431  0.00  0.00    +0.000 S 
ATOM     10  C   UNL     1       3.277   5.993  18.043  0.00  0.00    +0.000 A 
ATOM     11  C   UNL     1       4.287   6.295  17.129  0.00  0.00    +0.000 A 
ATOM     12  C   UNL     1       4.884   5.272  16.390  0.00  0.00    +0.000 A 
ATOM     13  C   UNL     1       4.455   3.950  16.539  0.00  0.00    +0.000 A 
ATOM     14  C   UNL     1       3.455   3.633  17.459  0.00  0.00    +0.000 A 
ATOM     15  C   UNL     1       2.895   4.641  18.249  0.00  0.00    +0.000 A 
ATOM     16  C   UNL     1       1.865   4.314  19.324  0.00  0.00    +0.000 C 
ATOM     17  C   UNL     1       2.041   5.242  20.550  0.00  0.00    +0.000 C 
ENDBRANCH   2   5
BRANCH   3  18
ATOM     18  C   UNL     1      -1.362  11.439  19.243  0.00  0.00    +0.000 C 
BRANCH  18  19
ATOM     19  C   UNL     1      -2.431  11.358  18.182  0.00  0.00    +0.000 A 
ATOM     20  C   UNL     1      -2.125  10.926  16.885  0.00  0.00    +0.000 A 
ATOM     21  C   UNL     1      -3.123  10.838  15.913  0.00  0.00    +0.000 A 
ATOM     22  C   UNL     1      -4.443  11.155  16.232  0.00  0.00    +0.000 A 
ATOM     23  C   UNL     1      -4.778  11.566  17.529  0.00  0.00    +0.000 A 
ATOM     24  C   UNL     1      -3.762  11.672  18.494  0.00  0.00    +0.000 A 
BRANCH  23  25
ATOM     25  C   UNL     1      -6.217  11.821  17.900  0.00  0.00    +0.000 C 
BRANCH  25  26
ATOM     26  N   UNL     1      -6.534  13.238  17.848  0.00  0.00    +0.000 N 
ATOM     27  C   UNL     1      -6.649  14.108  18.889  0.00  0.00    +0.000 A 
ATOM     28  N   UNL     1      -6.891  15.314  18.433  0.00  0.00    +0.000 NA
ATOM     29  C   UNL     1      -6.914  15.129  17.079  0.00  0.00    +0.000 A 
ATOM     30  N   UNL     1      -6.688  13.878  16.670  0.00  0.00    +0.000 NA
ENDBRANCH  25  26
ENDBRANCH  23  25
ENDBRANCH  18  19
ENDBRANCH   3  18
TORSDOF 5
ENDMDL
MODEL 4
REMARK VINA RESULT:      -8.3      1.992      2.936
REMARK  Name = 
REMARK  5 active torsions:
REMARK  status: ('A' for Active; 'I' for Inactive)
REMARK    1  A    between atoms: C_2  and  C_17
REMARK    2  A    between atoms: N_3  and  C_4
REMARK    3  A    between atoms: C_4  and  C_5
REMARK    4  A    between atoms: C_9  and  C_10
REMARK    5  A    between atoms: C_10  and  N_11
REMARK                            x       y       z     vdW  Elec       q    Type
REMARK                         _______ _______ _______ _____ _____    ______ ____
ROOT
ATOM      1  O   UNL     1      -0.361  10.481  18.361  0.00  0.00    +0.000 OA
ATOM      2  C   UNL     1       0.550  10.283  19.164  0.00  0.00    +0.000 C 
ATOM      3  N   UNL     1       0.888  11.212  20.118  0.00  0.00    +0.000 N 
ATOM      4  H   UNL     1       1.693  11.024  20.699  0.00  0.00    +0.000 HD
ENDROOT
BRANCH   2   5
ATOM      5  C   UNL     1       1.387   9.086  19.129  0.00  0.00    +0.000 A 
ATOM      6  C   UNL     1       1.466   8.098  20.097  0.00  0.00    +0.000 A 
ATOM      7  C   UNL     1       2.212   6.974  19.645  0.00  0.00    +0.000 A 
ATOM      8  C   UNL     1       2.804   7.206  18.417  0.00  0.00    +0.000 A 
ATOM      9  S   UNL     1       2.401   8.727  17.788  0.00  0.00    +0.000 S 
ATOM     10  C   UNL     1       3.565   6.175  17.706  0.00  0.00    +0.000 A 
ATOM     11  C   UNL     1       4.563   6.450  16.770  0.00  0.00    +0.000 A 
ATOM     12  C   UNL     1       5.249   5.400  16.157  0.00  0.00    +0.000 A 
ATOM     13  C   UNL     1       4.920   4.075  16.452  0.00  0.00    +0.000 A 
ATOM     14  C   UNL     1       3.933   3.786  17.395  0.00  0.00    +0.000 A 
ATOM     15  C   UNL     1       3.285   4.829  18.061  0.00  0.00    +0.000 A 
ATOM     16  C   UNL     1       2.266   4.547  19.160  0.00  0.00    +0.000 C 
ATOM     17  C   UNL     1       2.351   5.618  20.273  0.00  0.00    +0.000 C 
ENDBRANCH   2   5
BRANCH   3  18
ATOM     18  C   UNL     1       0.234  12.495  20.242  0.00  0.00    +0.000 C 
BRANCH  18  19
ATOM     19  C   UNL     1      -0.962  12.401  21.156  0.00  0.00    +0.000 A 
ATOM     20  C   UNL     1      -0.841  11.873  22.447  0.00  0.00    +0.000 A 
ATOM     21  C   UNL     1      -1.949  11.806  23.293  0.00  0.00    +0.000 A 
ATOM     22  C   UNL     1      -3.187  12.289  22.868  0.00  0.00    +0.000 A 
ATOM     23  C   UNL     1      -3.328  12.843  21.589  0.00  0.00    +0.000 A 
ATOM     24  C   UNL     1      -2.210  12.886  20.737  0.00  0.00    +0.000 A 
BRANCH  23  25
ATOM     25  C   UNL     1      -4.642  13.447  21.161  0.00  0.00    +0.000 C 
BRANCH  25  26
ATOM     26  N   UNL     1      -5.491  12.462  20.512  0.00  0.00    +0.000 N 
ATOM     27  C   UNL     1      -5.454  12.052  19.215  0.00  0.00    +0.000 A 
ATOM     28  N   UNL     1      -6.345  11.108  19.024  0.00  0.00    +0.000 NA
ATOM     29  C   UNL     1      -6.913  10.971  20.259  0.00  0.00    +0.000 A 
ATOM     30  N   UNL     1      -6.416  11.770  21.208  0.00  0.00    +0.000 NA
ENDBRANCH  25  26
ENDBRANCH  23  25
ENDBRANCH  18  19
ENDBRANCH   3  18
TORSDOF 5
ENDMDL
MODEL 5
REMARK VINA RESULT:      -8.3      2.357      3.316
REMARK  Name = 
REMARK  5 active torsions:
REMARK  status: ('A' for Active; 'I' for Inactive)
REMARK    1  A    between atoms: C_2  and  C_17
REMARK    2  A    between atoms: N_3  and  C_4
REMARK    3  A    between atoms: C_4  and  C_5
REMARK    4  A    between atoms: C_9  and  C_10
REMARK    5  A    between atoms: C_10  and  N_11
REMARK                            x       y       z     vdW  Elec       q    Type
REMARK                         _______ _______ _______ _____ _____    ______ ____
ROOT
ATOM      1  O   UNL     1       1.699  11.293  18.740  0.00  0.00    +0.000 OA
ATOM      2  C   UNL     1       1.039  10.317  19.093  0.00  0.00    +0.000 C 
ATOM      3  N   UNL     1      -0.279  10.431  19.465  0.00  0.00    +0.000 N 
ATOM      4  H   UNL     1      -0.746   9.606  19.817  0.00  0.00    +0.000 HD
ENDROOT
BRANCH   2   5
ATOM      5  C   UNL     1       1.611   8.978  19.212  0.00  0.00    +0.000 A 
ATOM      6  C   UNL     1       1.492   8.116  20.289  0.00  0.00    +0.000 A 
ATOM      7  C   UNL     1       1.988   6.817  19.983  0.00  0.00    +0.000 A 
ATOM      8  C   UNL     1       2.607   6.778  18.748  0.00  0.00    +0.000 A 
ATOM      9  S   UNL     1       2.521   8.265  17.940  0.00  0.00    +0.000 S 
ATOM     10  C   UNL     1       3.134   5.537  18.174  0.00  0.00    +0.000 A 
ATOM     11  C   UNL     1       4.162   5.490  17.230  0.00  0.00    +0.000 A 
ATOM     12  C   UNL     1       4.612   4.258  16.755  0.00  0.00    +0.000 A 
ATOM     13  C   UNL     1       4.021   3.071  17.195  0.00  0.00    +0.000 A 
ATOM     14  C   UNL     1       3.002   3.104  18.148  0.00  0.00    +0.000 A 
ATOM     15  C   UNL     1       2.586   4.328  18.677  0.00  0.00    +0.000 A 
ATOM     16  C   UNL     1       1.539   4.390  19.783  0.00  0.00    +0.000 C 
ATOM     17  C   UNL     1       1.849   5.544  20.767  0.00  0.00    +0.000 C 
ENDBRANCH   2   5
BRANCH   3  18
ATOM     18  C   UNL     1      -0.986  11.690  19.502  0.00  0.00    +0.000 C 
BRANCH  18  19
ATOM     19  C   UNL     1      -1.651  11.893  20.841  0.00  0.00    +0.000 A 
ATOM     20  C   UNL     1      -1.104  11.339  22.006  0.00  0.00    +0.000 A 
ATOM     21  C   UNL     1      -1.716  11.545  23.244  0.00  0.00    +0.000 A 
ATOM     22  C   UNL     1      -2.866  12.328  23.336  0.00  0.00    +0.000 A 
ATOM     23  C   UNL     1      -3.419  12.912  22.189  0.00  0.00    +0.000 A 
ATOM     24  C   UNL     1      -2.807  12.681  20.944  0.00  0.00    +0.000 A 
BRANCH  23  25
ATOM     25  C   UNL     1      -4.609  13.832  22.299  0.00  0.00    +0.000 C 
BRANCH  25  26
ATOM     26  N   UNL     1      -5.837  13.085  22.512  0.00  0.00    +0.000 N 
ATOM     27  C   UNL     1      -6.500  12.296  21.622  0.00  0.00    +0.000 A 
ATOM     28  N   UNL     1      -7.539  11.748  22.207  0.00  0.00    +0.000 NA
ATOM     29  C   UNL     1      -7.468  12.240  23.480  0.00  0.00    +0.000 A 
ATOM     30  N   UNL     1      -6.436  13.053  23.720  0.00  0.00    +0.000 NA
ENDBRANCH  25  26
ENDBRANCH  23  25
ENDBRANCH  18  19
ENDBRANCH   3  18
TORSDOF 5
ENDMDL
MODEL 6
REMARK VINA RESULT:      -8.2      1.951      2.928
REMARK  Name = 
REMARK  5 active torsions:
REMARK  status: ('A' for Active; 'I' for Inactive)
REMARK    1  A    between atoms: C_2  and  C_17
REMARK    2  A    between atoms: N_3  and  C_4
REMARK    3  A    between atoms: C_4  and  C_5
REMARK    4  A    between atoms: C_9  and  C_10
REMARK    5  A    between atoms: C_10  and  N_11
REMARK                            x       y       z     vdW  Elec       q    Type
REMARK                         _______ _______ _______ _____ _____    ______ ____
ROOT
ATOM      1  O   UNL     1       1.798  11.233  18.548  0.00  0.00    +0.000 OA
ATOM      2  C   UNL     1       1.118  10.291  18.953  0.00  0.00    +0.000 C 
ATOM      3  N   UNL     1      -0.193  10.455  19.332  0.00  0.00    +0.000 N 
ATOM      4  H   UNL     1      -0.676   9.660  19.727  0.00  0.00    +0.000 HD
ENDROOT
BRANCH   2   5
ATOM      5  C   UNL     1       1.658   8.945  19.128  0.00  0.00    +0.000 A 
ATOM      6  C   UNL     1       1.540   8.141  20.250  0.00  0.00    +0.000 A 
ATOM      7  C   UNL     1       1.996   6.816  20.000  0.00  0.00    +0.000 A 
ATOM      8  C   UNL     1       2.586   6.698  18.756  0.00  0.00    +0.000 A 
ATOM      9  S   UNL     1       2.520   8.144  17.875  0.00  0.00    +0.000 S 
ATOM     10  C   UNL     1       3.069   5.416  18.235  0.00  0.00    +0.000 A 
ATOM     11  C   UNL     1       4.073   5.294  17.274  0.00  0.00    +0.000 A 
ATOM     12  C   UNL     1       4.482   4.028  16.853  0.00  0.00    +0.000 A 
ATOM     13  C   UNL     1       3.869   2.881  17.365  0.00  0.00    +0.000 A 
ATOM     14  C   UNL     1       2.873   2.989  18.336  0.00  0.00    +0.000 A 
ATOM     15  C   UNL     1       2.501   4.249  18.811  0.00  0.00    +0.000 A 
ATOM     16  C   UNL     1       1.480   4.395  19.933  0.00  0.00    +0.000 C 
ATOM     17  C   UNL     1       1.842   5.588  20.850  0.00  0.00    +0.000 C 
ENDBRANCH   2   5
BRANCH   3  18
ATOM     18  C   UNL     1      -0.868  11.732  19.319  0.00  0.00    +0.000 C 
BRANCH  18  19
ATOM     19  C   UNL     1      -1.666  11.930  20.583  0.00  0.00    +0.000 A 
ATOM     20  C   UNL     1      -1.152  11.543  21.827  0.00  0.00    +0.000 A 
ATOM     21  C   UNL     1      -1.890  11.745  22.994  0.00  0.00    +0.000 A 
ATOM     22  C   UNL     1      -3.140  12.360  22.936  0.00  0.00    +0.000 A 
ATOM     23  C   UNL     1      -3.666  12.778  21.706  0.00  0.00    +0.000 A 
ATOM     24  C   UNL     1      -2.924  12.550  20.534  0.00  0.00    +0.000 A 
BRANCH  23  25
ATOM     25  C   UNL     1      -4.976  13.524  21.652  0.00  0.00    +0.000 C 
BRANCH  25  26
ATOM     26  N   UNL     1      -5.984  12.772  20.924  0.00  0.00    +0.000 N 
ATOM     27  C   UNL     1      -6.422  12.975  19.651  0.00  0.00    +0.000 A 
ATOM     28  N   UNL     1      -7.300  12.053  19.333  0.00  0.00    +0.000 NA
ATOM     29  C   UNL     1      -7.366  11.292  20.466  0.00  0.00    +0.000 A 
ATOM     30  N   UNL     1      -6.570  11.683  21.464  0.00  0.00    +0.000 NA
ENDBRANCH  25  26
ENDBRANCH  23  25
ENDBRANCH  18  19
ENDBRANCH   3  18
TORSDOF 5
ENDMDL
MODEL 7
REMARK VINA RESULT:      -8.2      7.280     11.028
REMARK  Name = 
REMARK  5 active torsions:
REMARK  status: ('A' for Active; 'I' for Inactive)
REMARK    1  A    between atoms: C_2  and  C_17
REMARK    2  A    between atoms: N_3  and  C_4
REMARK    3  A    between atoms: C_4  and  C_5
REMARK    4  A    between atoms: C_9  and  C_10
REMARK    5  A    between atoms: C_10  and  N_11
REMARK                            x       y       z     vdW  Elec       q    Type
REMARK                         _______ _______ _______ _____ _____    ______ ____
ROOT
ATOM      1  O   UNL     1       7.671   6.126  16.930  0.00  0.00    +0.000 OA
ATOM      2  C   UNL     1       6.881   6.887  17.485  0.00  0.00    +0.000 C 
ATOM      3  N   UNL     1       7.196   8.200  17.738  0.00  0.00    +0.000 N 
ATOM      4  H   UNL     1       6.535   8.755  18.263  0.00  0.00    +0.000 HD
ENDROOT
BRANCH   2   5
ATOM      5  C   UNL     1       5.577   6.449  17.978  0.00  0.00    +0.000 A 
ATOM      6  C   UNL     1       4.336   6.802  17.474  0.00  0.00    +0.000 A 
ATOM      7  C   UNL     1       3.292   6.027  18.052  0.00  0.00    +0.000 A 
ATOM      8  C   UNL     1       3.751   5.226  19.081  0.00  0.00    +0.000 A 
ATOM      9  S   UNL     1       5.427   5.352  19.293  0.00  0.00    +0.000 S 
ATOM     10  C   UNL     1       2.881   4.280  19.786  0.00  0.00    +0.000 A 
ATOM     11  C   UNL     1       3.111   3.833  21.089  0.00  0.00    +0.000 A 
ATOM     12  C   UNL     1       2.215   2.945  21.686  0.00  0.00    +0.000 A 
ATOM     13  C   UNL     1       1.105   2.477  20.978  0.00  0.00    +0.000 A 
ATOM     14  C   UNL     1       0.857   2.927  19.680  0.00  0.00    +0.000 A 
ATOM     15  C   UNL     1       1.713   3.864  19.096  0.00  0.00    +0.000 A 
ATOM     16  C   UNL     1       1.420   4.441  17.715  0.00  0.00    +0.000 C 
ATOM     17  C   UNL     1       1.852   5.925  17.640  0.00  0.00    +0.000 C 
ENDBRANCH   2   5
BRANCH   3  18
ATOM     18  C   UNL     1       8.476   8.786  17.408  0.00  0.00    +0.000 C 
BRANCH  18  19
ATOM     19  C   UNL     1       8.756   9.986  18.277  0.00  0.00    +0.000 A 
ATOM     20  C   UNL     1       9.131   9.831  19.618  0.00  0.00    +0.000 A 
ATOM     21  C   UNL     1       9.406  10.947  20.411  0.00  0.00    +0.000 A 
ATOM     22  C   UNL     1       9.334  12.229  19.867  0.00  0.00    +0.000 A 
ATOM     23  C   UNL     1       8.983  12.408  18.522  0.00  0.00    +0.000 A 
ATOM     24  C   UNL     1       8.688  11.279  17.738  0.00  0.00    +0.000 A 
BRANCH  23  25
ATOM     25  C   UNL     1       8.993  13.786  17.909  0.00  0.00    +0.000 C 
BRANCH  25  26
ATOM     26  N   UNL     1      10.344  14.311  17.807  0.00  0.00    +0.000 N 
ATOM     27  C   UNL     1      10.897  15.338  18.510  0.00  0.00    +0.000 A 
ATOM     28  N   UNL     1      12.157  15.476  18.172  0.00  0.00    +0.000 NA
ATOM     29  C   UNL     1      12.333  14.490  17.242  0.00  0.00    +0.000 A 
ATOM     30  N   UNL     1      11.256  13.741  16.993  0.00  0.00    +0.000 NA
ENDBRANCH  25  26
ENDBRANCH  23  25
ENDBRANCH  18  19
ENDBRANCH   3  18
TORSDOF 5
ENDMDL
MODEL 8
REMARK VINA RESULT:      -8.0      1.457      2.213
REMARK  Name = 
REMARK  5 active torsions:
REMARK  status: ('A' for Active; 'I' for Inactive)
REMARK    1  A    between atoms: C_2  and  C_17
REMARK    2  A    between atoms: N_3  and  C_4
REMARK    3  A    between atoms: C_4  and  C_5
REMARK    4  A    between atoms: C_9  and  C_10
REMARK    5  A    between atoms: C_10  and  N_11
REMARK                            x       y       z     vdW  Elec       q    Type
REMARK                         _______ _______ _______ _____ _____    ______ ____
ROOT
ATOM      1  O   UNL     1       2.139  10.695  17.960  0.00  0.00    +0.000 OA
ATOM      2  C   UNL     1       1.550   9.621  18.062  0.00  0.00    +0.000 C 
ATOM      3  N   UNL     1       0.220   9.553  18.399  0.00  0.00    +0.000 N 
ATOM      4  H   UNL     1      -0.189   8.640  18.541  0.00  0.00    +0.000 HD
ENDROOT
BRANCH   2   5
ATOM      5  C   UNL     1       2.222   8.333  17.900  0.00  0.00    +0.000 A 
ATOM      6  C   UNL     1       3.564   8.125  17.625  0.00  0.00    +0.000 A 
ATOM      7  C   UNL     1       3.921   6.753  17.748  0.00  0.00    +0.000 A 
ATOM      8  C   UNL     1       2.817   5.948  17.958  0.00  0.00    +0.000 A 
ATOM      9  S   UNL     1       1.384   6.843  18.080  0.00  0.00    +0.000 S 
ATOM     10  C   UNL     1       2.932   4.506  18.190  0.00  0.00    +0.000 A 
ATOM     11  C   UNL     1       1.914   3.590  17.918  0.00  0.00    +0.000 A 
ATOM     12  C   UNL     1       2.122   2.230  18.154  0.00  0.00    +0.000 A 
ATOM     13  C   UNL     1       3.332   1.783  18.691  0.00  0.00    +0.000 A 
ATOM     14  C   UNL     1       4.362   2.687  18.955  0.00  0.00    +0.000 A 
ATOM     15  C   UNL     1       4.187   4.042  18.663  0.00  0.00    +0.000 A 
ATOM     16  C   UNL     1       5.323   5.040  18.857  0.00  0.00    +0.000 C 
ATOM     17  C   UNL     1       5.287   6.130  17.760  0.00  0.00    +0.000 C 
ENDBRANCH   2   5
BRANCH   3  18
ATOM     18  C   UNL     1      -0.584  10.718  18.691  0.00  0.00    +0.000 C 
BRANCH  18  19
ATOM     19  C   UNL     1      -1.827  10.740  17.837  0.00  0.00    +0.000 A 
ATOM     20  C   UNL     1      -1.918   9.956  16.680  0.00  0.00    +0.000 A 
ATOM     21  C   UNL     1      -3.078   9.968  15.904  0.00  0.00    +0.000 A 
ATOM     22  C   UNL     1      -4.171  10.744  16.289  0.00  0.00    +0.000 A 
ATOM     23  C   UNL     1      -4.113  11.518  17.455  0.00  0.00    +0.000 A 
ATOM     24  C   UNL     1      -2.932  11.515  18.217  0.00  0.00    +0.000 A 
BRANCH  23  25
ATOM     25  C   UNL     1      -5.325  12.287  17.921  0.00  0.00    +0.000 C 
BRANCH  25  26
ATOM     26  N   UNL     1      -5.997  11.604  19.013  0.00  0.00    +0.000 N 
ATOM     27  C   UNL     1      -6.063  11.980  20.320  0.00  0.00    +0.000 A 
ATOM     28  N   UNL     1      -6.809  11.131  20.987  0.00  0.00    +0.000 NA
ATOM     29  C   UNL     1      -7.186  10.236  20.026  0.00  0.00    +0.000 A 
ATOM     30  N   UNL     1      -6.725  10.489  18.798  0.00  0.00    +0.000 NA
ENDBRANCH  25  26
ENDBRANCH  23  25
ENDBRANCH  18  19
ENDBRANCH   3  18
TORSDOF 5
ENDMDL
MODEL 9
REMARK VINA RESULT:      -8.0      1.647      1.966
REMARK  Name = 
REMARK  5 active torsions:
REMARK  status: ('A' for Active; 'I' for Inactive)
REMARK    1  A    between atoms: C_2  and  C_17
REMARK    2  A    between atoms: N_3  and  C_4
REMARK    3  A    between atoms: C_4  and  C_5
REMARK    4  A    between atoms: C_9  and  C_10
REMARK    5  A    between atoms: C_10  and  N_11
REMARK                            x       y       z     vdW  Elec       q    Type
REMARK                         _______ _______ _______ _____ _____    ______ ____
ROOT
ATOM      1  O   UNL     1      -0.072   9.911  20.827  0.00  0.00    +0.000 OA
ATOM      2  C   UNL     1       0.589   9.812  19.795  0.00  0.00    +0.000 C 
ATOM      3  N   UNL     1       0.484  10.730  18.777  0.00  0.00    +0.000 N 
ATOM      4  H   UNL     1       0.997  10.554  17.924  0.00  0.00    +0.000 HD
ENDROOT
BRANCH   2   5
ATOM      5  C   UNL     1       1.484   8.687  19.535  0.00  0.00    +0.000 A 
ATOM      6  C   UNL     1       1.675   7.574  20.338  0.00  0.00    +0.000 A 
ATOM      7  C   UNL     1       2.450   6.577  19.682  0.00  0.00    +0.000 A 
ATOM      8  C   UNL     1       2.951   7.023  18.473  0.00  0.00    +0.000 A 
ATOM      9  S   UNL     1       2.430   8.592  18.103  0.00  0.00    +0.000 S 
ATOM     10  C   UNL     1       3.720   6.156  17.575  0.00  0.00    +0.000 A 
ATOM     11  C   UNL     1       4.641   6.627  16.639  0.00  0.00    +0.000 A 
ATOM     12  C   UNL     1       5.342   5.723  15.839  0.00  0.00    +0.000 A 
ATOM     13  C   UNL     1       5.103   4.351  15.948  0.00  0.00    +0.000 A 
ATOM     14  C   UNL     1       4.193   3.867  16.889  0.00  0.00    +0.000 A 
ATOM     15  C   UNL     1       3.534   4.758  17.738  0.00  0.00    +0.000 A 
ATOM     16  C   UNL     1       2.602   4.255  18.835  0.00  0.00    +0.000 C 
ATOM     17  C   UNL     1       2.700   5.154  20.090  0.00  0.00    +0.000 C 
ENDBRANCH   2   5
BRANCH   3  18
ATOM     18  C   UNL     1      -0.420  11.856  18.816  0.00  0.00    +0.000 C 
BRANCH  18  19
ATOM     19  C   UNL     1      -1.808  11.444  18.393  0.00  0.00    +0.000 A 
ATOM     20  C   UNL     1      -2.001  10.404  17.475  0.00  0.00    +0.000 A 
ATOM     21  C   UNL     1      -3.289  10.017  17.101  0.00  0.00    +0.000 A 
ATOM     22  C   UNL     1      -4.400  10.648  17.659  0.00  0.00    +0.000 A 
ATOM     23  C   UNL     1      -4.234  11.675  18.597  0.00  0.00    +0.000 A 
ATOM     24  C   UNL     1      -2.932  12.071  18.950  0.00  0.00    +0.000 A 
BRANCH  23  25
ATOM     25  C   UNL     1      -5.433  12.296  19.268  0.00  0.00    +0.000 C 
BRANCH  25  26
ATOM     26  N   UNL     1      -5.044  13.080  20.428  0.00  0.00    +0.000 N 
ATOM     27  C   UNL     1      -4.698  12.627  21.664  0.00  0.00    +0.000 A 
ATOM     28  N   UNL     1      -4.357  13.639  22.426  0.00  0.00    +0.000 NA
ATOM     29  C   UNL     1      -4.513  14.712  21.595  0.00  0.00    +0.000 A 
ATOM     30  N   UNL     1      -4.920  14.421  20.356  0.00  0.00    +0.000 NA
ENDBRANCH  25  26
ENDBRANCH  23  25
ENDBRANCH  18  19
ENDBRANCH   3  18
TORSDOF 5
ENDMDL
