MODEL 1
REMARK VINA RESULT:      -8.5      0.000      0.000
REMARK  Name = 
REMARK  4 active torsions:
REMARK  status: ('A' for Active; 'I' for Inactive)
REMARK    1  A    between atoms: C_2  and  C_22
REMARK    2  A    between atoms: C_7  and  C_8
REMARK    3  A    between atoms: C_14  and  C_15
REMARK    4  A    between atoms: C_22  and  C_23
REMARK                            x       y       z     vdW  Elec       q    Type
REMARK                         _______ _______ _______ _____ _____    ______ ____
ROOT
ATOM      1  O   UNL     1       2.106  10.707  17.586  0.00  0.00    +0.000 OA
ATOM      2  C   UNL     1       1.344  10.673  18.547  0.00  0.00    +0.000 C 
ATOM      3  N   UNL     1       1.050   9.500  19.250  0.00  0.00    +0.000 N 
ATOM      4  C   UNL     1       0.091   9.405  20.339  0.00  0.00    +0.000 C 
ATOM      5  C   UNL     1       0.820   8.938  21.589  0.00  0.00    +0.000 C 
ATOM      6  C   UNL     1       1.355   7.532  21.359  0.00  0.00    +0.000 C 
ATOM      7  C   UNL     1       2.206   7.418  20.071  0.00  0.00    +0.000 C 
ATOM      8  C   UNL     1       1.648   8.221  18.864  0.00  0.00    +0.000 C 
ENDROOT
BRANCH   7   9
ATOM      9  C   UNL     1       2.321   5.968  19.694  0.00  0.00    +0.000 A 
ATOM     10  N   UNL     1       1.685   4.978  20.293  0.00  0.00    +0.000 NA
ATOM     11  N   UNL     1       2.005   3.802  19.663  0.00  0.00    +0.000 NA
ATOM     12  C   UNL     1       2.836   4.092  18.692  0.00  0.00    +0.000 A 
ATOM     13  C   UNL     1       3.463   3.293  17.697  0.00  0.00    +0.000 A 
ATOM     14  C   UNL     1       4.281   3.870  16.795  0.00  0.00    +0.000 A 
ATOM     15  C   UNL     1       4.548   5.309  16.812  0.00  0.00    +0.000 A 
ATOM     16  C   UNL     1       3.932   6.067  17.752  0.00  0.00    +0.000 A 
ATOM     17  N   UNL     1       3.084   5.458  18.669  0.00  0.00    +0.000 N 
BRANCH  15  18
ATOM     18  C   UNL     1       5.475   5.904  15.788  0.00  0.00    +0.000 C 
ATOM     19  F   UNL     1       6.660   6.310  16.313  0.00  0.00    +0.000 F 
ATOM     20  F   UNL     1       5.765   5.016  14.803  0.00  0.00    +0.000 F 
ATOM     21  F   UNL     1       4.917   6.986  15.189  0.00  0.00    +0.000 F 
ENDBRANCH  15  18
ENDBRANCH   7   9
BRANCH   2  22
ATOM     22  C   UNL     1       0.746  11.972  19.062  0.00  0.00    +0.000 C 
ATOM     23  C   UNL     1       1.500  13.302  18.833  0.00  0.00    +0.000 C 
ATOM     24  C   UNL     1       1.547  12.668  20.172  0.00  0.00    +0.000 C 
BRANCH  22  25
ATOM     25  C   UNL     1      -0.763  12.219  18.901  0.00  0.00    +0.000 A 
ATOM     26  C   UNL     1      -1.490  11.674  17.830  0.00  0.00    +0.000 A 
ATOM     27  C   UNL     1      -2.874  11.510  17.910  0.00  0.00    +0.000 A 
ATOM     28  C   UNL     1      -3.562  11.932  19.044  0.00  0.00    +0.000 A 
ATOM     29  C   UNL     1      -2.882  12.600  20.056  0.00  0.00    +0.000 A 
ATOM     30  C   UNL     1      -1.498  12.764  19.972  0.00  0.00    +0.000 A 
ENDBRANCH  22  25
ENDBRANCH   2  22
TORSDOF 4
ENDMDL
MODEL 2
REMARK VINA RESULT:      -8.2      3.059      3.887
REMARK  Name = 
REMARK  4 active torsions:
REMARK  status: ('A' for Active; 'I' for Inactive)
REMARK    1  A    between atoms: C_2  and  C_22
REMARK    2  A    between atoms: C_7  and  C_8
REMARK    3  A    between atoms: C_14  and  C_15
REMARK    4  A    between atoms: C_22  and  C_23
REMARK                            x       y       z     vdW  Elec       q    Type
REMARK                         _______ _______ _______ _____ _____    ______ ____
ROOT
ATOM      1  O   UNL     1      -0.367   8.434  21.510  0.00  0.00    +0.000 OA
ATOM      2  C   UNL     1       0.035   9.393  20.859  0.00  0.00    +0.000 C 
ATOM      3  N   UNL     1       1.132   9.324  19.994  0.00  0.00    +0.000 N 
ATOM      4  C   UNL     1       1.688  10.457  19.270  0.00  0.00    +0.000 C 
ATOM      5  C   UNL     1       1.601  10.170  17.779  0.00  0.00    +0.000 C 
ATOM      6  C   UNL     1       2.479   8.971  17.449  0.00  0.00    +0.000 C 
ATOM      7  C   UNL     1       2.167   7.739  18.332  0.00  0.00    +0.000 C 
ATOM      8  C   UNL     1       1.879   8.077  19.820  0.00  0.00    +0.000 C 
ENDROOT
BRANCH   7   9
ATOM      9  C   UNL     1       3.323   6.784  18.254  0.00  0.00    +0.000 A 
ATOM     10  N   UNL     1       4.475   7.036  17.659  0.00  0.00    +0.000 NA
ATOM     11  N   UNL     1       5.300   5.951  17.815  0.00  0.00    +0.000 NA
ATOM     12  C   UNL     1       4.638   5.051  18.498  0.00  0.00    +0.000 A 
ATOM     13  C   UNL     1       4.994   3.762  18.983  0.00  0.00    +0.000 A 
ATOM     14  C   UNL     1       4.097   3.041  19.683  0.00  0.00    +0.000 A 
ATOM     15  C   UNL     1       2.752   3.549  19.960  0.00  0.00    +0.000 A 
ATOM     16  C   UNL     1       2.426   4.785  19.510  0.00  0.00    +0.000 A 
ATOM     17  N   UNL     1       3.365   5.520  18.797  0.00  0.00    +0.000 N 
BRANCH  15  18
ATOM     18  C   UNL     1       1.785   2.701  20.739  0.00  0.00    +0.000 C 
ATOM     19  F   UNL     1       2.302   2.234  21.904  0.00  0.00    +0.000 F 
ATOM     20  F   UNL     1       0.660   3.392  21.056  0.00  0.00    +0.000 F 
ATOM     21  F   UNL     1       1.391   1.619  20.021  0.00  0.00    +0.000 F 
ENDBRANCH  15  18
ENDBRANCH   7   9
BRANCH   2  22
ATOM     22  C   UNL     1      -0.734  10.702  20.920  0.00  0.00    +0.000 C 
ATOM     23  C   UNL     1      -0.036  11.973  21.456  0.00  0.00    +0.000 C 
ATOM     24  C   UNL     1      -0.987  11.249  22.333  0.00  0.00    +0.000 C 
BRANCH  22  25
ATOM     25  C   UNL     1      -1.647  11.091  19.745  0.00  0.00    +0.000 A 
ATOM     26  C   UNL     1      -1.767  10.281  18.604  0.00  0.00    +0.000 A 
ATOM     27  C   UNL     1      -2.881  10.376  17.769  0.00  0.00    +0.000 A 
ATOM     28  C   UNL     1      -3.874  11.316  18.034  0.00  0.00    +0.000 A 
ATOM     29  C   UNL     1      -3.707  12.221  19.076  0.00  0.00    +0.000 A 
ATOM     30  C   UNL     1      -2.591  12.124  19.908  0.00  0.00    +0.000 A 
ENDBRANCH  22  25
ENDBRANCH   2  22
TORSDOF 4
ENDMDL
MODEL 3
REMARK VINA RESULT:      -8.2      3.670      8.284
REMARK  Name = 
REMARK  4 active torsions:
REMARK  status: ('A' for Active; 'I' for Inactive)
REMARK    1  A    between atoms: C_2  and  C_22
REMARK    2  A    between atoms: C_7  and  C_8
REMARK    3  A    between atoms: C_14  and  C_15
REMARK    4  A    between atoms: C_22  and  C_23
REMARK                            x       y       z     vdW  Elec       q    Type
REMARK                         _______ _______ _______ _____ _____    ______ ____
ROOT
ATOM      1  O   UNL     1       4.820   6.642  15.715  0.00  0.00    +0.000 OA
ATOM      2  C   UNL     1       4.709   6.200  16.853  0.00  0.00    +0.000 C 
ATOM      3  N   UNL     1       4.019   6.867  17.870  0.00  0.00    +0.000 N 
ATOM      4  C   UNL     1       3.938   6.415  19.251  0.00  0.00    +0.000 C 
ATOM      5  C   UNL     1       2.475   6.186  19.601  0.00  0.00    +0.000 C 
ATOM      6  C   UNL     1       1.732   7.513  19.534  0.00  0.00    +0.000 C 
ATOM      7  C   UNL     1       1.935   8.246  18.187  0.00  0.00    +0.000 C 
ATOM      8  C   UNL     1       3.381   8.161  17.625  0.00  0.00    +0.000 C 
ENDROOT
BRANCH   7   9
ATOM      9  C   UNL     1       1.553   9.689  18.359  0.00  0.00    +0.000 A 
ATOM     10  N   UNL     1       2.381  10.654  18.716  0.00  0.00    +0.000 NA
ATOM     11  N   UNL     1       1.694  11.840  18.739  0.00  0.00    +0.000 NA
ATOM     12  C   UNL     1       0.454  11.581  18.402  0.00  0.00    +0.000 A 
ATOM     13  C   UNL     1      -0.685  12.414  18.223  0.00  0.00    +0.000 A 
ATOM     14  C   UNL     1      -1.859  11.868  17.853  0.00  0.00    +0.000 A 
ATOM     15  C   UNL     1      -2.000  10.428  17.631  0.00  0.00    +0.000 A 
ATOM     16  C   UNL     1      -0.906   9.643  17.786  0.00  0.00    +0.000 A 
ATOM     17  N   UNL     1       0.300  10.222  18.158  0.00  0.00    +0.000 N 
BRANCH  15  18
ATOM     18  C   UNL     1      -3.335   9.867  17.227  0.00  0.00    +0.000 C 
ATOM     19  F   UNL     1      -3.755   8.856  18.030  0.00  0.00    +0.000 F 
ATOM     20  F   UNL     1      -4.304  10.818  17.252  0.00  0.00    +0.000 F 
ATOM     21  F   UNL     1      -3.300   9.377  15.962  0.00  0.00    +0.000 F 
ENDBRANCH  15  18
ENDBRANCH   7   9
BRANCH   2  22
ATOM     22  C   UNL     1       5.273   4.824  17.168  0.00  0.00    +0.000 C 
ATOM     23  C   UNL     1       6.642   4.705  17.877  0.00  0.00    +0.000 C 
ATOM     24  C   UNL     1       6.562   4.455  16.418  0.00  0.00    +0.000 C 
BRANCH  22  25
ATOM     25  C   UNL     1       4.333   3.734  17.710  0.00  0.00    +0.000 A 
ATOM     26  C   UNL     1       4.544   3.132  18.960  0.00  0.00    +0.000 A 
ATOM     27  C   UNL     1       3.501   2.503  19.641  0.00  0.00    +0.000 A 
ATOM     28  C   UNL     1       2.238   2.422  19.061  0.00  0.00    +0.000 A 
ATOM     29  C   UNL     1       2.041   2.888  17.766  0.00  0.00    +0.000 A 
ATOM     30  C   UNL     1       3.087   3.515  17.087  0.00  0.00    +0.000 A 
ENDBRANCH  22  25
ENDBRANCH   2  22
TORSDOF 4
ENDMDL
MODEL 4
REMARK VINA RESULT:      -8.1      3.954      8.414
REMARK  Name = 
REMARK  4 active torsions:
REMARK  status: ('A' for Active; 'I' for Inactive)
REMARK    1  A    between atoms: C_2  and  C_22
REMARK    2  A    between atoms: C_7  and  C_8
REMARK    3  A    between atoms: C_14  and  C_15
REMARK    4  A    between atoms: C_22  and  C_23
REMARK                            x       y       z     vdW  Elec       q    Type
REMARK                         _______ _______ _______ _____ _____    ______ ____
ROOT
ATOM      1  O   UNL     1       4.847   6.460  15.619  0.00  0.00    +0.000 OA
ATOM      2  C   UNL     1       4.795   5.999  16.754  0.00  0.00    +0.000 C 
ATOM      3  N   UNL     1       4.197   6.669  17.826  0.00  0.00    +0.000 N 
ATOM      4  C   UNL     1       4.190   6.192  19.200  0.00  0.00    +0.000 C 
ATOM      5  C   UNL     1       2.746   6.007  19.643  0.00  0.00    +0.000 C 
ATOM      6  C   UNL     1       2.049   7.360  19.649  0.00  0.00    +0.000 C 
ATOM      7  C   UNL     1       2.190   8.113  18.304  0.00  0.00    +0.000 C 
ATOM      8  C   UNL     1       3.591   7.989  17.647  0.00  0.00    +0.000 C 
ENDROOT
BRANCH   7   9
ATOM      9  C   UNL     1       1.872   9.564  18.527  0.00  0.00    +0.000 A 
ATOM     10  N   UNL     1       2.177  10.542  17.693  0.00  0.00    +0.000 NA
ATOM     11  N   UNL     1       1.705  11.724  18.206  0.00  0.00    +0.000 NA
ATOM     12  C   UNL     1       1.124  11.451  19.348  0.00  0.00    +0.000 A 
ATOM     13  C   UNL     1       0.434  12.262  20.291  0.00  0.00    +0.000 A 
ATOM     14  C   UNL     1      -0.085  11.701  21.400  0.00  0.00    +0.000 A 
ATOM     15  C   UNL     1       0.044  10.267  21.668  0.00  0.00    +0.000 A 
ATOM     16  C   UNL     1       0.687   9.497  20.756  0.00  0.00    +0.000 A 
ATOM     17  N   UNL     1       1.208  10.089  19.612  0.00  0.00    +0.000 N 
BRANCH  15  18
ATOM     18  C   UNL     1      -0.546   9.691  22.925  0.00  0.00    +0.000 C 
ATOM     19  F   UNL     1      -1.540  10.454  23.447  0.00  0.00    +0.000 F 
ATOM     20  F   UNL     1      -1.069   8.457  22.711  0.00  0.00    +0.000 F 
ATOM     21  F   UNL     1       0.396   9.555  23.892  0.00  0.00    +0.000 F 
ENDBRANCH  15  18
ENDBRANCH   7   9
BRANCH   2  22
ATOM     22  C   UNL     1       5.328   4.598  17.007  0.00  0.00    +0.000 C 
ATOM     23  C   UNL     1       6.743   4.416  17.602  0.00  0.00    +0.000 C 
ATOM     24  C   UNL     1       6.538   4.192  16.151  0.00  0.00    +0.000 C 
BRANCH  22  25
ATOM     25  C   UNL     1       4.392   3.537  17.608  0.00  0.00    +0.000 A 
ATOM     26  C   UNL     1       4.662   2.933  18.847  0.00  0.00    +0.000 A 
ATOM     27  C   UNL     1       3.644   2.335  19.592  0.00  0.00    +0.000 A 
ATOM     28  C   UNL     1       2.347   2.288  19.090  0.00  0.00    +0.000 A 
ATOM     29  C   UNL     1       2.086   2.755  17.806  0.00  0.00    +0.000 A 
ATOM     30  C   UNL     1       3.106   3.351  17.063  0.00  0.00    +0.000 A 
ENDBRANCH  22  25
ENDBRANCH   2  22
TORSDOF 4
ENDMDL
MODEL 5
REMARK VINA RESULT:      -8.1      1.382      1.705
REMARK  Name = 
REMARK  4 active torsions:
REMARK  status: ('A' for Active; 'I' for Inactive)
REMARK    1  A    between atoms: C_2  and  C_22
REMARK    2  A    between atoms: C_7  and  C_8
REMARK    3  A    between atoms: C_14  and  C_15
REMARK    4  A    between atoms: C_22  and  C_23
REMARK                            x       y       z     vdW  Elec       q    Type
REMARK                         _______ _______ _______ _____ _____    ______ ____
ROOT
ATOM      1  O   UNL     1       2.284  11.231  17.702  0.00  0.00    +0.000 OA
ATOM      2  C   UNL     1       1.531  10.968  18.634  0.00  0.00    +0.000 C 
ATOM      3  N   UNL     1       1.249   9.662  19.046  0.00  0.00    +0.000 N 
ATOM      4  C   UNL     1       0.300   9.310  20.090  0.00  0.00    +0.000 C 
ATOM      5  C   UNL     1       1.043   8.568  21.191  0.00  0.00    +0.000 C 
ATOM      6  C   UNL     1       1.583   7.258  20.635  0.00  0.00    +0.000 C 
ATOM      7  C   UNL     1       2.422   7.453  19.350  0.00  0.00    +0.000 C 
ATOM      8  C   UNL     1       1.849   8.512  18.368  0.00  0.00    +0.000 C 
ENDROOT
BRANCH   7   9
ATOM      9  C   UNL     1       2.540   6.133  18.645  0.00  0.00    +0.000 A 
ATOM     10  N   UNL     1       1.521   5.382  18.268  0.00  0.00    +0.000 NA
ATOM     11  N   UNL     1       2.004   4.269  17.627  0.00  0.00    +0.000 NA
ATOM     12  C   UNL     1       3.311   4.355  17.627  0.00  0.00    +0.000 A 
ATOM     13  C   UNL     1       4.326   3.522  17.080  0.00  0.00    +0.000 A 
ATOM     14  C   UNL     1       5.621   3.866  17.223  0.00  0.00    +0.000 A 
ATOM     15  C   UNL     1       6.017   5.083  17.933  0.00  0.00    +0.000 A 
ATOM     16  C   UNL     1       5.044   5.882  18.436  0.00  0.00    +0.000 A 
ATOM     17  N   UNL     1       3.713   5.518  18.272  0.00  0.00    +0.000 N 
BRANCH  15  18
ATOM     18  C   UNL     1       7.477   5.419  18.072  0.00  0.00    +0.000 C 
ATOM     19  F   UNL     1       7.864   6.456  17.286  0.00  0.00    +0.000 F 
ATOM     20  F   UNL     1       7.792   5.753  19.349  0.00  0.00    +0.000 F 
ATOM     21  F   UNL     1       8.258   4.360  17.740  0.00  0.00    +0.000 F 
ENDBRANCH  15  18
ENDBRANCH   7   9
BRANCH   2  22
ATOM     22  C   UNL     1       0.932  12.107  19.441  0.00  0.00    +0.000 C 
ATOM     23  C   UNL     1       1.695  13.448  19.552  0.00  0.00    +0.000 C 
ATOM     24  C   UNL     1       1.721  12.507  20.698  0.00  0.00    +0.000 C 
BRANCH  22  25
ATOM     25  C   UNL     1      -0.574  12.397  19.328  0.00  0.00    +0.000 A 
ATOM     26  C   UNL     1      -1.308  12.045  18.184  0.00  0.00    +0.000 A 
ATOM     27  C   UNL     1      -2.694  11.889  18.240  0.00  0.00    +0.000 A 
ATOM     28  C   UNL     1      -3.376  12.127  19.429  0.00  0.00    +0.000 A 
ATOM     29  C   UNL     1      -2.687  12.611  20.535  0.00  0.00    +0.000 A 
ATOM     30  C   UNL     1      -1.301  12.769  20.476  0.00  0.00    +0.000 A 
ENDBRANCH  22  25
ENDBRANCH   2  22
TORSDOF 4
ENDMDL
MODEL 6
REMARK VINA RESULT:      -8.1      3.324      8.173
REMARK  Name = 
REMARK  4 active torsions:
REMARK  status: ('A' for Active; 'I' for Inactive)
REMARK    1  A    between atoms: C_2  and  C_22
REMARK    2  A    between atoms: C_7  and  C_8
REMARK    3  A    between atoms: C_14  and  C_15
REMARK    4  A    between atoms: C_22  and  C_23
REMARK                            x       y       z     vdW  Elec       q    Type
REMARK                         _______ _______ _______ _____ _____    ______ ____
ROOT
ATOM      1  O   UNL     1       2.269   4.444  21.383  0.00  0.00    +0.000 OA
ATOM      2  C   UNL     1       2.280   4.710  20.185  0.00  0.00    +0.000 C 
ATOM      3  N   UNL     1       1.860   5.941  19.670  0.00  0.00    +0.000 N 
ATOM      4  C   UNL     1       1.780   6.262  18.254  0.00  0.00    +0.000 C 
ATOM      5  C   UNL     1       2.696   7.443  17.972  0.00  0.00    +0.000 C 
ATOM      6  C   UNL     1       2.184   8.663  18.723  0.00  0.00    +0.000 C 
ATOM      7  C   UNL     1       1.974   8.394  20.232  0.00  0.00    +0.000 C 
ATOM      8  C   UNL     1       1.369   6.999  20.554  0.00  0.00    +0.000 C 
ENDROOT
BRANCH   7   9
ATOM      9  C   UNL     1       1.084   9.464  20.796  0.00  0.00    +0.000 A 
ATOM     10  N   UNL     1       1.224  10.013  21.989  0.00  0.00    +0.000 NA
ATOM     11  N   UNL     1       0.256  10.972  22.151  0.00  0.00    +0.000 NA
ATOM     12  C   UNL     1      -0.463  10.990  21.056  0.00  0.00    +0.000 A 
ATOM     13  C   UNL     1      -1.563  11.792  20.645  0.00  0.00    +0.000 A 
ATOM     14  C   UNL     1      -2.116  11.596  19.433  0.00  0.00    +0.000 A 
ATOM     15  C   UNL     1      -1.614  10.569  18.517  0.00  0.00    +0.000 A 
ATOM     16  C   UNL     1      -0.555   9.820  18.909  0.00  0.00    +0.000 A 
ATOM     17  N   UNL     1       0.010  10.041  20.159  0.00  0.00    +0.000 N 
BRANCH  15  18
ATOM     18  C   UNL     1      -2.272  10.385  17.177  0.00  0.00    +0.000 C 
ATOM     19  F   UNL     1      -2.283  11.516  16.427  0.00  0.00    +0.000 F 
ATOM     20  F   UNL     1      -1.645   9.431  16.442  0.00  0.00    +0.000 F 
ATOM     21  F   UNL     1      -3.563   9.989  17.314  0.00  0.00    +0.000 F 
ENDBRANCH  15  18
ENDBRANCH   7   9
BRANCH   2  22
ATOM     22  C   UNL     1       2.851   3.696  19.209  0.00  0.00    +0.000 C 
ATOM     23  C   UNL     1       1.899   2.924  18.265  0.00  0.00    +0.000 C 
ATOM     24  C   UNL     1       2.440   2.237  19.463  0.00  0.00    +0.000 C 
BRANCH  22  25
ATOM     25  C   UNL     1       4.145   4.032  18.449  0.00  0.00    +0.000 A 
ATOM     26  C   UNL     1       4.244   3.876  17.057  0.00  0.00    +0.000 A 
ATOM     27  C   UNL     1       5.204   4.574  16.322  0.00  0.00    +0.000 A 
ATOM     28  C   UNL     1       6.113   5.403  16.972  0.00  0.00    +0.000 A 
ATOM     29  C   UNL     1       6.123   5.463  18.361  0.00  0.00    +0.000 A 
ATOM     30  C   UNL     1       5.163   4.763  19.093  0.00  0.00    +0.000 A 
ENDBRANCH  22  25
ENDBRANCH   2  22
TORSDOF 4
ENDMDL
MODEL 7
REMARK VINA RESULT:      -7.9      3.312      8.433
REMARK  Name = 
REMARK  4 active torsions:
REMARK  status: ('A' for Active; 'I' for Inactive)
REMARK    1  A    between atoms: C_2  and  C_22
REMARK    2  A    between atoms: C_7  and  C_8
REMARK    3  A    between atoms: C_14  and  C_15
REMARK    4  A    between atoms: C_22  and  C_23
REMARK                            x       y       z     vdW  Elec       q    Type
REMARK                         _______ _______ _______ _____ _____    ______ ____
ROOT
ATOM      1  O   UNL     1       3.038   3.694  20.816  0.00  0.00    +0.000 OA
ATOM      2  C   UNL     1       2.957   4.113  19.667  0.00  0.00    +0.000 C 
ATOM      3  N   UNL     1       2.314   5.309  19.331  0.00  0.00    +0.000 N 
ATOM      4  C   UNL     1       2.126   5.795  17.974  0.00  0.00    +0.000 C 
ATOM      5  C   UNL     1       2.816   7.145  17.841  0.00  0.00    +0.000 C 
ATOM      6  C   UNL     1       2.132   8.147  18.761  0.00  0.00    +0.000 C 
ATOM      7  C   UNL     1       2.031   7.648  20.222  0.00  0.00    +0.000 C 
ATOM      8  C   UNL     1       1.685   6.140  20.359  0.00  0.00    +0.000 C 
ENDROOT
BRANCH   7   9
ATOM      9  C   UNL     1       0.994   8.463  20.941  0.00  0.00    +0.000 A 
ATOM     10  N   UNL     1       0.241   8.025  21.933  0.00  0.00    +0.000 NA
ATOM     11  N   UNL     1      -0.564   9.049  22.364  0.00  0.00    +0.000 NA
ATOM     12  C   UNL     1      -0.295  10.096  21.623  0.00  0.00    +0.000 A 
ATOM     13  C   UNL     1      -0.785  11.431  21.636  0.00  0.00    +0.000 A 
ATOM     14  C   UNL     1      -0.312  12.324  20.746  0.00  0.00    +0.000 A 
ATOM     15  C   UNL     1       0.699  11.956  19.753  0.00  0.00    +0.000 A 
ATOM     16  C   UNL     1       1.175  10.687  19.758  0.00  0.00    +0.000 A 
ATOM     17  N   UNL     1       0.684   9.780  20.689  0.00  0.00    +0.000 N 
BRANCH  15  18
ATOM     18  C   UNL     1       1.188  12.989  18.775  0.00  0.00    +0.000 C 
ATOM     19  F   UNL     1       0.211  13.456  17.958  0.00  0.00    +0.000 F 
ATOM     20  F   UNL     1       1.719  14.065  19.410  0.00  0.00    +0.000 F 
ATOM     21  F   UNL     1       2.163  12.486  17.976  0.00  0.00    +0.000 F 
ENDBRANCH  15  18
ENDBRANCH   7   9
BRANCH   2  22
ATOM     22  C   UNL     1       3.655   3.351  18.552  0.00  0.00    +0.000 C 
ATOM     23  C   UNL     1       2.821   2.473  17.590  0.00  0.00    +0.000 C 
ATOM     24  C   UNL     1       3.600   1.820  18.670  0.00  0.00    +0.000 C 
BRANCH  22  25
ATOM     25  C   UNL     1       4.772   4.044  17.755  0.00  0.00    +0.000 A 
ATOM     26  C   UNL     1       5.943   4.509  18.376  0.00  0.00    +0.000 A 
ATOM     27  C   UNL     1       7.112   4.716  17.642  0.00  0.00    +0.000 A 
ATOM     28  C   UNL     1       7.118   4.509  16.266  0.00  0.00    +0.000 A 
ATOM     29  C   UNL     1       5.935   4.184  15.611  0.00  0.00    +0.000 A 
ATOM     30  C   UNL     1       4.768   3.979  16.347  0.00  0.00    +0.000 A 
ENDBRANCH  22  25
ENDBRANCH   2  22
TORSDOF 4
ENDMDL
MODEL 8
REMARK VINA RESULT:      -7.9      3.358      8.326
REMARK  Name = 
REMARK  4 active torsions:
REMARK  status: ('A' for Active; 'I' for Inactive)
REMARK    1  A    between atoms: C_2  and  C_22
REMARK    2  A    between atoms: C_7  and  C_8
REMARK    3  A    between atoms: C_14  and  C_15
REMARK    4  A    between atoms: C_22  and  C_23
REMARK                            x       y       z     vdW  Elec       q    Type
REMARK                         _______ _______ _______ _____ _____    ______ ____
ROOT
ATOM      1  O   UNL     1       2.413   4.770  21.257  0.00  0.00    +0.000 OA
ATOM      2  C   UNL     1       2.452   5.058  20.065  0.00  0.00    +0.000 C 
ATOM      3  N   UNL     1       1.984   6.273  19.555  0.00  0.00    +0.000 N 
ATOM      4  C   UNL     1       1.937   6.615  18.142  0.00  0.00    +0.000 C 
ATOM      5  C   UNL     1       2.797   7.849  17.913  0.00  0.00    +0.000 C 
ATOM      6  C   UNL     1       2.193   9.026  18.665  0.00  0.00    +0.000 C 
ATOM      7  C   UNL     1       1.944   8.718  20.161  0.00  0.00    +0.000 C 
ATOM      8  C   UNL     1       1.405   7.288  20.437  0.00  0.00    +0.000 C 
ENDROOT
BRANCH   7   9
ATOM      9  C   UNL     1       0.978   9.728  20.709  0.00  0.00    +0.000 A 
ATOM     10  N   UNL     1       1.061  10.284  21.905  0.00  0.00    +0.000 NA
ATOM     11  N   UNL     1       0.031  11.178  22.049  0.00  0.00    +0.000 NA
ATOM     12  C   UNL     1      -0.669  11.151  20.942  0.00  0.00    +0.000 A 
ATOM     13  C   UNL     1      -1.811  11.882  20.511  0.00  0.00    +0.000 A 
ATOM     14  C   UNL     1      -2.328  11.652  19.289  0.00  0.00    +0.000 A 
ATOM     15  C   UNL     1      -1.746  10.661  18.383  0.00  0.00    +0.000 A 
ATOM     16  C   UNL     1      -0.647   9.981  18.793  0.00  0.00    +0.000 A 
ATOM     17  N   UNL     1      -0.120  10.236  20.053  0.00  0.00    +0.000 N 
BRANCH  15  18
ATOM     18  C   UNL     1      -2.366  10.436  17.032  0.00  0.00    +0.000 C 
ATOM     19  F   UNL     1      -1.812   9.397  16.355  0.00  0.00    +0.000 F 
ATOM     20  F   UNL     1      -3.696  10.177  17.130  0.00  0.00    +0.000 F 
ATOM     21  F   UNL     1      -2.238  11.533  16.244  0.00  0.00    +0.000 F 
ENDBRANCH  15  18
ENDBRANCH   7   9
BRANCH   2  22
ATOM     22  C   UNL     1       3.113   4.094  19.094  0.00  0.00    +0.000 C 
ATOM     23  C   UNL     1       2.233   3.222  18.167  0.00  0.00    +0.000 C 
ATOM     24  C   UNL     1       2.849   2.605  19.367  0.00  0.00    +0.000 C 
BRANCH  22  25
ATOM     25  C   UNL     1       4.360   4.547  18.318  0.00  0.00    +0.000 A 
ATOM     26  C   UNL     1       5.470   5.110  18.969  0.00  0.00    +0.000 A 
ATOM     27  C   UNL     1       6.732   5.105  18.372  0.00  0.00    +0.000 A 
ATOM     28  C   UNL     1       6.897   4.580  17.094  0.00  0.00    +0.000 A 
ATOM     29  C   UNL     1       5.788   4.146  16.376  0.00  0.00    +0.000 A 
ATOM     30  C   UNL     1       4.527   4.154  16.975  0.00  0.00    +0.000 A 
ENDBRANCH  22  25
ENDBRANCH   2  22
TORSDOF 4
ENDMDL
MODEL 9
REMARK VINA RESULT:      -7.9      3.264      8.194
REMARK  Name = 
REMARK  4 active torsions:
REMARK  status: ('A' for Active; 'I' for Inactive)
REMARK    1  A    between atoms: C_2  and  C_22
REMARK    2  A    between atoms: C_7  and  C_8
REMARK    3  A    between atoms: C_14  and  C_15
REMARK    4  A    between atoms: C_22  and  C_23
REMARK                            x       y       z     vdW  Elec       q    Type
REMARK                         _______ _______ _______ _____ _____    ______ ____
ROOT
ATOM      1  O   UNL     1       2.964   3.659  20.796  0.00  0.00    +0.000 OA
ATOM      2  C   UNL     1       2.899   4.090  19.649  0.00  0.00    +0.000 C 
ATOM      3  N   UNL     1       2.279   5.298  19.319  0.00  0.00    +0.000 N 
ATOM      4  C   UNL     1       2.109   5.799  17.964  0.00  0.00    +0.000 C 
ATOM      5  C   UNL     1       2.823   7.138  17.849  0.00  0.00    +0.000 C 
ATOM      6  C   UNL     1       2.149   8.144  18.771  0.00  0.00    +0.000 C 
ATOM      7  C   UNL     1       2.027   7.635  20.227  0.00  0.00    +0.000 C 
ATOM      8  C   UNL     1       1.655   6.131  20.349  0.00  0.00    +0.000 C 
ENDROOT
BRANCH   7   9
ATOM      9  C   UNL     1       0.998   8.461  20.944  0.00  0.00    +0.000 A 
ATOM     10  N   UNL     1       0.245   8.033  21.941  0.00  0.00    +0.000 NA
ATOM     11  N   UNL     1      -0.551   9.065  22.368  0.00  0.00    +0.000 NA
ATOM     12  C   UNL     1      -0.276  10.107  21.623  0.00  0.00    +0.000 A 
ATOM     13  C   UNL     1      -0.756  11.445  21.631  0.00  0.00    +0.000 A 
ATOM     14  C   UNL     1      -0.278  12.331  20.735  0.00  0.00    +0.000 A 
ATOM     15  C   UNL     1       0.728  11.951  19.742  0.00  0.00    +0.000 A 
ATOM     16  C   UNL     1       1.194  10.678  19.752  0.00  0.00    +0.000 A 
ATOM     17  N   UNL     1       0.698   9.779  20.688  0.00  0.00    +0.000 N 
BRANCH  15  18
ATOM     18  C   UNL     1       1.223  12.975  18.758  0.00  0.00    +0.000 C 
ATOM     19  F   UNL     1       2.182  12.497  17.925  0.00  0.00    +0.000 F 
ATOM     20  F   UNL     1       0.217  13.440  17.974  0.00  0.00    +0.000 F 
ATOM     21  F   UNL     1       1.753  14.051  19.394  0.00  0.00    +0.000 F 
ENDBRANCH  15  18
ENDBRANCH   7   9
BRANCH   2  22
ATOM     22  C   UNL     1       3.593   3.325  18.534  0.00  0.00    +0.000 C 
ATOM     23  C   UNL     1       2.747   2.523  17.518  0.00  0.00    +0.000 C 
ATOM     24  C   UNL     1       3.453   1.797  18.600  0.00  0.00    +0.000 C 
BRANCH  22  25
ATOM     25  C   UNL     1       4.772   3.981  17.796  0.00  0.00    +0.000 A 
ATOM     26  C   UNL     1       4.813   4.060  16.395  0.00  0.00    +0.000 A 
ATOM     27  C   UNL     1       5.608   5.009  15.751  0.00  0.00    +0.000 A 
ATOM     28  C   UNL     1       6.414   5.866  16.496  0.00  0.00    +0.000 A 
ATOM     29  C   UNL     1       6.495   5.712  17.876  0.00  0.00    +0.000 A 
ATOM     30  C   UNL     1       5.699   4.760  18.516  0.00  0.00    +0.000 A 
ENDBRANCH  22  25
ENDBRANCH   2  22
TORSDOF 4
ENDMDL
