MODEL 1
REMARK VINA RESULT:      -7.8      0.000      0.000
REMARK  Name = 
REMARK  4 active torsions:
REMARK  status: ('A' for Active; 'I' for Inactive)
REMARK    1  A    between atoms: C_7  and  O_8
REMARK    2  A    between atoms: O_8  and  C_9
REMARK    3  A    between atoms: N_12  and  C_13
REMARK    4  A    between atoms: N_21  and  C_22
REMARK                            x       y       z     vdW  Elec       q    Type
REMARK                         _______ _______ _______ _____ _____    ______ ____
ROOT
ATOM      1  C   UNL     1       3.682   4.090  19.685  0.00  0.00    +0.000 C 
ATOM      2  C   UNL     1       2.273   3.794  19.171  0.00  0.00    +0.000 C 
ATOM      3  C   UNL     1       1.867   5.030  18.372  0.00  0.00    +0.000 C 
ATOM      4  N   UNL     1       2.635   6.105  18.962  0.00  0.00    +0.000 N 
ATOM      5  C   UNL     1       3.723   5.630  19.802  0.00  0.00    +0.000 C 
ENDROOT
BRANCH   4   6
ATOM      6  C   UNL     1       2.226   7.416  18.911  0.00  0.00    +0.000 A 
ATOM      7  N   UNL     1       2.433   8.130  17.766  0.00  0.00    +0.000 NA
ATOM      8  C   UNL     1       2.024   9.413  17.693  0.00  0.00    +0.000 A 
ATOM      9  N   UNL     1       1.431  10.155  18.644  0.00  0.00    +0.000 NA
ATOM     10  C   UNL     1       1.249   9.435  19.765  0.00  0.00    +0.000 A 
ATOM     11  C   UNL     1       1.584   8.101  19.976  0.00  0.00    +0.000 A 
ATOM     12  N   UNL     1       1.222   7.703  21.254  0.00  0.00    +0.000 NA
ATOM     13  C   UNL     1       0.709   8.779  21.814  0.00  0.00    +0.000 A 
ATOM     14  N   UNL     1       0.711   9.843  20.956  0.00  0.00    +0.000 N 
BRANCH  14  15
ATOM     15  C   UNL     1       0.258  11.186  21.251  0.00  0.00    +0.000 C 
ATOM     16  C   UNL     1      -0.718  11.464  22.385  0.00  0.00    +0.000 C 
ATOM     17  C   UNL     1      -1.167  11.639  20.977  0.00  0.00    +0.000 C 
ENDBRANCH  14  15
ENDBRANCH   4   6
BRANCH   1  18
ATOM     18  O   UNL     1       4.672   3.626  18.757  0.00  0.00    +0.000 OA
BRANCH  18  25
ATOM     19  F   UNL     1       8.329   6.774  18.806  0.00  0.00    +0.000 F 
ATOM     20  C   UNL     1       7.341   6.139  18.162  0.00  0.00    +0.000 A 
ATOM     21  C   UNL     1       7.133   6.393  16.816  0.00  0.00    +0.000 A 
ATOM     22  C   UNL     1       6.102   5.728  16.171  0.00  0.00    +0.000 A 
ATOM     23  F   UNL     1       5.888   5.954  14.869  0.00  0.00    +0.000 F 
ATOM     24  C   UNL     1       5.290   4.822  16.852  0.00  0.00    +0.000 A 
ATOM     25  C   UNL     1       5.515   4.556  18.204  0.00  0.00    +0.000 A 
ATOM     26  C   UNL     1       6.546   5.230  18.863  0.00  0.00    +0.000 A 
ENDBRANCH  18  25
ENDBRANCH   1  18
TORSDOF 4
ENDMDL
MODEL 2
REMARK VINA RESULT:      -7.8      2.435      3.759
REMARK  Name = 
REMARK  4 active torsions:
REMARK  status: ('A' for Active; 'I' for Inactive)
REMARK    1  A    between atoms: C_7  and  O_8
REMARK    2  A    between atoms: O_8  and  C_9
REMARK    3  A    between atoms: N_12  and  C_13
REMARK    4  A    between atoms: N_21  and  C_22
REMARK                            x       y       z     vdW  Elec       q    Type
REMARK                         _______ _______ _______ _____ _____    ______ ____
ROOT
ATOM      1  C   UNL     1       5.858   5.268  16.763  0.00  0.00    +0.000 C 
ATOM      2  C   UNL     1       6.255   4.692  18.123  0.00  0.00    +0.000 C 
ATOM      3  C   UNL     1       4.960   4.631  18.928  0.00  0.00    +0.000 C 
ATOM      4  N   UNL     1       4.134   5.673  18.358  0.00  0.00    +0.000 N 
ATOM      5  C   UNL     1       4.625   6.146  17.072  0.00  0.00    +0.000 C 
ENDROOT
BRANCH   4   6
ATOM      6  C   UNL     1       3.137   6.296  19.069  0.00  0.00    +0.000 A 
ATOM      7  N   UNL     1       2.607   5.665  20.158  0.00  0.00    +0.000 NA
ATOM      8  C   UNL     1       1.639   6.268  20.877  0.00  0.00    +0.000 A 
ATOM      9  N   UNL     1       1.057   7.460  20.658  0.00  0.00    +0.000 NA
ATOM     10  C   UNL     1       1.585   8.056  19.574  0.00  0.00    +0.000 A 
ATOM     11  C   UNL     1       2.606   7.576  18.759  0.00  0.00    +0.000 A 
ATOM     12  N   UNL     1       2.894   8.484  17.752  0.00  0.00    +0.000 NA
ATOM     13  C   UNL     1       2.046   9.475  17.934  0.00  0.00    +0.000 A 
ATOM     14  N   UNL     1       1.238   9.256  19.014  0.00  0.00    +0.000 N 
BRANCH  14  15
ATOM     15  C   UNL     1       0.173  10.118  19.478  0.00  0.00    +0.000 C 
ATOM     16  C   UNL     1      -1.054  10.397  18.622  0.00  0.00    +0.000 C 
ATOM     17  C   UNL     1      -0.078  11.492  18.879  0.00  0.00    +0.000 C 
ENDBRANCH  14  15
ENDBRANCH   4   6
BRANCH   1  18
ATOM     18  O   UNL     1       5.517   4.221  15.844  0.00  0.00    +0.000 OA
BRANCH  18  25
ATOM     19  F   UNL     1       8.622   5.778  12.496  0.00  0.00    +0.000 F 
ATOM     20  C   UNL     1       7.594   5.005  12.868  0.00  0.00    +0.000 A 
ATOM     21  C   UNL     1       7.017   4.149  11.943  0.00  0.00    +0.000 A 
ATOM     22  C   UNL     1       5.951   3.362  12.348  0.00  0.00    +0.000 A 
ATOM     23  F   UNL     1       5.384   2.523  11.472  0.00  0.00    +0.000 F 
ATOM     24  C   UNL     1       5.465   3.421  13.654  0.00  0.00    +0.000 A 
ATOM     25  C   UNL     1       6.062   4.272  14.588  0.00  0.00    +0.000 A 
ATOM     26  C   UNL     1       7.130   5.075  14.182  0.00  0.00    +0.000 A 
ENDBRANCH  18  25
ENDBRANCH   1  18
TORSDOF 4
ENDMDL
MODEL 3
REMARK VINA RESULT:      -7.8      2.239      3.088
REMARK  Name = 
REMARK  4 active torsions:
REMARK  status: ('A' for Active; 'I' for Inactive)
REMARK    1  A    between atoms: C_7  and  O_8
REMARK    2  A    between atoms: O_8  and  C_9
REMARK    3  A    between atoms: N_12  and  C_13
REMARK    4  A    between atoms: N_21  and  C_22
REMARK                            x       y       z     vdW  Elec       q    Type
REMARK                         _______ _______ _______ _____ _____    ______ ____
ROOT
ATOM      1  C   UNL     1       5.720   5.529  16.956  0.00  0.00    +0.000 C 
ATOM      2  C   UNL     1       5.502   5.050  18.392  0.00  0.00    +0.000 C 
ATOM      3  C   UNL     1       4.083   5.483  18.751  0.00  0.00    +0.000 C 
ATOM      4  N   UNL     1       3.838   6.635  17.911  0.00  0.00    +0.000 N 
ATOM      5  C   UNL     1       4.802   6.765  16.829  0.00  0.00    +0.000 C 
ENDROOT
BRANCH   4   6
ATOM      6  C   UNL     1       2.934   7.614  18.249  0.00  0.00    +0.000 A 
ATOM      7  N   UNL     1       2.764   8.677  17.410  0.00  0.00    +0.000 NA
ATOM      8  C   UNL     1       1.870   9.638  17.718  0.00  0.00    +0.000 A 
ATOM      9  N   UNL     1       1.090   9.733  18.809  0.00  0.00    +0.000 NA
ATOM     10  C   UNL     1       1.284   8.683  19.626  0.00  0.00    +0.000 A 
ATOM     11  C   UNL     1       2.140   7.604  19.426  0.00  0.00    +0.000 A 
ATOM     12  N   UNL     1       2.048   6.708  20.480  0.00  0.00    +0.000 NA
ATOM     13  C   UNL     1       1.182   7.247  21.312  0.00  0.00    +0.000 A 
ATOM     14  N   UNL     1       0.702   8.436  20.840  0.00  0.00    +0.000 N 
BRANCH  14  15
ATOM     15  C   UNL     1      -0.233   9.313  21.513  0.00  0.00    +0.000 C 
ATOM     16  C   UNL     1       0.214  10.633  22.123  0.00  0.00    +0.000 C 
ATOM     17  C   UNL     1      -0.209   9.521  23.018  0.00  0.00    +0.000 C 
ENDBRANCH  14  15
ENDBRANCH   4   6
BRANCH   1  18
ATOM     18  O   UNL     1       5.338   4.515  16.016  0.00  0.00    +0.000 OA
BRANCH  18  25
ATOM     19  F   UNL     1       8.796   5.768  12.893  0.00  0.00    +0.000 F 
ATOM     20  C   UNL     1       7.697   5.067  13.202  0.00  0.00    +0.000 A 
ATOM     21  C   UNL     1       7.151   4.208  12.262  0.00  0.00    +0.000 A 
ATOM     22  C   UNL     1       6.011   3.497  12.602  0.00  0.00    +0.000 A 
ATOM     23  F   UNL     1       5.471   2.658  11.709  0.00  0.00    +0.000 F 
ATOM     24  C   UNL     1       5.422   3.634  13.858  0.00  0.00    +0.000 A 
ATOM     25  C   UNL     1       5.987   4.487  14.809  0.00  0.00    +0.000 A 
ATOM     26  C   UNL     1       7.131   5.214  14.469  0.00  0.00    +0.000 A 
ENDBRANCH  18  25
ENDBRANCH   1  18
TORSDOF 4
ENDMDL
MODEL 4
REMARK VINA RESULT:      -7.7      1.297      2.074
REMARK  Name = 
REMARK  4 active torsions:
REMARK  status: ('A' for Active; 'I' for Inactive)
REMARK    1  A    between atoms: C_7  and  O_8
REMARK    2  A    between atoms: O_8  and  C_9
REMARK    3  A    between atoms: N_12  and  C_13
REMARK    4  A    between atoms: N_21  and  C_22
REMARK                            x       y       z     vdW  Elec       q    Type
REMARK                         _______ _______ _______ _____ _____    ______ ____
ROOT
ATOM      1  C   UNL     1       3.792   4.865  19.766  0.00  0.00    +0.000 C 
ATOM      2  C   UNL     1       2.598   4.648  20.697  0.00  0.00    +0.000 C 
ATOM      3  C   UNL     1       1.531   5.629  20.220  0.00  0.00    +0.000 C 
ATOM      4  N   UNL     1       2.281   6.700  19.601  0.00  0.00    +0.000 N 
ATOM      5  C   UNL     1       3.665   6.342  19.331  0.00  0.00    +0.000 C 
ENDROOT
BRANCH   4   6
ATOM      6  C   UNL     1       1.790   7.980  19.500  0.00  0.00    +0.000 A 
ATOM      7  N   UNL     1       1.835   8.613  18.292  0.00  0.00    +0.000 NA
ATOM      8  C   UNL     1       1.343   9.863  18.172  0.00  0.00    +0.000 A 
ATOM      9  N   UNL     1       0.807  10.644  19.125  0.00  0.00    +0.000 NA
ATOM     10  C   UNL     1       0.786  10.004  20.308  0.00  0.00    +0.000 A 
ATOM     11  C   UNL     1       1.221   8.710  20.577  0.00  0.00    +0.000 A 
ATOM     12  N   UNL     1       1.016   8.394  21.911  0.00  0.00    +0.000 NA
ATOM     13  C   UNL     1       0.499   9.482  22.444  0.00  0.00    +0.000 A 
ATOM     14  N   UNL     1       0.348  10.475  21.517  0.00  0.00    +0.000 N 
BRANCH  14  15
ATOM     15  C   UNL     1      -0.153  11.810  21.763  0.00  0.00    +0.000 C 
ATOM     16  C   UNL     1      -1.220  12.078  22.814  0.00  0.00    +0.000 C 
ATOM     17  C   UNL     1      -1.560  12.232  21.373  0.00  0.00    +0.000 C 
ENDBRANCH  14  15
ENDBRANCH   4   6
BRANCH   1  18
ATOM     18  O   UNL     1       3.719   3.994  18.630  0.00  0.00    +0.000 OA
BRANCH  18  25
ATOM     19  F   UNL     1       5.270   4.458  14.085  0.00  0.00    +0.000 F 
ATOM     20  C   UNL     1       5.510   4.381  15.400  0.00  0.00    +0.000 A 
ATOM     21  C   UNL     1       6.814   4.472  15.861  0.00  0.00    +0.000 A 
ATOM     22  C   UNL     1       7.039   4.384  17.225  0.00  0.00    +0.000 A 
ATOM     23  F   UNL     1       8.291   4.477  17.690  0.00  0.00    +0.000 F 
ATOM     24  C   UNL     1       5.985   4.209  18.121  0.00  0.00    +0.000 A 
ATOM     25  C   UNL     1       4.671   4.136  17.654  0.00  0.00    +0.000 A 
ATOM     26  C   UNL     1       4.438   4.214  16.279  0.00  0.00    +0.000 A 
ENDBRANCH  18  25
ENDBRANCH   1  18
TORSDOF 4
ENDMDL
MODEL 5
REMARK VINA RESULT:      -7.7      1.502      2.653
REMARK  Name = 
REMARK  4 active torsions:
REMARK  status: ('A' for Active; 'I' for Inactive)
REMARK    1  A    between atoms: C_7  and  O_8
REMARK    2  A    between atoms: O_8  and  C_9
REMARK    3  A    between atoms: N_12  and  C_13
REMARK    4  A    between atoms: N_21  and  C_22
REMARK                            x       y       z     vdW  Elec       q    Type
REMARK                         _______ _______ _______ _____ _____    ______ ____
ROOT
ATOM      1  C   UNL     1       3.977   4.384  18.454  0.00  0.00    +0.000 C 
ATOM      2  C   UNL     1       2.589   4.177  17.845  0.00  0.00    +0.000 C 
ATOM      3  C   UNL     1       1.945   5.560  17.829  0.00  0.00    +0.000 C 
ATOM      4  N   UNL     1       2.593   6.269  18.912  0.00  0.00    +0.000 N 
ATOM      5  C   UNL     1       3.802   5.609  19.379  0.00  0.00    +0.000 C 
ENDROOT
BRANCH   4   6
ATOM      6  C   UNL     1       1.994   7.318  19.568  0.00  0.00    +0.000 A 
ATOM      7  N   UNL     1       1.519   7.125  20.833  0.00  0.00    +0.000 NA
ATOM      8  C   UNL     1       0.944   8.148  21.496  0.00  0.00    +0.000 A 
ATOM      9  N   UNL     1       0.726   9.403  21.067  0.00  0.00    +0.000 NA
ATOM     10  C   UNL     1       1.190   9.566  19.816  0.00  0.00    +0.000 A 
ATOM     11  C   UNL     1       1.834   8.620  19.024  0.00  0.00    +0.000 A 
ATOM     12  N   UNL     1       2.185   9.167  17.799  0.00  0.00    +0.000 NA
ATOM     13  C   UNL     1       1.736  10.404  17.837  0.00  0.00    +0.000 A 
ATOM     14  N   UNL     1       1.128  10.684  19.028  0.00  0.00    +0.000 N 
BRANCH  14  15
ATOM     15  C   UNL     1       0.491  11.931  19.395  0.00  0.00    +0.000 C 
ATOM     16  C   UNL     1      -0.995  12.162  19.167  0.00  0.00    +0.000 C 
ATOM     17  C   UNL     1      -0.005  12.924  18.357  0.00  0.00    +0.000 C 
ENDBRANCH  14  15
ENDBRANCH   4   6
BRANCH   1  18
ATOM     18  O   UNL     1       4.947   4.655  17.433  0.00  0.00    +0.000 OA
BRANCH  18  25
ATOM     19  F   UNL     1       7.523   8.724  17.129  0.00  0.00    +0.000 F 
ATOM     20  C   UNL     1       7.317   7.506  17.647  0.00  0.00    +0.000 A 
ATOM     21  C   UNL     1       8.193   7.016  18.602  0.00  0.00    +0.000 A 
ATOM     22  C   UNL     1       7.964   5.751  19.120  0.00  0.00    +0.000 A 
ATOM     23  F   UNL     1       8.795   5.262  20.049  0.00  0.00    +0.000 F 
ATOM     24  C   UNL     1       6.880   4.983  18.697  0.00  0.00    +0.000 A 
ATOM     25  C   UNL     1       5.989   5.488  17.747  0.00  0.00    +0.000 A 
ATOM     26  C   UNL     1       6.220   6.758  17.214  0.00  0.00    +0.000 A 
ENDBRANCH  18  25
ENDBRANCH   1  18
TORSDOF 4
ENDMDL
MODEL 6
REMARK VINA RESULT:      -7.7      2.270      3.449
REMARK  Name = 
REMARK  4 active torsions:
REMARK  status: ('A' for Active; 'I' for Inactive)
REMARK    1  A    between atoms: C_7  and  O_8
REMARK    2  A    between atoms: O_8  and  C_9
REMARK    3  A    between atoms: N_12  and  C_13
REMARK    4  A    between atoms: N_21  and  C_22
REMARK                            x       y       z     vdW  Elec       q    Type
REMARK                         _______ _______ _______ _____ _____    ______ ____
ROOT
ATOM      1  C   UNL     1       5.714   5.547  16.774  0.00  0.00    +0.000 C 
ATOM      2  C   UNL     1       5.718   5.220  18.268  0.00  0.00    +0.000 C 
ATOM      3  C   UNL     1       4.333   5.618  18.771  0.00  0.00    +0.000 C 
ATOM      4  N   UNL     1       3.905   6.657  17.859  0.00  0.00    +0.000 N 
ATOM      5  C   UNL     1       4.709   6.714  16.647  0.00  0.00    +0.000 C 
ENDROOT
BRANCH   4   6
ATOM      6  C   UNL     1       2.993   7.620  18.216  0.00  0.00    +0.000 A 
ATOM      7  N   UNL     1       2.823   8.704  17.404  0.00  0.00    +0.000 NA
ATOM      8  C   UNL     1       1.920   9.651  17.730  0.00  0.00    +0.000 A 
ATOM      9  N   UNL     1       1.130   9.712  18.816  0.00  0.00    +0.000 NA
ATOM     10  C   UNL     1       1.324   8.641  19.606  0.00  0.00    +0.000 A 
ATOM     11  C   UNL     1       2.189   7.573  19.385  0.00  0.00    +0.000 A 
ATOM     12  N   UNL     1       2.095   6.649  20.414  0.00  0.00    +0.000 NA
ATOM     13  C   UNL     1       1.218   7.160  21.253  0.00  0.00    +0.000 A 
ATOM     14  N   UNL     1       0.734   8.358  20.809  0.00  0.00    +0.000 N 
BRANCH  14  15
ATOM     15  C   UNL     1      -0.212   9.210  21.497  0.00  0.00    +0.000 C 
ATOM     16  C   UNL     1       0.226  10.501  22.173  0.00  0.00    +0.000 C 
ATOM     17  C   UNL     1      -0.222   9.354  23.010  0.00  0.00    +0.000 C 
ENDBRANCH  14  15
ENDBRANCH   4   6
BRANCH   1  18
ATOM     18  O   UNL     1       5.278   4.418  16.005  0.00  0.00    +0.000 OA
BRANCH  18  25
ATOM     19  F   UNL     1       5.313   2.716  11.490  0.00  0.00    +0.000 F 
ATOM     20  C   UNL     1       5.851   3.464  12.462  0.00  0.00    +0.000 A 
ATOM     21  C   UNL     1       7.001   4.192  12.202  0.00  0.00    +0.000 A 
ATOM     22  C   UNL     1       7.544   4.955  13.225  0.00  0.00    +0.000 A 
ATOM     23  F   UNL     1       8.651   5.671  12.992  0.00  0.00    +0.000 F 
ATOM     24  C   UNL     1       6.952   4.996  14.486  0.00  0.00    +0.000 A 
ATOM     25  C   UNL     1       5.783   4.275  14.738  0.00  0.00    +0.000 A 
ATOM     26  C   UNL     1       5.237   3.496  13.715  0.00  0.00    +0.000 A 
ENDBRANCH  18  25
ENDBRANCH   1  18
TORSDOF 4
ENDMDL
MODEL 7
REMARK VINA RESULT:      -7.6      1.493      2.465
REMARK  Name = 
REMARK  4 active torsions:
REMARK  status: ('A' for Active; 'I' for Inactive)
REMARK    1  A    between atoms: C_7  and  O_8
REMARK    2  A    between atoms: O_8  and  C_9
REMARK    3  A    between atoms: N_12  and  C_13
REMARK    4  A    between atoms: N_21  and  C_22
REMARK                            x       y       z     vdW  Elec       q    Type
REMARK                         _______ _______ _______ _____ _____    ______ ____
ROOT
ATOM      1  C   UNL     1       3.470   4.254  19.845  0.00  0.00    +0.000 C 
ATOM      2  C   UNL     1       2.181   3.825  20.547  0.00  0.00    +0.000 C 
ATOM      3  C   UNL     1       1.196   4.967  20.315  0.00  0.00    +0.000 C 
ATOM      4  N   UNL     1       2.035   6.133  20.140  0.00  0.00    +0.000 N 
ATOM      5  C   UNL     1       3.429   5.798  19.894  0.00  0.00    +0.000 C 
ENDROOT
BRANCH   4   6
ATOM      6  C   UNL     1       1.592   7.406  20.411  0.00  0.00    +0.000 A 
ATOM      7  N   UNL     1       1.049   7.673  21.634  0.00  0.00    +0.000 NA
ATOM      8  C   UNL     1       0.625   8.920  21.921  0.00  0.00    +0.000 A 
ATOM      9  N   UNL     1       0.628  10.006  21.129  0.00  0.00    +0.000 NA
ATOM     10  C   UNL     1       1.155   9.716  19.927  0.00  0.00    +0.000 A 
ATOM     11  C   UNL     1       1.664   8.493  19.500  0.00  0.00    +0.000 A 
ATOM     12  N   UNL     1       2.141   8.590  18.202  0.00  0.00    +0.000 NA
ATOM     13  C   UNL     1       1.898   9.833  17.840  0.00  0.00    +0.000 A 
ATOM     14  N   UNL     1       1.302  10.542  18.845  0.00  0.00    +0.000 N 
BRANCH  14  15
ATOM     15  C   UNL     1       0.864  11.920  18.780  0.00  0.00    +0.000 C 
ATOM     16  C   UNL     1       1.797  13.030  18.318  0.00  0.00    +0.000 C 
ATOM     17  C   UNL     1       1.372  12.978  19.745  0.00  0.00    +0.000 C 
ENDBRANCH  14  15
ENDBRANCH   4   6
BRANCH   1  18
ATOM     18  O   UNL     1       3.491   3.791  18.488  0.00  0.00    +0.000 OA
BRANCH  18  25
ATOM     19  F   UNL     1       8.210   4.574  17.851  0.00  0.00    +0.000 F 
ATOM     20  C   UNL     1       6.972   4.425  17.360  0.00  0.00    +0.000 A 
ATOM     21  C   UNL     1       6.770   4.493  15.991  0.00  0.00    +0.000 A 
ATOM     22  C   UNL     1       5.480   4.342  15.506  0.00  0.00    +0.000 A 
ATOM     23  F   UNL     1       5.265   4.398  14.186  0.00  0.00    +0.000 F 
ATOM     24  C   UNL     1       4.406   4.124  16.368  0.00  0.00    +0.000 A 
ATOM     25  C   UNL     1       4.617   4.038  17.746  0.00  0.00    +0.000 A 
ATOM     26  C   UNL     1       5.913   4.199  18.242  0.00  0.00    +0.000 A 
ENDBRANCH  18  25
ENDBRANCH   1  18
TORSDOF 4
ENDMDL
MODEL 8
REMARK VINA RESULT:      -7.6      0.192      1.613
REMARK  Name = 
REMARK  4 active torsions:
REMARK  status: ('A' for Active; 'I' for Inactive)
REMARK    1  A    between atoms: C_7  and  O_8
REMARK    2  A    between atoms: O_8  and  C_9
REMARK    3  A    between atoms: N_12  and  C_13
REMARK    4  A    between atoms: N_21  and  C_22
REMARK                            x       y       z     vdW  Elec       q    Type
REMARK                         _______ _______ _______ _____ _____    ______ ____
ROOT
ATOM      1  C   UNL     1       3.650   4.021  19.694  0.00  0.00    +0.000 C 
ATOM      2  C   UNL     1       2.240   3.733  19.177  0.00  0.00    +0.000 C 
ATOM      3  C   UNL     1       1.844   4.970  18.375  0.00  0.00    +0.000 C 
ATOM      4  N   UNL     1       2.617   6.041  18.966  0.00  0.00    +0.000 N 
ATOM      5  C   UNL     1       3.701   5.561  19.810  0.00  0.00    +0.000 C 
ENDROOT
BRANCH   4   6
ATOM      6  C   UNL     1       2.217   7.355  18.912  0.00  0.00    +0.000 A 
ATOM      7  N   UNL     1       2.392   8.053  17.753  0.00  0.00    +0.000 NA
ATOM      8  C   UNL     1       1.991   9.338  17.678  0.00  0.00    +0.000 A 
ATOM      9  N   UNL     1       1.434  10.096  18.638  0.00  0.00    +0.000 NA
ATOM     10  C   UNL     1       1.284   9.391  19.774  0.00  0.00    +0.000 A 
ATOM     11  C   UNL     1       1.616   8.057  19.990  0.00  0.00    +0.000 A 
ATOM     12  N   UNL     1       1.292   7.677  21.283  0.00  0.00    +0.000 NA
ATOM     13  C   UNL     1       0.805   8.764  21.846  0.00  0.00    +0.000 A 
ATOM     14  N   UNL     1       0.787   9.818  20.976  0.00  0.00    +0.000 N 
BRANCH  14  15
ATOM     15  C   UNL     1       0.354  11.167  21.270  0.00  0.00    +0.000 C 
ATOM     16  C   UNL     1      -0.870  11.439  22.132  0.00  0.00    +0.000 C 
ATOM     17  C   UNL     1      -0.915  11.758  20.678  0.00  0.00    +0.000 C 
ENDBRANCH  14  15
ENDBRANCH   4   6
BRANCH   1  18
ATOM     18  O   UNL     1       4.640   3.550  18.770  0.00  0.00    +0.000 OA
BRANCH  18  25
ATOM     19  F   UNL     1       5.575   6.281  14.903  0.00  0.00    +0.000 F 
ATOM     20  C   UNL     1       5.856   5.886  16.152  0.00  0.00    +0.000 A 
ATOM     21  C   UNL     1       6.922   6.463  16.825  0.00  0.00    +0.000 A 
ATOM     22  C   UNL     1       7.198   6.035  18.114  0.00  0.00    +0.000 A 
ATOM     23  F   UNL     1       8.219   6.585  18.783  0.00  0.00    +0.000 F 
ATOM     24  C   UNL     1       6.426   5.051  18.728  0.00  0.00    +0.000 A 
ATOM     25  C   UNL     1       5.341   4.485  18.053  0.00  0.00    +0.000 A 
ATOM     26  C   UNL     1       5.064   4.904  16.750  0.00  0.00    +0.000 A 
ENDBRANCH  18  25
ENDBRANCH   1  18
TORSDOF 4
ENDMDL
MODEL 9
REMARK VINA RESULT:      -7.6      1.505      2.896
REMARK  Name = 
REMARK  4 active torsions:
REMARK  status: ('A' for Active; 'I' for Inactive)
REMARK    1  A    between atoms: C_7  and  O_8
REMARK    2  A    between atoms: O_8  and  C_9
REMARK    3  A    between atoms: N_12  and  C_13
REMARK    4  A    between atoms: N_21  and  C_22
REMARK                            x       y       z     vdW  Elec       q    Type
REMARK                         _______ _______ _______ _____ _____    ______ ____
ROOT
ATOM      1  C   UNL     1       3.714   4.895  19.470  0.00  0.00    +0.000 C 
ATOM      2  C   UNL     1       2.674   4.294  20.416  0.00  0.00    +0.000 C 
ATOM      3  C   UNL     1       1.504   5.275  20.405  0.00  0.00    +0.000 C 
ATOM      4  N   UNL     1       2.109   6.548  20.077  0.00  0.00    +0.000 N 
ATOM      5  C   UNL     1       3.457   6.417  19.546  0.00  0.00    +0.000 C 
ENDROOT
BRANCH   4   6
ATOM      6  C   UNL     1       1.548   7.747  20.447  0.00  0.00    +0.000 A 
ATOM      7  N   UNL     1       1.137   7.915  21.738  0.00  0.00    +0.000 NA
ATOM      8  C   UNL     1       0.600   9.090  22.123  0.00  0.00    +0.000 A 
ATOM      9  N   UNL     1       0.364  10.184  21.377  0.00  0.00    +0.000 NA
ATOM     10  C   UNL     1       0.765   9.990  20.108  0.00  0.00    +0.000 A 
ATOM     11  C   UNL     1       1.364   8.853  19.576  0.00  0.00    +0.000 A 
ATOM     12  N   UNL     1       1.654   9.038  18.233  0.00  0.00    +0.000 NA
ATOM     13  C   UNL     1       1.212  10.246  17.951  0.00  0.00    +0.000 A 
ATOM     14  N   UNL     1       0.666  10.851  19.048  0.00  0.00    +0.000 N 
BRANCH  14  15
ATOM     15  C   UNL     1       0.053  12.161  19.090  0.00  0.00    +0.000 C 
ATOM     16  C   UNL     1      -1.453  12.330  19.224  0.00  0.00    +0.000 C 
ATOM     17  C   UNL     1      -0.788  12.699  17.944  0.00  0.00    +0.000 C 
ENDBRANCH  14  15
ENDBRANCH   4   6
BRANCH   1  18
ATOM     18  O   UNL     1       3.526   4.416  18.132  0.00  0.00    +0.000 OA
BRANCH  18  25
ATOM     19  F   UNL     1       5.749   4.370  13.850  0.00  0.00    +0.000 F 
ATOM     20  C   UNL     1       5.789   4.376  15.189  0.00  0.00    +0.000 A 
ATOM     21  C   UNL     1       7.017   4.383  15.833  0.00  0.00    +0.000 A 
ATOM     22  C   UNL     1       7.035   4.383  17.219  0.00  0.00    +0.000 A 
ATOM     23  F   UNL     1       8.210   4.396  17.859  0.00  0.00    +0.000 F 
ATOM     24  C   UNL     1       5.852   4.379  17.956  0.00  0.00    +0.000 A 
ATOM     25  C   UNL     1       4.617   4.391  17.303  0.00  0.00    +0.000 A 
ATOM     26  C   UNL     1       4.592   4.380  15.906  0.00  0.00    +0.000 A 
ENDBRANCH  18  25
ENDBRANCH   1  18
TORSDOF 4
ENDMDL
