MODEL 1
REMARK VINA RESULT:      -8.6      0.000      0.000
REMARK  Name = 
REMARK  4 active torsions:
REMARK  status: ('A' for Active; 'I' for Inactive)
REMARK    1  A    between atoms: S_2  and  N_4
REMARK    2  A    between atoms: S_2  and  C_19
REMARK    3  A    between atoms: C_8  and  C_9
REMARK    4  A    between atoms: C_9  and  C_10
REMARK                            x       y       z     vdW  Elec       q    Type
REMARK                         _______ _______ _______ _____ _____    ______ ____
ROOT
ATOM      1  N   UNL     1       6.099   4.188  16.643  0.00  0.00    +0.000 N 
ATOM      2  C   UNL     1       4.884   4.436  17.329  0.00  0.00    +0.000 A 
ATOM      3  N   UNL     1       3.750   3.922  16.917  0.00  0.00    +0.000 NA
ATOM      4  N   UNL     1       2.732   4.144  17.829  0.00  0.00    +0.000 NA
ATOM      5  C   UNL     1       3.134   4.872  18.852  0.00  0.00    +0.000 A 
ATOM      6  S   UNL     1       4.807   5.262  18.820  0.00  0.00    +0.000 S 
ATOM      7  H   UNL     1       6.874   4.200  17.308  0.00  0.00    +0.000 HD
ENDROOT
BRANCH   1   9
ATOM      8  O   UNL     1       5.384   6.422  15.560  0.00  0.00    +0.000 OA
ATOM      9  S   UNL     1       6.450   5.452  15.571  0.00  0.00    +0.000 S 
ATOM     10  O   UNL     1       7.812   5.859  15.862  0.00  0.00    +0.000 OA
BRANCH   9  11
ATOM     11  C   UNL     1       6.456   4.630  14.018  0.00  0.00    +0.000 A 
ATOM     12  C   UNL     1       5.440   3.730  13.687  0.00  0.00    +0.000 A 
ATOM     13  C   UNL     1       5.460   3.101  12.441  0.00  0.00    +0.000 A 
ATOM     14  C   UNL     1       6.487   3.373  11.535  0.00  0.00    +0.000 A 
ATOM     15  C   UNL     1       7.499   4.273  11.874  0.00  0.00    +0.000 A 
ATOM     16  C   UNL     1       7.477   4.900  13.116  0.00  0.00    +0.000 A 
ATOM     17  F   UNL     1       8.468   5.749  13.426  0.00  0.00    +0.000 F 
ENDBRANCH   9  11
ENDBRANCH   1   9
BRANCH   5  18
ATOM     18  C   UNL     1       2.170   5.295  19.976  0.00  0.00    +0.000 C 
ATOM     19  C   UNL     1       2.285   4.520  21.281  0.00  0.00    +0.000 C 
ATOM     20  C   UNL     1       1.049   4.375  20.446  0.00  0.00    +0.000 C 
BRANCH  18  21
ATOM     21  C   UNL     1       1.866   6.785  20.026  0.00  0.00    +0.000 A 
ATOM     22  C   UNL     1       2.048   7.578  18.875  0.00  0.00    +0.000 A 
ATOM     23  C   UNL     1       1.627   8.908  18.826  0.00  0.00    +0.000 A 
ATOM     24  C   UNL     1       1.028   9.483  19.942  0.00  0.00    +0.000 A 
ATOM     25  C   UNL     1       0.896   8.741  21.114  0.00  0.00    +0.000 A 
ATOM     26  C   UNL     1       1.322   7.411  21.158  0.00  0.00    +0.000 A 
ENDBRANCH  18  21
ENDBRANCH   5  18
TORSDOF 4
ENDMDL
MODEL 2
REMARK VINA RESULT:      -8.1      2.651      3.999
REMARK  Name = 
REMARK  4 active torsions:
REMARK  status: ('A' for Active; 'I' for Inactive)
REMARK    1  A    between atoms: S_2  and  N_4
REMARK    2  A    between atoms: S_2  and  C_19
REMARK    3  A    between atoms: C_8  and  C_9
REMARK    4  A    between atoms: C_9  and  C_10
REMARK                            x       y       z     vdW  Elec       q    Type
REMARK                         _______ _______ _______ _____ _____    ______ ____
ROOT
ATOM      1  N   UNL     1       3.039   4.768  18.477  0.00  0.00    +0.000 N 
ATOM      2  C   UNL     1       2.602   6.051  18.891  0.00  0.00    +0.000 A 
ATOM      3  N   UNL     1       2.620   7.075  18.073  0.00  0.00    +0.000 NA
ATOM      4  N   UNL     1       1.988   8.177  18.624  0.00  0.00    +0.000 NA
ATOM      5  C   UNL     1       1.584   7.948  19.859  0.00  0.00    +0.000 A 
ATOM      6  S   UNL     1       1.865   6.342  20.402  0.00  0.00    +0.000 S 
ATOM      7  H   UNL     1       2.518   4.050  18.985  0.00  0.00    +0.000 HD
ENDROOT
BRANCH   1   9
ATOM      8  O   UNL     1       5.151   5.624  19.694  0.00  0.00    +0.000 OA
ATOM      9  S   UNL     1       4.652   4.509  18.929  0.00  0.00    +0.000 S 
ATOM     10  O   UNL     1       4.707   3.163  19.469  0.00  0.00    +0.000 OA
BRANCH   9  11
ATOM     11  C   UNL     1       5.474   4.500  17.376  0.00  0.00    +0.000 A 
ATOM     12  C   UNL     1       4.752   4.344  16.190  0.00  0.00    +0.000 A 
ATOM     13  C   UNL     1       5.428   4.355  14.969  0.00  0.00    +0.000 A 
ATOM     14  C   UNL     1       6.815   4.521  14.937  0.00  0.00    +0.000 A 
ATOM     15  C   UNL     1       7.529   4.676  16.127  0.00  0.00    +0.000 A 
ATOM     16  C   UNL     1       6.853   4.666  17.344  0.00  0.00    +0.000 A 
ATOM     17  F   UNL     1       7.562   4.799  18.475  0.00  0.00    +0.000 F 
ENDBRANCH   9  11
ENDBRANCH   1   9
BRANCH   5  18
ATOM     18  C   UNL     1       0.896   9.037  20.702  0.00  0.00    +0.000 C 
ATOM     19  C   UNL     1       1.399   9.195  22.129  0.00  0.00    +0.000 C 
ATOM     20  C   UNL     1       0.012   8.679  21.891  0.00  0.00    +0.000 C 
BRANCH  18  21
ATOM     21  C   UNL     1       0.483  10.278  19.923  0.00  0.00    +0.000 A 
ATOM     22  C   UNL     1      -0.660  10.241  19.098  0.00  0.00    +0.000 A 
ATOM     23  C   UNL     1      -1.169  11.395  18.500  0.00  0.00    +0.000 A 
ATOM     24  C   UNL     1      -0.529  12.614  18.696  0.00  0.00    +0.000 A 
ATOM     25  C   UNL     1       0.640  12.666  19.453  0.00  0.00    +0.000 A 
ATOM     26  C   UNL     1       1.146  11.508  20.048  0.00  0.00    +0.000 A 
ENDBRANCH  18  21
ENDBRANCH   5  18
TORSDOF 4
ENDMDL
MODEL 3
REMARK VINA RESULT:      -8.0      2.841      8.251
REMARK  Name = 
REMARK  4 active torsions:
REMARK  status: ('A' for Active; 'I' for Inactive)
REMARK    1  A    between atoms: S_2  and  N_4
REMARK    2  A    between atoms: S_2  and  C_19
REMARK    3  A    between atoms: C_8  and  C_9
REMARK    4  A    between atoms: C_9  and  C_10
REMARK                            x       y       z     vdW  Elec       q    Type
REMARK                         _______ _______ _______ _____ _____    ______ ____
ROOT
ATOM      1  N   UNL     1       5.437   3.892  17.965  0.00  0.00    +0.000 N 
ATOM      2  C   UNL     1       6.105   4.273  16.773  0.00  0.00    +0.000 A 
ATOM      3  N   UNL     1       7.344   4.700  16.792  0.00  0.00    +0.000 NA
ATOM      4  N   UNL     1       7.851   4.843  15.511  0.00  0.00    +0.000 NA
ATOM      5  C   UNL     1       6.945   4.581  14.589  0.00  0.00    +0.000 A 
ATOM      6  S   UNL     1       5.437   4.052  15.219  0.00  0.00    +0.000 S 
ATOM      7  H   UNL     1       4.757   3.160  17.755  0.00  0.00    +0.000 HD
ENDROOT
BRANCH   1   9
ATOM      8  O   UNL     1       5.130   5.778  19.705  0.00  0.00    +0.000 OA
ATOM      9  S   UNL     1       4.499   5.172  18.560  0.00  0.00    +0.000 S 
ATOM     10  O   UNL     1       4.139   5.977  17.406  0.00  0.00    +0.000 OA
BRANCH   9  11
ATOM     11  C   UNL     1       3.050   4.343  19.109  0.00  0.00    +0.000 A 
ATOM     12  C   UNL     1       2.654   4.415  20.447  0.00  0.00    +0.000 A 
ATOM     13  C   UNL     1       1.491   3.760  20.855  0.00  0.00    +0.000 A 
ATOM     14  C   UNL     1       0.731   3.040  19.930  0.00  0.00    +0.000 A 
ATOM     15  C   UNL     1       1.134   2.973  18.595  0.00  0.00    +0.000 A 
ATOM     16  C   UNL     1       2.293   3.627  18.190  0.00  0.00    +0.000 A 
ATOM     17  F   UNL     1       2.669   3.535  16.906  0.00  0.00    +0.000 F 
ENDBRANCH   9  11
ENDBRANCH   1   9
BRANCH   5  18
ATOM     18  C   UNL     1       7.254   4.718  13.087  0.00  0.00    +0.000 C 
ATOM     19  C   UNL     1       8.596   5.343  12.735  0.00  0.00    +0.000 C 
ATOM     20  C   UNL     1       7.333   6.083  12.415  0.00  0.00    +0.000 C 
BRANCH  18  21
ATOM     21  C   UNL     1       6.717   3.585  12.222  0.00  0.00    +0.000 A 
ATOM     22  C   UNL     1       7.607   2.644  11.665  0.00  0.00    +0.000 A 
ATOM     23  C   UNL     1       7.148   1.501  11.009  0.00  0.00    +0.000 A 
ATOM     24  C   UNL     1       5.780   1.285  10.876  0.00  0.00    +0.000 A 
ATOM     25  C   UNL     1       4.880   2.232  11.359  0.00  0.00    +0.000 A 
ATOM     26  C   UNL     1       5.345   3.376  12.014  0.00  0.00    +0.000 A 
ENDBRANCH  18  21
ENDBRANCH   5  18
TORSDOF 4
ENDMDL
MODEL 4
REMARK VINA RESULT:      -7.9      4.646      6.392
REMARK  Name = 
REMARK  4 active torsions:
REMARK  status: ('A' for Active; 'I' for Inactive)
REMARK    1  A    between atoms: S_2  and  N_4
REMARK    2  A    between atoms: S_2  and  C_19
REMARK    3  A    between atoms: C_8  and  C_9
REMARK    4  A    between atoms: C_9  and  C_10
REMARK                            x       y       z     vdW  Elec       q    Type
REMARK                         _______ _______ _______ _____ _____    ______ ____
ROOT
ATOM      1  N   UNL     1       3.531   6.234  18.560  0.00  0.00    +0.000 N 
ATOM      2  C   UNL     1       2.612   7.251  18.922  0.00  0.00    +0.000 A 
ATOM      3  N   UNL     1       2.199   7.389  20.159  0.00  0.00    +0.000 NA
ATOM      4  N   UNL     1       1.456   8.545  20.320  0.00  0.00    +0.000 NA
ATOM      5  C   UNL     1       1.288   9.188  19.180  0.00  0.00    +0.000 A 
ATOM      6  S   UNL     1       2.104   8.475  17.847  0.00  0.00    +0.000 S 
ATOM      7  H   UNL     1       4.104   6.555  17.778  0.00  0.00    +0.000 HD
ENDROOT
BRANCH   1   9
ATOM      8  O   UNL     1       1.416   5.255  17.442  0.00  0.00    +0.000 OA
ATOM      9  S   UNL     1       2.713   4.881  17.947  0.00  0.00    +0.000 S 
ATOM     10  O   UNL     1       3.664   4.190  17.094  0.00  0.00    +0.000 OA
BRANCH   9  11
ATOM     11  C   UNL     1       2.478   3.907  19.390  0.00  0.00    +0.000 A 
ATOM     12  C   UNL     1       1.208   3.772  19.958  0.00  0.00    +0.000 A 
ATOM     13  C   UNL     1       1.046   2.980  21.095  0.00  0.00    +0.000 A 
ATOM     14  C   UNL     1       2.145   2.328  21.658  0.00  0.00    +0.000 A 
ATOM     15  C   UNL     1       3.410   2.468  21.085  0.00  0.00    +0.000 A 
ATOM     16  C   UNL     1       3.571   3.257  19.950  0.00  0.00    +0.000 A 
ATOM     17  F   UNL     1       4.799   3.390  19.426  0.00  0.00    +0.000 F 
ENDBRANCH   9  11
ENDBRANCH   1   9
BRANCH   5  18
ATOM     18  C   UNL     1       0.453  10.479  19.092  0.00  0.00    +0.000 C 
ATOM     19  C   UNL     1      -0.937  10.419  19.708  0.00  0.00    +0.000 C 
ATOM     20  C   UNL     1      -0.796  10.557  18.223  0.00  0.00    +0.000 C 
BRANCH  18  21
ATOM     21  C   UNL     1       1.258  11.765  19.208  0.00  0.00    +0.000 A 
ATOM     22  C   UNL     1       1.257  12.488  20.418  0.00  0.00    +0.000 A 
ATOM     23  C   UNL     1       2.107  13.576  20.623  0.00  0.00    +0.000 A 
ATOM     24  C   UNL     1       2.967  13.980  19.607  0.00  0.00    +0.000 A 
ATOM     25  C   UNL     1       2.941  13.324  18.378  0.00  0.00    +0.000 A 
ATOM     26  C   UNL     1       2.086  12.237  18.178  0.00  0.00    +0.000 A 
ENDBRANCH  18  21
ENDBRANCH   5  18
TORSDOF 4
ENDMDL
MODEL 5
REMARK VINA RESULT:      -7.9      0.939      1.347
REMARK  Name = 
REMARK  4 active torsions:
REMARK  status: ('A' for Active; 'I' for Inactive)
REMARK    1  A    between atoms: S_2  and  N_4
REMARK    2  A    between atoms: S_2  and  C_19
REMARK    3  A    between atoms: C_8  and  C_9
REMARK    4  A    between atoms: C_9  and  C_10
REMARK                            x       y       z     vdW  Elec       q    Type
REMARK                         _______ _______ _______ _____ _____    ______ ____
ROOT
ATOM      1  N   UNL     1       6.048   4.280  16.674  0.00  0.00    +0.000 N 
ATOM      2  C   UNL     1       4.838   4.506  17.378  0.00  0.00    +0.000 A 
ATOM      3  N   UNL     1       3.695   4.036  16.939  0.00  0.00    +0.000 NA
ATOM      4  N   UNL     1       2.683   4.219  17.865  0.00  0.00    +0.000 NA
ATOM      5  C   UNL     1       3.099   4.878  18.929  0.00  0.00    +0.000 A 
ATOM      6  S   UNL     1       4.778   5.241  18.916  0.00  0.00    +0.000 S 
ATOM      7  H   UNL     1       6.825   4.240  17.336  0.00  0.00    +0.000 HD
ENDROOT
BRANCH   1   9
ATOM      8  O   UNL     1       5.304   6.514  15.610  0.00  0.00    +0.000 OA
ATOM      9  S   UNL     1       6.417   5.601  15.679  0.00  0.00    +0.000 S 
ATOM     10  O   UNL     1       7.726   6.067  16.100  0.00  0.00    +0.000 OA
BRANCH   9  11
ATOM     11  C   UNL     1       6.598   4.840  14.106  0.00  0.00    +0.000 A 
ATOM     12  C   UNL     1       7.724   5.094  13.318  0.00  0.00    +0.000 A 
ATOM     13  C   UNL     1       7.850   4.465  12.078  0.00  0.00    +0.000 A 
ATOM     14  C   UNL     1       6.858   3.589  11.633  0.00  0.00    +0.000 A 
ATOM     15  C   UNL     1       5.737   3.341  12.426  0.00  0.00    +0.000 A 
ATOM     16  C   UNL     1       5.612   3.967  13.662  0.00  0.00    +0.000 A 
ATOM     17  F   UNL     1       4.518   3.726  14.399  0.00  0.00    +0.000 F 
ENDBRANCH   9  11
ENDBRANCH   1   9
BRANCH   5  18
ATOM     18  C   UNL     1       2.144   5.247  20.080  0.00  0.00    +0.000 C 
ATOM     19  C   UNL     1       2.291   4.433  21.357  0.00  0.00    +0.000 C 
ATOM     20  C   UNL     1       1.046   4.293  20.535  0.00  0.00    +0.000 C 
BRANCH  18  21
ATOM     21  C   UNL     1       1.815   6.730  20.181  0.00  0.00    +0.000 A 
ATOM     22  C   UNL     1       2.053   7.579  19.082  0.00  0.00    +0.000 A 
ATOM     23  C   UNL     1       1.615   8.904  19.071  0.00  0.00    +0.000 A 
ATOM     24  C   UNL     1       0.944   9.418  20.176  0.00  0.00    +0.000 A 
ATOM     25  C   UNL     1       0.755   8.619  21.302  0.00  0.00    +0.000 A 
ATOM     26  C   UNL     1       1.197   7.294  21.308  0.00  0.00    +0.000 A 
ENDBRANCH  18  21
ENDBRANCH   5  18
TORSDOF 4
ENDMDL
MODEL 6
REMARK VINA RESULT:      -7.8      4.682      6.566
REMARK  Name = 
REMARK  4 active torsions:
REMARK  status: ('A' for Active; 'I' for Inactive)
REMARK    1  A    between atoms: S_2  and  N_4
REMARK    2  A    between atoms: S_2  and  C_19
REMARK    3  A    between atoms: C_8  and  C_9
REMARK    4  A    between atoms: C_9  and  C_10
REMARK                            x       y       z     vdW  Elec       q    Type
REMARK                         _______ _______ _______ _____ _____    ______ ____
ROOT
ATOM      1  N   UNL     1       3.398   6.449  18.727  0.00  0.00    +0.000 N 
ATOM      2  C   UNL     1       2.483   7.498  18.998  0.00  0.00    +0.000 A 
ATOM      3  N   UNL     1       1.957   7.654  20.189  0.00  0.00    +0.000 NA
ATOM      4  N   UNL     1       1.239   8.835  20.275  0.00  0.00    +0.000 NA
ATOM      5  C   UNL     1       1.204   9.477  19.124  0.00  0.00    +0.000 A 
ATOM      6  S   UNL     1       2.121   8.732  17.877  0.00  0.00    +0.000 S 
ATOM      7  H   UNL     1       4.054   6.749  18.004  0.00  0.00    +0.000 HD
ENDROOT
BRANCH   1   9
ATOM      8  O   UNL     1       1.288   5.499  17.577  0.00  0.00    +0.000 OA
ATOM      9  S   UNL     1       2.600   5.122  18.040  0.00  0.00    +0.000 S 
ATOM     10  O   UNL     1       3.551   4.506  17.132  0.00  0.00    +0.000 OA
BRANCH   9  11
ATOM     11  C   UNL     1       2.405   4.052  19.420  0.00  0.00    +0.000 A 
ATOM     12  C   UNL     1       1.142   3.832  19.976  0.00  0.00    +0.000 A 
ATOM     13  C   UNL     1       1.012   2.966  21.063  0.00  0.00    +0.000 A 
ATOM     14  C   UNL     1       2.137   2.327  21.588  0.00  0.00    +0.000 A 
ATOM     15  C   UNL     1       3.396   2.552  21.027  0.00  0.00    +0.000 A 
ATOM     16  C   UNL     1       3.524   3.415  19.942  0.00  0.00    +0.000 A 
ATOM     17  F   UNL     1       4.744   3.629  19.430  0.00  0.00    +0.000 F 
ENDBRANCH   9  11
ENDBRANCH   1   9
BRANCH   5  18
ATOM     18  C   UNL     1       0.424  10.795  18.954  0.00  0.00    +0.000 C 
ATOM     19  C   UNL     1       1.243  12.006  18.533  0.00  0.00    +0.000 C 
ATOM     20  C   UNL     1       0.635  11.969  19.903  0.00  0.00    +0.000 C 
BRANCH  18  21
ATOM     21  C   UNL     1      -0.988  10.631  18.409  0.00  0.00    +0.000 A 
ATOM     22  C   UNL     1      -2.041  11.400  18.945  0.00  0.00    +0.000 A 
ATOM     23  C   UNL     1      -3.312  11.406  18.368  0.00  0.00    +0.000 A 
ATOM     24  C   UNL     1      -3.564  10.621  17.248  0.00  0.00    +0.000 A 
ATOM     25  C   UNL     1      -2.559   9.801  16.738  0.00  0.00    +0.000 A 
ATOM     26  C   UNL     1      -1.289   9.798  17.321  0.00  0.00    +0.000 A 
ENDBRANCH  18  21
ENDBRANCH   5  18
TORSDOF 4
ENDMDL
MODEL 7
REMARK VINA RESULT:      -7.8      3.082      8.172
REMARK  Name = 
REMARK  4 active torsions:
REMARK  status: ('A' for Active; 'I' for Inactive)
REMARK    1  A    between atoms: S_2  and  N_4
REMARK    2  A    between atoms: S_2  and  C_19
REMARK    3  A    between atoms: C_8  and  C_9
REMARK    4  A    between atoms: C_9  and  C_10
REMARK                            x       y       z     vdW  Elec       q    Type
REMARK                         _______ _______ _______ _____ _____    ______ ____
ROOT
ATOM      1  N   UNL     1       5.796   4.075  17.959  0.00  0.00    +0.000 N 
ATOM      2  C   UNL     1       6.332   4.490  16.714  0.00  0.00    +0.000 A 
ATOM      3  N   UNL     1       7.411   5.231  16.649  0.00  0.00    +0.000 NA
ATOM      4  N   UNL     1       7.856   5.366  15.345  0.00  0.00    +0.000 NA
ATOM      5  C   UNL     1       7.051   4.775  14.484  0.00  0.00    +0.000 A 
ATOM      6  S   UNL     1       5.743   3.933  15.213  0.00  0.00    +0.000 S 
ATOM      7  H   UNL     1       5.337   3.169  17.847  0.00  0.00    +0.000 HD
ENDROOT
BRANCH   1   9
ATOM      8  O   UNL     1       4.821   5.651  19.760  0.00  0.00    +0.000 OA
ATOM      9  S   UNL     1       4.550   5.114  18.450  0.00  0.00    +0.000 S 
ATOM     10  O   UNL     1       4.301   6.000  17.328  0.00  0.00    +0.000 OA
BRANCH   9  11
ATOM     11  C   UNL     1       3.184   4.016  18.581  0.00  0.00    +0.000 A 
ATOM     12  C   UNL     1       3.239   2.741  18.012  0.00  0.00    +0.000 A 
ATOM     13  C   UNL     1       2.146   1.884  18.144  0.00  0.00    +0.000 A 
ATOM     14  C   UNL     1       1.009   2.299  18.840  0.00  0.00    +0.000 A 
ATOM     15  C   UNL     1       0.962   3.574  19.406  0.00  0.00    +0.000 A 
ATOM     16  C   UNL     1       2.053   4.428  19.275  0.00  0.00    +0.000 A 
ATOM     17  F   UNL     1       1.979   5.655  19.812  0.00  0.00    +0.000 F 
ENDBRANCH   9  11
ENDBRANCH   1   9
BRANCH   5  18
ATOM     18  C   UNL     1       7.307   4.827  12.966  0.00  0.00    +0.000 C 
ATOM     19  C   UNL     1       8.644   5.410  12.534  0.00  0.00    +0.000 C 
ATOM     20  C   UNL     1       7.381   6.154  12.220  0.00  0.00    +0.000 C 
BRANCH  18  21
ATOM     21  C   UNL     1       6.721   3.661  12.183  0.00  0.00    +0.000 A 
ATOM     22  C   UNL     1       7.571   2.658  11.675  0.00  0.00    +0.000 A 
ATOM     23  C   UNL     1       7.066   1.491  11.098  0.00  0.00    +0.000 A 
ATOM     24  C   UNL     1       5.691   1.311  10.999  0.00  0.00    +0.000 A 
ATOM     25  C   UNL     1       4.829   2.316  11.433  0.00  0.00    +0.000 A 
ATOM     26  C   UNL     1       5.340   3.483  12.007  0.00  0.00    +0.000 A 
ENDBRANCH  18  21
ENDBRANCH   5  18
TORSDOF 4
ENDMDL
MODEL 8
REMARK VINA RESULT:      -7.6      4.822      8.579
REMARK  Name = 
REMARK  4 active torsions:
REMARK  status: ('A' for Active; 'I' for Inactive)
REMARK    1  A    between atoms: S_2  and  N_4
REMARK    2  A    between atoms: S_2  and  C_19
REMARK    3  A    between atoms: C_8  and  C_9
REMARK    4  A    between atoms: C_9  and  C_10
REMARK                            x       y       z     vdW  Elec       q    Type
REMARK                         _______ _______ _______ _____ _____    ______ ____
ROOT
ATOM      1  N   UNL     1       1.604   8.719  21.436  0.00  0.00    +0.000 N 
ATOM      2  C   UNL     1       1.839   7.770  20.409  0.00  0.00    +0.000 A 
ATOM      3  N   UNL     1       2.046   8.144  19.169  0.00  0.00    +0.000 NA
ATOM      4  N   UNL     1       2.429   7.077  18.375  0.00  0.00    +0.000 NA
ATOM      5  C   UNL     1       2.425   5.939  19.041  0.00  0.00    +0.000 A 
ATOM      6  S   UNL     1       2.044   6.103  20.708  0.00  0.00    +0.000 S 
ATOM      7  H   UNL     1       1.961   8.356  22.322  0.00  0.00    +0.000 HD
ENDROOT
BRANCH   1   9
ATOM      8  O   UNL     1      -0.785   7.753  21.249  0.00  0.00    +0.000 OA
ATOM      9  S   UNL     1      -0.058   8.911  21.705  0.00  0.00    +0.000 S 
ATOM     10  O   UNL     1      -0.192   9.371  23.075  0.00  0.00    +0.000 OA
BRANCH   9  11
ATOM     11  C   UNL     1      -0.451  10.256  20.645  0.00  0.00    +0.000 A 
ATOM     12  C   UNL     1      -0.826  10.029  19.318  0.00  0.00    +0.000 A 
ATOM     13  C   UNL     1      -1.147  11.114  18.501  0.00  0.00    +0.000 A 
ATOM     14  C   UNL     1      -1.095  12.414  19.010  0.00  0.00    +0.000 A 
ATOM     15  C   UNL     1      -0.720  12.632  20.336  0.00  0.00    +0.000 A 
ATOM     16  C   UNL     1      -0.400  11.549  21.150  0.00  0.00    +0.000 A 
ATOM     17  F   UNL     1      -0.026  11.783  22.417  0.00  0.00    +0.000 F 
ENDBRANCH   9  11
ENDBRANCH   1   9
BRANCH   5  18
ATOM     18  C   UNL     1       2.768   4.600  18.361  0.00  0.00    +0.000 C 
ATOM     19  C   UNL     1       1.665   3.976  17.519  0.00  0.00    +0.000 C 
ATOM     20  C   UNL     1       2.095   3.300  18.785  0.00  0.00    +0.000 C 
BRANCH  18  21
ATOM     21  C   UNL     1       4.213   4.474  17.897  0.00  0.00    +0.000 A 
ATOM     22  C   UNL     1       4.493   4.105  16.566  0.00  0.00    +0.000 A 
ATOM     23  C   UNL     1       5.791   4.140  16.054  0.00  0.00    +0.000 A 
ATOM     24  C   UNL     1       6.846   4.527  16.874  0.00  0.00    +0.000 A 
ATOM     25  C   UNL     1       6.605   4.833  18.212  0.00  0.00    +0.000 A 
ATOM     26  C   UNL     1       5.304   4.794  18.720  0.00  0.00    +0.000 A 
ENDBRANCH  18  21
ENDBRANCH   5  18
TORSDOF 4
ENDMDL
MODEL 9
REMARK VINA RESULT:      -7.6      3.233      8.153
REMARK  Name = 
REMARK  4 active torsions:
REMARK  status: ('A' for Active; 'I' for Inactive)
REMARK    1  A    between atoms: S_2  and  N_4
REMARK    2  A    between atoms: S_2  and  C_19
REMARK    3  A    between atoms: C_8  and  C_9
REMARK    4  A    between atoms: C_9  and  C_10
REMARK                            x       y       z     vdW  Elec       q    Type
REMARK                         _______ _______ _______ _____ _____    ______ ____
ROOT
ATOM      1  N   UNL     1       5.780   4.029  17.948  0.00  0.00    +0.000 N 
ATOM      2  C   UNL     1       6.330   4.440  16.708  0.00  0.00    +0.000 A 
ATOM      3  N   UNL     1       7.451   5.117  16.649  0.00  0.00    +0.000 NA
ATOM      4  N   UNL     1       7.893   5.255  15.344  0.00  0.00    +0.000 NA
ATOM      5  C   UNL     1       7.047   4.733  14.478  0.00  0.00    +0.000 A 
ATOM      6  S   UNL     1       5.696   3.955  15.200  0.00  0.00    +0.000 S 
ATOM      7  H   UNL     1       5.267   3.155  17.820  0.00  0.00    +0.000 HD
ENDROOT
BRANCH   1   9
ATOM      8  O   UNL     1       4.928   5.636  19.784  0.00  0.00    +0.000 OA
ATOM      9  S   UNL     1       4.603   5.129  18.475  0.00  0.00    +0.000 S 
ATOM     10  O   UNL     1       4.382   6.040  17.367  0.00  0.00    +0.000 OA
BRANCH   9  11
ATOM     11  C   UNL     1       3.181   4.107  18.622  0.00  0.00    +0.000 A 
ATOM     12  C   UNL     1       2.028   4.382  17.883  0.00  0.00    +0.000 A 
ATOM     13  C   UNL     1       0.918   3.546  18.007  0.00  0.00    +0.000 A 
ATOM     14  C   UNL     1       0.963   2.444  18.863  0.00  0.00    +0.000 A 
ATOM     15  C   UNL     1       2.119   2.175  19.598  0.00  0.00    +0.000 A 
ATOM     16  C   UNL     1       3.226   3.009  19.473  0.00  0.00    +0.000 A 
ATOM     17  F   UNL     1       4.320   2.742  20.201  0.00  0.00    +0.000 F 
ENDBRANCH   9  11
ENDBRANCH   1   9
BRANCH   5  18
ATOM     18  C   UNL     1       7.292   4.805  12.960  0.00  0.00    +0.000 C 
ATOM     19  C   UNL     1       8.621   5.406  12.525  0.00  0.00    +0.000 C 
ATOM     20  C   UNL     1       7.349   6.141  12.228  0.00  0.00    +0.000 C 
BRANCH  18  21
ATOM     21  C   UNL     1       6.713   3.642  12.167  0.00  0.00    +0.000 A 
ATOM     22  C   UNL     1       7.570   2.646  11.653  0.00  0.00    +0.000 A 
ATOM     23  C   UNL     1       7.071   1.482  11.068  0.00  0.00    +0.000 A 
ATOM     24  C   UNL     1       5.697   1.296  10.963  0.00  0.00    +0.000 A 
ATOM     25  C   UNL     1       4.829   2.294  11.402  0.00  0.00    +0.000 A 
ATOM     26  C   UNL     1       5.334   3.459  11.986  0.00  0.00    +0.000 A 
ENDBRANCH  18  21
ENDBRANCH   5  18
TORSDOF 4
ENDMDL
