MODEL 1
REMARK VINA RESULT:      -8.8      0.000      0.000
REMARK  Name = 
REMARK  4 active torsions:
REMARK  status: ('A' for Active; 'I' for Inactive)
REMARK    1  A    between atoms: C_2  and  C_15
REMARK    2  A    between atoms: C_8  and  C_9
REMARK    3  A    between atoms: C_15  and  C_16
REMARK    4  A    between atoms: C_15  and  C_22
REMARK                            x       y       z     vdW  Elec       q    Type
REMARK                         _______ _______ _______ _____ _____    ______ ____
ROOT
ATOM      1  O   UNL     1       4.353   7.090  16.967  0.00  0.00    +0.000 OA
ATOM      2  C   UNL     1       3.799   5.999  17.099  0.00  0.00    +0.000 C 
ATOM      3  N   UNL     1       4.211   4.859  16.445  0.00  0.00    +0.000 N 
ATOM      4  C   UNL     1       5.358   4.820  15.674  0.00  0.00    +0.000 A 
ATOM      5  N   UNL     1       5.329   4.125  14.534  0.00  0.00    +0.000 NA
ATOM      6  O   UNL     1       6.564   4.342  13.948  0.00  0.00    +0.000 OA
ATOM      7  N   UNL     1       7.393   5.076  14.776  0.00  0.00    +0.000 NA
ATOM      8  C   UNL     1       6.672   5.338  15.879  0.00  0.00    +0.000 A 
ATOM      9  H   UNL     1       3.489   4.231  16.125  0.00  0.00    +0.000 HD
ENDROOT
BRANCH   8  10
ATOM     10  C   UNL     1       7.317   5.928  17.054  0.00  0.00    +0.000 A 
ATOM     11  C   UNL     1       7.535   5.153  18.211  0.00  0.00    +0.000 A 
ATOM     12  C   UNL     1       8.076   5.724  19.368  0.00  0.00    +0.000 A 
ATOM     13  C   UNL     1       8.404   7.078  19.389  0.00  0.00    +0.000 A 
ATOM     14  C   UNL     1       8.181   7.861  18.258  0.00  0.00    +0.000 A 
ATOM     15  C   UNL     1       7.632   7.295  17.103  0.00  0.00    +0.000 A 
ENDBRANCH   8  10
BRANCH   2  16
ATOM     16  C   UNL     1       2.556   5.843  17.990  0.00  0.00    +0.000 C 
BRANCH  16  17
ATOM     17  C   UNL     1       2.548   4.593  18.880  0.00  0.00    +0.000 A 
ATOM     18  C   UNL     1       3.692   4.106  19.534  0.00  0.00    +0.000 A 
ATOM     19  C   UNL     1       3.612   3.057  20.453  0.00  0.00    +0.000 A 
ATOM     20  C   UNL     1       2.390   2.450  20.716  0.00  0.00    +0.000 A 
ATOM     21  C   UNL     1       1.252   2.873  20.036  0.00  0.00    +0.000 A 
ATOM     22  C   UNL     1       1.331   3.931  19.123  0.00  0.00    +0.000 A 
ENDBRANCH  16  17
BRANCH  16  23
ATOM     23  C   UNL     1       2.123   7.134  18.700  0.00  0.00    +0.000 A 
ATOM     24  C   UNL     1       1.782   8.257  17.924  0.00  0.00    +0.000 A 
ATOM     25  C   UNL     1       1.303   9.425  18.520  0.00  0.00    +0.000 A 
ATOM     26  C   UNL     1       1.147   9.493  19.900  0.00  0.00    +0.000 A 
ATOM     27  C   UNL     1       1.491   8.403  20.689  0.00  0.00    +0.000 A 
ATOM     28  C   UNL     1       1.991   7.242  20.095  0.00  0.00    +0.000 A 
ENDBRANCH  16  23
ENDBRANCH   2  16
TORSDOF 4
ENDMDL
MODEL 2
REMARK VINA RESULT:      -8.7      1.116      3.709
REMARK  Name = 
REMARK  4 active torsions:
REMARK  status: ('A' for Active; 'I' for Inactive)
REMARK    1  A    between atoms: C_2  and  C_15
REMARK    2  A    between atoms: C_8  and  C_9
REMARK    3  A    between atoms: C_15  and  C_16
REMARK    4  A    between atoms: C_15  and  C_22
REMARK                            x       y       z     vdW  Elec       q    Type
REMARK                         _______ _______ _______ _____ _____    ______ ____
ROOT
ATOM      1  O   UNL     1       4.314   7.267  17.456  0.00  0.00    +0.000 OA
ATOM      2  C   UNL     1       3.973   6.270  18.093  0.00  0.00    +0.000 C 
ATOM      3  N   UNL     1       4.459   5.008  17.837  0.00  0.00    +0.000 N 
ATOM      4  C   UNL     1       5.464   4.773  16.916  0.00  0.00    +0.000 A 
ATOM      5  N   UNL     1       5.373   3.686  16.145  0.00  0.00    +0.000 NA
ATOM      6  O   UNL     1       6.451   3.767  15.280  0.00  0.00    +0.000 OA
ATOM      7  N   UNL     1       7.266   4.839  15.590  0.00  0.00    +0.000 NA
ATOM      8  C   UNL     1       6.692   5.448  16.640  0.00  0.00    +0.000 A 
ATOM      9  H   UNL     1       3.809   4.241  17.927  0.00  0.00    +0.000 HD
ENDROOT
BRANCH   8  10
ATOM     10  C   UNL     1       7.406   6.508  17.355  0.00  0.00    +0.000 A 
ATOM     11  C   UNL     1       7.951   6.264  18.632  0.00  0.00    +0.000 A 
ATOM     12  C   UNL     1       8.564   7.289  19.359  0.00  0.00    +0.000 A 
ATOM     13  C   UNL     1       8.638   8.574  18.826  0.00  0.00    +0.000 A 
ATOM     14  C   UNL     1       8.091   8.835  17.572  0.00  0.00    +0.000 A 
ATOM     15  C   UNL     1       7.469   7.814  16.845  0.00  0.00    +0.000 A 
ENDBRANCH   8  10
BRANCH   2  16
ATOM     16  C   UNL     1       2.925   6.366  19.213  0.00  0.00    +0.000 C 
BRANCH  16  17
ATOM     17  C   UNL     1       2.111   7.666  19.231  0.00  0.00    +0.000 A 
ATOM     18  C   UNL     1       1.800   8.396  18.072  0.00  0.00    +0.000 A 
ATOM     19  C   UNL     1       0.932   9.490  18.114  0.00  0.00    +0.000 A 
ATOM     20  C   UNL     1       0.378   9.897  19.321  0.00  0.00    +0.000 A 
ATOM     21  C   UNL     1       0.716   9.228  20.493  0.00  0.00    +0.000 A 
ATOM     22  C   UNL     1       1.579   8.127  20.450  0.00  0.00    +0.000 A 
ENDBRANCH  16  17
BRANCH  16  23
ATOM     23  C   UNL     1       2.093   5.090  19.411  0.00  0.00    +0.000 A 
ATOM     24  C   UNL     1       1.635   4.394  18.277  0.00  0.00    +0.000 A 
ATOM     25  C   UNL     1       0.947   3.186  18.404  0.00  0.00    +0.000 A 
ATOM     26  C   UNL     1       0.712   2.643  19.663  0.00  0.00    +0.000 A 
ATOM     27  C   UNL     1       1.142   3.319  20.798  0.00  0.00    +0.000 A 
ATOM     28  C   UNL     1       1.810   4.538  20.672  0.00  0.00    +0.000 A 
ENDBRANCH  16  23
ENDBRANCH   2  16
TORSDOF 4
ENDMDL
MODEL 3
REMARK VINA RESULT:      -8.6      1.036      3.802
REMARK  Name = 
REMARK  4 active torsions:
REMARK  status: ('A' for Active; 'I' for Inactive)
REMARK    1  A    between atoms: C_2  and  C_15
REMARK    2  A    between atoms: C_8  and  C_9
REMARK    3  A    between atoms: C_15  and  C_16
REMARK    4  A    between atoms: C_15  and  C_22
REMARK                            x       y       z     vdW  Elec       q    Type
REMARK                         _______ _______ _______ _____ _____    ______ ____
ROOT
ATOM      1  O   UNL     1       4.321   7.220  17.537  0.00  0.00    +0.000 OA
ATOM      2  C   UNL     1       4.004   6.201  18.151  0.00  0.00    +0.000 C 
ATOM      3  N   UNL     1       4.500   4.953  17.849  0.00  0.00    +0.000 N 
ATOM      4  C   UNL     1       5.489   4.757  16.902  0.00  0.00    +0.000 A 
ATOM      5  N   UNL     1       5.395   3.692  16.101  0.00  0.00    +0.000 NA
ATOM      6  O   UNL     1       6.454   3.811  15.218  0.00  0.00    +0.000 OA
ATOM      7  N   UNL     1       7.263   4.883  15.542  0.00  0.00    +0.000 NA
ATOM      8  C   UNL     1       6.703   5.454  16.621  0.00  0.00    +0.000 A 
ATOM      9  H   UNL     1       3.860   4.176  17.929  0.00  0.00    +0.000 HD
ENDROOT
BRANCH   8  10
ATOM     10  C   UNL     1       7.419   6.502  17.352  0.00  0.00    +0.000 A 
ATOM     11  C   UNL     1       7.948   6.242  18.633  0.00  0.00    +0.000 A 
ATOM     12  C   UNL     1       8.562   7.256  19.376  0.00  0.00    +0.000 A 
ATOM     13  C   UNL     1       8.655   8.544  18.854  0.00  0.00    +0.000 A 
ATOM     14  C   UNL     1       8.124   8.820  17.596  0.00  0.00    +0.000 A 
ATOM     15  C   UNL     1       7.500   7.812  16.855  0.00  0.00    +0.000 A 
ENDBRANCH   8  10
BRANCH   2  16
ATOM     16  C   UNL     1       2.979   6.251  19.295  0.00  0.00    +0.000 C 
BRANCH  16  17
ATOM     17  C   UNL     1       2.075   7.492  19.302  0.00  0.00    +0.000 A 
ATOM     18  C   UNL     1       1.527   8.039  20.474  0.00  0.00    +0.000 A 
ATOM     19  C   UNL     1       0.836   9.252  20.456  0.00  0.00    +0.000 A 
ATOM     20  C   UNL     1       0.651   9.932  19.259  0.00  0.00    +0.000 A 
ATOM     21  C   UNL     1       1.131   9.382  18.074  0.00  0.00    +0.000 A 
ATOM     22  C   UNL     1       1.832   8.171  18.094  0.00  0.00    +0.000 A 
ENDBRANCH  16  17
BRANCH  16  23
ATOM     23  C   UNL     1       2.244   4.926  19.543  0.00  0.00    +0.000 A 
ATOM     24  C   UNL     1       2.218   4.395  20.845  0.00  0.00    +0.000 A 
ATOM     25  C   UNL     1       1.494   3.237  21.136  0.00  0.00    +0.000 A 
ATOM     26  C   UNL     1       0.774   2.593  20.135  0.00  0.00    +0.000 A 
ATOM     27  C   UNL     1       0.796   3.090  18.838  0.00  0.00    +0.000 A 
ATOM     28  C   UNL     1       1.538   4.234  18.543  0.00  0.00    +0.000 A 
ENDBRANCH  16  23
ENDBRANCH   2  16
TORSDOF 4
ENDMDL
MODEL 4
REMARK VINA RESULT:      -8.6      0.316      1.334
REMARK  Name = 
REMARK  4 active torsions:
REMARK  status: ('A' for Active; 'I' for Inactive)
REMARK    1  A    between atoms: C_2  and  C_15
REMARK    2  A    between atoms: C_8  and  C_9
REMARK    3  A    between atoms: C_15  and  C_16
REMARK    4  A    between atoms: C_15  and  C_22
REMARK                            x       y       z     vdW  Elec       q    Type
REMARK                         _______ _______ _______ _____ _____    ______ ____
ROOT
ATOM      1  O   UNL     1       4.263   7.149  16.904  0.00  0.00    +0.000 OA
ATOM      2  C   UNL     1       3.731   6.048  17.047  0.00  0.00    +0.000 C 
ATOM      3  N   UNL     1       4.197   4.900  16.446  0.00  0.00    +0.000 N 
ATOM      4  C   UNL     1       5.376   4.867  15.724  0.00  0.00    +0.000 A 
ATOM      5  N   UNL     1       5.411   4.138  14.605  0.00  0.00    +0.000 NA
ATOM      6  O   UNL     1       6.665   4.370  14.064  0.00  0.00    +0.000 OA
ATOM      7  N   UNL     1       7.440   5.149  14.902  0.00  0.00    +0.000 NA
ATOM      8  C   UNL     1       6.668   5.425  15.966  0.00  0.00    +0.000 A 
ATOM      9  H   UNL     1       3.505   4.244  16.116  0.00  0.00    +0.000 HD
ENDROOT
BRANCH   8  10
ATOM     10  C   UNL     1       7.249   6.066  17.148  0.00  0.00    +0.000 A 
ATOM     11  C   UNL     1       7.608   7.429  17.115  0.00  0.00    +0.000 A 
ATOM     12  C   UNL     1       8.238   8.032  18.208  0.00  0.00    +0.000 A 
ATOM     13  C   UNL     1       8.523   7.285  19.349  0.00  0.00    +0.000 A 
ATOM     14  C   UNL     1       8.187   5.934  19.391  0.00  0.00    +0.000 A 
ATOM     15  C   UNL     1       7.566   5.325  18.297  0.00  0.00    +0.000 A 
ENDBRANCH   8  10
BRANCH   2  16
ATOM     16  C   UNL     1       2.456   5.887  17.891  0.00  0.00    +0.000 C 
BRANCH  16  17
ATOM     17  C   UNL     1       2.366   4.578  18.686  0.00  0.00    +0.000 A 
ATOM     18  C   UNL     1       1.295   3.676  18.567  0.00  0.00    +0.000 A 
ATOM     19  C   UNL     1       1.323   2.428  19.193  0.00  0.00    +0.000 A 
ATOM     20  C   UNL     1       2.410   2.065  19.979  0.00  0.00    +0.000 A 
ATOM     21  C   UNL     1       3.456   2.963  20.162  0.00  0.00    +0.000 A 
ATOM     22  C   UNL     1       3.432   4.210  19.528  0.00  0.00    +0.000 A 
ENDBRANCH  16  17
BRANCH  16  23
ATOM     23  C   UNL     1       2.060   7.143  18.682  0.00  0.00    +0.000 A 
ATOM     24  C   UNL     1       1.738   8.317  17.977  0.00  0.00    +0.000 A 
ATOM     25  C   UNL     1       1.292   9.458  18.647  0.00  0.00    +0.000 A 
ATOM     26  C   UNL     1       1.150   9.446  20.031  0.00  0.00    +0.000 A 
ATOM     27  C   UNL     1       1.477   8.303  20.750  0.00  0.00    +0.000 A 
ATOM     28  C   UNL     1       1.944   7.170  20.082  0.00  0.00    +0.000 A 
ENDBRANCH  16  23
ENDBRANCH   2  16
TORSDOF 4
ENDMDL
MODEL 5
REMARK VINA RESULT:      -8.5      0.150      1.319
REMARK  Name = 
REMARK  4 active torsions:
REMARK  status: ('A' for Active; 'I' for Inactive)
REMARK    1  A    between atoms: C_2  and  C_15
REMARK    2  A    between atoms: C_8  and  C_9
REMARK    3  A    between atoms: C_15  and  C_16
REMARK    4  A    between atoms: C_15  and  C_22
REMARK                            x       y       z     vdW  Elec       q    Type
REMARK                         _______ _______ _______ _____ _____    ______ ____
ROOT
ATOM      1  O   UNL     1       4.233   7.103  16.979  0.00  0.00    +0.000 OA
ATOM      2  C   UNL     1       3.716   5.997  17.134  0.00  0.00    +0.000 C 
ATOM      3  N   UNL     1       4.183   4.853  16.527  0.00  0.00    +0.000 N 
ATOM      4  C   UNL     1       5.348   4.832  15.782  0.00  0.00    +0.000 A 
ATOM      5  N   UNL     1       5.370   4.101  14.665  0.00  0.00    +0.000 NA
ATOM      6  O   UNL     1       6.610   4.345  14.099  0.00  0.00    +0.000 OA
ATOM      7  N   UNL     1       7.392   5.134  14.921  0.00  0.00    +0.000 NA
ATOM      8  C   UNL     1       6.638   5.404  15.999  0.00  0.00    +0.000 A 
ATOM      9  H   UNL     1       3.492   4.189  16.212  0.00  0.00    +0.000 HD
ENDROOT
BRANCH   8  10
ATOM     10  C   UNL     1       7.235   6.054  17.168  0.00  0.00    +0.000 A 
ATOM     11  C   UNL     1       7.591   7.417  17.120  0.00  0.00    +0.000 A 
ATOM     12  C   UNL     1       8.236   8.029  18.200  0.00  0.00    +0.000 A 
ATOM     13  C   UNL     1       8.538   7.290  19.342  0.00  0.00    +0.000 A 
ATOM     14  C   UNL     1       8.205   5.939  19.399  0.00  0.00    +0.000 A 
ATOM     15  C   UNL     1       7.569   5.321  18.317  0.00  0.00    +0.000 A 
ENDBRANCH   8  10
BRANCH   2  16
ATOM     16  C   UNL     1       2.460   5.824  18.003  0.00  0.00    +0.000 C 
BRANCH  16  17
ATOM     17  C   UNL     1       2.480   4.609  18.939  0.00  0.00    +0.000 A 
ATOM     18  C   UNL     1       3.651   4.124  19.546  0.00  0.00    +0.000 A 
ATOM     19  C   UNL     1       3.605   3.111  20.507  0.00  0.00    +0.000 A 
ATOM     20  C   UNL     1       2.390   2.540  20.863  0.00  0.00    +0.000 A 
ATOM     21  C   UNL     1       1.223   2.960  20.233  0.00  0.00    +0.000 A 
ATOM     22  C   UNL     1       1.267   3.980  19.277  0.00  0.00    +0.000 A 
ENDBRANCH  16  17
BRANCH  16  23
ATOM     23  C   UNL     1       1.959   7.122  18.654  0.00  0.00    +0.000 A 
ATOM     24  C   UNL     1       1.905   7.204  20.057  0.00  0.00    +0.000 A 
ATOM     25  C   UNL     1       1.536   8.389  20.695  0.00  0.00    +0.000 A 
ATOM     26  C   UNL     1       1.224   9.519  19.946  0.00  0.00    +0.000 A 
ATOM     27  C   UNL     1       1.255   9.459  18.558  0.00  0.00    +0.000 A 
ATOM     28  C   UNL     1       1.602   8.267  17.920  0.00  0.00    +0.000 A 
ENDBRANCH  16  23
ENDBRANCH   2  16
TORSDOF 4
ENDMDL
MODEL 6
REMARK VINA RESULT:      -8.4      1.158      3.868
REMARK  Name = 
REMARK  4 active torsions:
REMARK  status: ('A' for Active; 'I' for Inactive)
REMARK    1  A    between atoms: C_2  and  C_15
REMARK    2  A    between atoms: C_8  and  C_9
REMARK    3  A    between atoms: C_15  and  C_16
REMARK    4  A    between atoms: C_15  and  C_22
REMARK                            x       y       z     vdW  Elec       q    Type
REMARK                         _______ _______ _______ _____ _____    ______ ____
ROOT
ATOM      1  O   UNL     1       4.177   7.256  17.612  0.00  0.00    +0.000 OA
ATOM      2  C   UNL     1       3.896   6.239  18.247  0.00  0.00    +0.000 C 
ATOM      3  N   UNL     1       4.455   5.008  17.988  0.00  0.00    +0.000 N 
ATOM      4  C   UNL     1       5.470   4.834  17.064  0.00  0.00    +0.000 A 
ATOM      5  N   UNL     1       5.441   3.745  16.292  0.00  0.00    +0.000 NA
ATOM      6  O   UNL     1       6.511   3.890  15.424  0.00  0.00    +0.000 OA
ATOM      7  N   UNL     1       7.262   5.008  15.734  0.00  0.00    +0.000 NA
ATOM      8  C   UNL     1       6.655   5.580  16.787  0.00  0.00    +0.000 A 
ATOM      9  H   UNL     1       3.851   4.205  18.078  0.00  0.00    +0.000 HD
ENDROOT
BRANCH   8  10
ATOM     10  C   UNL     1       7.308   6.679  17.502  0.00  0.00    +0.000 A 
ATOM     11  C   UNL     1       7.350   7.970  16.937  0.00  0.00    +0.000 A 
ATOM     12  C   UNL     1       8.039   9.009  17.570  0.00  0.00    +0.000 A 
ATOM     13  C   UNL     1       8.700   8.776  18.774  0.00  0.00    +0.000 A 
ATOM     14  C   UNL     1       8.680   7.502  19.337  0.00  0.00    +0.000 A 
ATOM     15  C   UNL     1       8.000   6.458  18.702  0.00  0.00    +0.000 A 
ENDBRANCH   8  10
BRANCH   2  16
ATOM     16  C   UNL     1       2.847   6.271  19.371  0.00  0.00    +0.000 C 
BRANCH  16  17
ATOM     17  C   UNL     1       1.992   7.544  19.423  0.00  0.00    +0.000 A 
ATOM     18  C   UNL     1       1.473   8.074  20.616  0.00  0.00    +0.000 A 
ATOM     19  C   UNL     1       0.828   9.313  20.640  0.00  0.00    +0.000 A 
ATOM     20  C   UNL     1       0.660  10.036  19.466  0.00  0.00    +0.000 A 
ATOM     21  C   UNL     1       1.111   9.505  18.261  0.00  0.00    +0.000 A 
ATOM     22  C   UNL     1       1.765   8.269  18.238  0.00  0.00    +0.000 A 
ENDBRANCH  16  17
BRANCH  16  23
ATOM     23  C   UNL     1       2.058   4.964  19.534  0.00  0.00    +0.000 A 
ATOM     24  C   UNL     1       1.576   4.312  18.385  0.00  0.00    +0.000 A 
ATOM     25  C   UNL     1       0.925   3.080  18.477  0.00  0.00    +0.000 A 
ATOM     26  C   UNL     1       0.752   2.470  19.716  0.00  0.00    +0.000 A 
ATOM     27  C   UNL     1       1.207   3.102  20.866  0.00  0.00    +0.000 A 
ATOM     28  C   UNL     1       1.837   4.345  20.777  0.00  0.00    +0.000 A 
ENDBRANCH  16  23
ENDBRANCH   2  16
TORSDOF 4
ENDMDL
MODEL 7
REMARK VINA RESULT:      -8.2      3.352      7.361
REMARK  Name = 
REMARK  4 active torsions:
REMARK  status: ('A' for Active; 'I' for Inactive)
REMARK    1  A    between atoms: C_2  and  C_15
REMARK    2  A    between atoms: C_8  and  C_9
REMARK    3  A    between atoms: C_15  and  C_16
REMARK    4  A    between atoms: C_15  and  C_22
REMARK                            x       y       z     vdW  Elec       q    Type
REMARK                         _______ _______ _______ _____ _____    ______ ____
ROOT
ATOM      1  O   UNL     1       2.483   8.949  18.572  0.00  0.00    +0.000 OA
ATOM      2  C   UNL     1       2.254   7.850  19.077  0.00  0.00    +0.000 C 
ATOM      3  N   UNL     1       1.718   7.694  20.335  0.00  0.00    +0.000 N 
ATOM      4  C   UNL     1       1.282   8.765  21.094  0.00  0.00    +0.000 A 
ATOM      5  N   UNL     1       1.525   8.749  22.407  0.00  0.00    +0.000 NA
ATOM      6  O   UNL     1       1.064   9.968  22.874  0.00  0.00    +0.000 OA
ATOM      7  N   UNL     1       0.437  10.686  21.873  0.00  0.00    +0.000 NA
ATOM      8  C   UNL     1       0.520   9.927  20.768  0.00  0.00    +0.000 A 
ATOM      9  H   UNL     1       2.068   6.925  20.888  0.00  0.00    +0.000 HD
ENDROOT
BRANCH   8  10
ATOM     10  C   UNL     1      -0.226  10.299  19.564  0.00  0.00    +0.000 A 
ATOM     11  C   UNL     1      -0.209  11.630  19.098  0.00  0.00    +0.000 A 
ATOM     12  C   UNL     1      -0.981  12.017  17.998  0.00  0.00    +0.000 A 
ATOM     13  C   UNL     1      -1.785  11.083  17.348  0.00  0.00    +0.000 A 
ATOM     14  C   UNL     1      -1.824   9.768  17.804  0.00  0.00    +0.000 A 
ATOM     15  C   UNL     1      -1.061   9.380  18.910  0.00  0.00    +0.000 A 
ENDBRANCH   8  10
BRANCH   2  16
ATOM     16  C   UNL     1       2.598   6.549  18.333  0.00  0.00    +0.000 C 
BRANCH  16  17
ATOM     17  C   UNL     1       4.085   6.365  18.003  0.00  0.00    +0.000 A 
ATOM     18  C   UNL     1       4.699   6.929  16.873  0.00  0.00    +0.000 A 
ATOM     19  C   UNL     1       6.082   6.864  16.688  0.00  0.00    +0.000 A 
ATOM     20  C   UNL     1       6.880   6.206  17.616  0.00  0.00    +0.000 A 
ATOM     21  C   UNL     1       6.290   5.586  18.713  0.00  0.00    +0.000 A 
ATOM     22  C   UNL     1       4.906   5.659  18.903  0.00  0.00    +0.000 A 
ENDBRANCH  16  17
BRANCH  16  23
ATOM     23  C   UNL     1       1.909   5.298  18.898  0.00  0.00    +0.000 A 
ATOM     24  C   UNL     1       1.520   4.277  18.013  0.00  0.00    +0.000 A 
ATOM     25  C   UNL     1       0.967   3.086  18.487  0.00  0.00    +0.000 A 
ATOM     26  C   UNL     1       0.802   2.887  19.853  0.00  0.00    +0.000 A 
ATOM     27  C   UNL     1       1.165   3.887  20.747  0.00  0.00    +0.000 A 
ATOM     28  C   UNL     1       1.697   5.086  20.271  0.00  0.00    +0.000 A 
ENDBRANCH  16  23
ENDBRANCH   2  16
TORSDOF 4
ENDMDL
MODEL 8
REMARK VINA RESULT:      -7.8      2.193      6.166
REMARK  Name = 
REMARK  4 active torsions:
REMARK  status: ('A' for Active; 'I' for Inactive)
REMARK    1  A    between atoms: C_2  and  C_15
REMARK    2  A    between atoms: C_8  and  C_9
REMARK    3  A    between atoms: C_15  and  C_16
REMARK    4  A    between atoms: C_15  and  C_22
REMARK                            x       y       z     vdW  Elec       q    Type
REMARK                         _______ _______ _______ _____ _____    ______ ____
ROOT
ATOM      1  O   UNL     1       5.344   4.810  19.491  0.00  0.00    +0.000 OA
ATOM      2  C   UNL     1       5.489   4.409  18.336  0.00  0.00    +0.000 C 
ATOM      3  N   UNL     1       4.635   3.512  17.735  0.00  0.00    +0.000 N 
ATOM      4  C   UNL     1       3.471   3.075  18.341  0.00  0.00    +0.000 A 
ATOM      5  N   UNL     1       3.131   1.791  18.204  0.00  0.00    +0.000 NA
ATOM      6  O   UNL     1       1.995   1.635  18.980  0.00  0.00    +0.000 OA
ATOM      7  N   UNL     1       1.572   2.842  19.503  0.00  0.00    +0.000 NA
ATOM      8  C   UNL     1       2.454   3.759  19.072  0.00  0.00    +0.000 A 
ATOM      9  H   UNL     1       5.051   2.826  17.121  0.00  0.00    +0.000 HD
ENDROOT
BRANCH   8  10
ATOM     10  C   UNL     1       2.188   5.185  19.276  0.00  0.00    +0.000 A 
ATOM     11  C   UNL     1       2.414   6.108  18.235  0.00  0.00    +0.000 A 
ATOM     12  C   UNL     1       2.243   7.480  18.441  0.00  0.00    +0.000 A 
ATOM     13  C   UNL     1       1.846   7.953  19.690  0.00  0.00    +0.000 A 
ATOM     14  C   UNL     1       1.632   7.056  20.733  0.00  0.00    +0.000 A 
ATOM     15  C   UNL     1       1.813   5.683  20.534  0.00  0.00    +0.000 A 
ENDBRANCH   8  10
BRANCH   2  16
ATOM     16  C   UNL     1       6.687   4.862  17.484  0.00  0.00    +0.000 C 
BRANCH  16  17
ATOM     17  C   UNL     1       6.579   4.537  15.989  0.00  0.00    +0.000 A 
ATOM     18  C   UNL     1       5.472   3.886  15.420  0.00  0.00    +0.000 A 
ATOM     19  C   UNL     1       5.345   3.743  14.036  0.00  0.00    +0.000 A 
ATOM     20  C   UNL     1       6.338   4.222  13.190  0.00  0.00    +0.000 A 
ATOM     21  C   UNL     1       7.473   4.817  13.731  0.00  0.00    +0.000 A 
ATOM     22  C   UNL     1       7.596   4.968  15.117  0.00  0.00    +0.000 A 
ENDBRANCH  16  17
BRANCH  16  23
ATOM     23  C   UNL     1       7.180   6.283  17.795  0.00  0.00    +0.000 A 
ATOM     24  C   UNL     1       8.151   6.462  18.797  0.00  0.00    +0.000 A 
ATOM     25  C   UNL     1       8.690   7.724  19.057  0.00  0.00    +0.000 A 
ATOM     26  C   UNL     1       8.280   8.827  18.316  0.00  0.00    +0.000 A 
ATOM     27  C   UNL     1       7.311   8.677  17.332  0.00  0.00    +0.000 A 
ATOM     28  C   UNL     1       6.755   7.420  17.086  0.00  0.00    +0.000 A 
ENDBRANCH  16  23
ENDBRANCH   2  16
TORSDOF 4
ENDMDL
MODEL 9
REMARK VINA RESULT:      -7.7      3.322      7.378
REMARK  Name = 
REMARK  4 active torsions:
REMARK  status: ('A' for Active; 'I' for Inactive)
REMARK    1  A    between atoms: C_2  and  C_15
REMARK    2  A    between atoms: C_8  and  C_9
REMARK    3  A    between atoms: C_15  and  C_16
REMARK    4  A    between atoms: C_15  and  C_22
REMARK                            x       y       z     vdW  Elec       q    Type
REMARK                         _______ _______ _______ _____ _____    ______ ____
ROOT
ATOM      1  O   UNL     1       2.491   9.022  18.429  0.00  0.00    +0.000 OA
ATOM      2  C   UNL     1       2.272   7.915  18.922  0.00  0.00    +0.000 C 
ATOM      3  N   UNL     1       1.741   7.740  20.180  0.00  0.00    +0.000 N 
ATOM      4  C   UNL     1       1.299   8.799  20.952  0.00  0.00    +0.000 A 
ATOM      5  N   UNL     1       1.545   8.770  22.264  0.00  0.00    +0.000 NA
ATOM      6  O   UNL     1       1.075   9.980  22.746  0.00  0.00    +0.000 OA
ATOM      7  N   UNL     1       0.440  10.704  21.755  0.00  0.00    +0.000 NA
ATOM      8  C   UNL     1       0.526   9.959  20.641  0.00  0.00    +0.000 A 
ATOM      9  H   UNL     1       2.099   6.968  20.723  0.00  0.00    +0.000 HD
ENDROOT
BRANCH   8  10
ATOM     10  C   UNL     1      -0.226  10.339  19.443  0.00  0.00    +0.000 A 
ATOM     11  C   UNL     1      -0.230  11.678  19.000  0.00  0.00    +0.000 A 
ATOM     12  C   UNL     1      -1.009  12.070  17.907  0.00  0.00    +0.000 A 
ATOM     13  C   UNL     1      -1.797  11.134  17.240  0.00  0.00    +0.000 A 
ATOM     14  C   UNL     1      -1.815   9.811  17.675  0.00  0.00    +0.000 A 
ATOM     15  C   UNL     1      -1.046   9.417  18.774  0.00  0.00    +0.000 A 
ENDBRANCH   8  10
BRANCH   2  16
ATOM     16  C   UNL     1       2.625   6.626  18.163  0.00  0.00    +0.000 C 
BRANCH  16  17
ATOM     17  C   UNL     1       4.094   6.504  17.739  0.00  0.00    +0.000 A 
ATOM     18  C   UNL     1       5.102   6.015  18.586  0.00  0.00    +0.000 A 
ATOM     19  C   UNL     1       6.396   5.779  18.115  0.00  0.00    +0.000 A 
ATOM     20  C   UNL     1       6.719   6.054  16.793  0.00  0.00    +0.000 A 
ATOM     21  C   UNL     1       5.756   6.596  15.948  0.00  0.00    +0.000 A 
ATOM     22  C   UNL     1       4.457   6.825  16.417  0.00  0.00    +0.000 A 
ENDBRANCH  16  17
BRANCH  16  23
ATOM     23  C   UNL     1       2.029   5.350  18.775  0.00  0.00    +0.000 A 
ATOM     24  C   UNL     1       1.953   5.238  20.175  0.00  0.00    +0.000 A 
ATOM     25  C   UNL     1       1.345   4.135  20.777  0.00  0.00    +0.000 A 
ATOM     26  C   UNL     1       0.792   3.127  19.993  0.00  0.00    +0.000 A 
ATOM     27  C   UNL     1       0.869   3.208  18.608  0.00  0.00    +0.000 A 
ATOM     28  C   UNL     1       1.496   4.300  18.007  0.00  0.00    +0.000 A 
ENDBRANCH  16  23
ENDBRANCH   2  16
TORSDOF 4
ENDMDL
