MODEL 1
REMARK VINA RESULT:      -8.6      0.000      0.000
REMARK  Name = 
REMARK  3 active torsions:
REMARK  status: ('A' for Active; 'I' for Inactive)
REMARK    1  A    between atoms: C_1  and  C_2
REMARK    2  A    between atoms: C_3  and  C_4
REMARK    3  A    between atoms: N_6  and  C_7
REMARK                            x       y       z     vdW  Elec       q    Type
REMARK                         _______ _______ _______ _____ _____    ______ ____
ROOT
ATOM      1  C   UNL     1       1.933   8.629  18.422  0.00  0.00    +0.000 C 
ATOM      2  O   UNL     1       1.980   9.029  17.261  0.00  0.00    +0.000 OA
ATOM      3  N   UNL     1       2.483   7.429  18.860  0.00  0.00    +0.000 N 
ATOM      4  H   UNL     1       2.248   7.172  19.812  0.00  0.00    +0.000 HD
ENDROOT
BRANCH   3   5
ATOM      5  C   UNL     1       3.241   6.517  18.091  0.00  0.00    +0.000 A 
ATOM      6  C   UNL     1       2.875   5.155  17.953  0.00  0.00    +0.000 A 
ATOM      7  C   UNL     1       3.639   4.251  17.205  0.00  0.00    +0.000 A 
ATOM      8  C   UNL     1       4.765   4.747  16.605  0.00  0.00    +0.000 A 
ATOM      9  N   UNL     1       5.712   4.092  15.829  0.00  0.00    +0.000 N 
ATOM     10  C   UNL     1       6.694   5.016  15.449  0.00  0.00    +0.000 A 
ATOM     11  O   UNL     1       7.682   4.788  14.773  0.00  0.00    +0.000 OA
ATOM     12  N   UNL     1       6.321   6.251  16.002  0.00  0.00    +0.000 N 
ATOM     13  C   UNL     1       5.135   6.084  16.714  0.00  0.00    +0.000 A 
ATOM     14  C   UNL     1       4.391   6.998  17.435  0.00  0.00    +0.000 A 
ATOM     15  H   UNL     1       5.726   3.118  15.577  0.00  0.00    +0.000 HD
ATOM     16  H   UNL     1       6.862   7.092  15.892  0.00  0.00    +0.000 HD
ENDBRANCH   3   5
BRANCH   1  19
ATOM     17  C   UNL     1       1.300  11.847  18.667  0.00  0.00    +0.000 C 
ATOM     18  C   UNL     1       0.965  10.734  19.594  0.00  0.00    +0.000 A 
ATOM     19  C   UNL     1       1.244   9.377  19.463  0.00  0.00    +0.000 A 
ATOM     20  O   UNL     1       0.748   8.692  20.544  0.00  0.00    +0.000 OA
ATOM     21  C   UNL     1       0.157   9.601  21.365  0.00  0.00    +0.000 A 
ATOM     22  C   UNL     1      -0.474   9.312  22.572  0.00  0.00    +0.000 A 
ATOM     23  C   UNL     1      -1.037  10.394  23.259  0.00  0.00    +0.000 A 
ATOM     24  C   UNL     1      -0.958  11.694  22.750  0.00  0.00    +0.000 A 
ATOM     25  C   UNL     1      -0.308  11.952  21.536  0.00  0.00    +0.000 A 
ATOM     26  C   UNL     1       0.259  10.877  20.827  0.00  0.00    +0.000 A 
ENDBRANCH   1  19
TORSDOF 2
ENDMDL
MODEL 2
REMARK VINA RESULT:      -8.1      1.197      1.263
REMARK  Name = 
REMARK  3 active torsions:
REMARK  status: ('A' for Active; 'I' for Inactive)
REMARK    1  A    between atoms: C_1  and  C_2
REMARK    2  A    between atoms: C_3  and  C_4
REMARK    3  A    between atoms: N_6  and  C_7
REMARK                            x       y       z     vdW  Elec       q    Type
REMARK                         _______ _______ _______ _____ _____    ______ ____
ROOT
ATOM      1  C   UNL     1       1.902   7.370  20.029  0.00  0.00    +0.000 C 
ATOM      2  O   UNL     1       2.127   6.405  20.755  0.00  0.00    +0.000 OA
ATOM      3  N   UNL     1       2.409   7.517  18.742  0.00  0.00    +0.000 N 
ATOM      4  H   UNL     1       2.248   8.425  18.319  0.00  0.00    +0.000 HD
ENDROOT
BRANCH   3   5
ATOM      5  C   UNL     1       3.187   6.578  18.027  0.00  0.00    +0.000 A 
ATOM      6  C   UNL     1       2.837   5.207  17.948  0.00  0.00    +0.000 A 
ATOM      7  C   UNL     1       3.620   4.277  17.254  0.00  0.00    +0.000 A 
ATOM      8  C   UNL     1       4.749   4.757  16.646  0.00  0.00    +0.000 A 
ATOM      9  N   UNL     1       5.713   4.078  15.913  0.00  0.00    +0.000 N 
ATOM     10  C   UNL     1       6.690   4.994  15.502  0.00  0.00    +0.000 A 
ATOM     11  O   UNL     1       7.689   4.746  14.850  0.00  0.00    +0.000 OA
ATOM     12  N   UNL     1       6.296   6.249  15.992  0.00  0.00    +0.000 N 
ATOM     13  C   UNL     1       5.102   6.103  16.695  0.00  0.00    +0.000 A 
ATOM     14  C   UNL     1       4.339   7.040  17.363  0.00  0.00    +0.000 A 
ATOM     15  H   UNL     1       5.741   3.093  15.708  0.00  0.00    +0.000 HD
ATOM     16  H   UNL     1       6.829   7.091  15.849  0.00  0.00    +0.000 HD
ENDBRANCH   3   5
BRANCH   1  19
ATOM     17  C   UNL     1       0.806   9.995  18.378  0.00  0.00    +0.000 C 
ATOM     18  C   UNL     1       0.621   9.617  19.804  0.00  0.00    +0.000 A 
ATOM     19  C   UNL     1       1.094   8.495  20.477  0.00  0.00    +0.000 A 
ATOM     20  O   UNL     1       0.685   8.528  21.787  0.00  0.00    +0.000 OA
ATOM     21  C   UNL     1      -0.045   9.663  21.955  0.00  0.00    +0.000 A 
ATOM     22  C   UNL     1      -0.647  10.069  23.144  0.00  0.00    +0.000 A 
ATOM     23  C   UNL     1      -1.372  11.266  23.101  0.00  0.00    +0.000 A 
ATOM     24  C   UNL     1      -1.473  12.008  21.920  0.00  0.00    +0.000 A 
ATOM     25  C   UNL     1      -0.847  11.576  20.744  0.00  0.00    +0.000 A 
ATOM     26  C   UNL     1      -0.119  10.372  20.765  0.00  0.00    +0.000 A 
ENDBRANCH   1  19
TORSDOF 2
ENDMDL
MODEL 3
REMARK VINA RESULT:      -8.1      2.944      8.588
REMARK  Name = 
REMARK  3 active torsions:
REMARK  status: ('A' for Active; 'I' for Inactive)
REMARK    1  A    between atoms: C_1  and  C_2
REMARK    2  A    between atoms: C_3  and  C_4
REMARK    3  A    between atoms: N_6  and  C_7
REMARK                            x       y       z     vdW  Elec       q    Type
REMARK                         _______ _______ _______ _____ _____    ______ ____
ROOT
ATOM      1  C   UNL     1       2.273   7.797  18.677  0.00  0.00    +0.000 C 
ATOM      2  O   UNL     1       2.041   7.750  19.883  0.00  0.00    +0.000 OA
ATOM      3  N   UNL     1       1.676   8.695  17.799  0.00  0.00    +0.000 N 
ATOM      4  H   UNL     1       1.864   8.524  16.817  0.00  0.00    +0.000 HD
ENDROOT
BRANCH   3   5
ATOM      5  C   UNL     1       0.780   9.736  18.134  0.00  0.00    +0.000 A 
ATOM      6  C   UNL     1       1.217  10.961  18.694  0.00  0.00    +0.000 A 
ATOM      7  C   UNL     1       0.324  11.982  19.041  0.00  0.00    +0.000 A 
ATOM      8  C   UNL     1      -1.004  11.743  18.808  0.00  0.00    +0.000 A 
ATOM      9  N   UNL     1      -2.104  12.550  19.063  0.00  0.00    +0.000 N 
ATOM     10  C   UNL     1      -3.261  11.868  18.666  0.00  0.00    +0.000 A 
ATOM     11  O   UNL     1      -4.407  12.271  18.753  0.00  0.00    +0.000 OA
ATOM     12  N   UNL     1      -2.843  10.629  18.154  0.00  0.00    +0.000 N 
ATOM     13  C   UNL     1      -1.454  10.553  18.242  0.00  0.00    +0.000 A 
ATOM     14  C   UNL     1      -0.591   9.537  17.881  0.00  0.00    +0.000 A 
ATOM     15  H   UNL     1      -2.104  13.468  19.476  0.00  0.00    +0.000 HD
ATOM     16  H   UNL     1      -3.478   9.932  17.805  0.00  0.00    +0.000 HD
ENDBRANCH   3   5
BRANCH   1  19
ATOM     17  C   UNL     1       1.919   4.603  17.978  0.00  0.00    +0.000 C 
ATOM     18  C   UNL     1       3.068   5.513  17.731  0.00  0.00    +0.000 A 
ATOM     19  C   UNL     1       3.190   6.866  18.036  0.00  0.00    +0.000 A 
ATOM     20  O   UNL     1       4.416   7.329  17.627  0.00  0.00    +0.000 OA
ATOM     21  C   UNL     1       5.078   6.282  17.065  0.00  0.00    +0.000 A 
ATOM     22  C   UNL     1       6.359   6.333  16.520  0.00  0.00    +0.000 A 
ATOM     23  C   UNL     1       6.854   5.143  15.974  0.00  0.00    +0.000 A 
ATOM     24  C   UNL     1       6.094   3.969  15.987  0.00  0.00    +0.000 A 
ATOM     25  C   UNL     1       4.812   3.950  16.552  0.00  0.00    +0.000 A 
ATOM     26  C   UNL     1       4.294   5.137  17.101  0.00  0.00    +0.000 A 
ENDBRANCH   1  19
TORSDOF 2
ENDMDL
MODEL 4
REMARK VINA RESULT:      -8.0      1.024      1.696
REMARK  Name = 
REMARK  3 active torsions:
REMARK  status: ('A' for Active; 'I' for Inactive)
REMARK    1  A    between atoms: C_1  and  C_2
REMARK    2  A    between atoms: C_3  and  C_4
REMARK    3  A    between atoms: N_6  and  C_7
REMARK                            x       y       z     vdW  Elec       q    Type
REMARK                         _______ _______ _______ _____ _____    ______ ____
ROOT
ATOM      1  C   UNL     1       1.642   8.945  18.528  0.00  0.00    +0.000 C 
ATOM      2  O   UNL     1       1.892   9.434  17.428  0.00  0.00    +0.000 OA
ATOM      3  N   UNL     1       2.061   7.685  18.939  0.00  0.00    +0.000 N 
ATOM      4  H   UNL     1       1.665   7.365  19.817  0.00  0.00    +0.000 HD
ENDROOT
BRANCH   3   5
ATOM      5  C   UNL     1       2.892   6.794  18.221  0.00  0.00    +0.000 A 
ATOM      6  C   UNL     1       2.595   5.414  18.097  0.00  0.00    +0.000 A 
ATOM      7  C   UNL     1       3.430   4.533  17.400  0.00  0.00    +0.000 A 
ATOM      8  C   UNL     1       4.555   5.070  16.834  0.00  0.00    +0.000 A 
ATOM      9  N   UNL     1       5.562   4.446  16.109  0.00  0.00    +0.000 N 
ATOM     10  C   UNL     1       6.515   5.408  15.749  0.00  0.00    +0.000 A 
ATOM     11  O   UNL     1       7.538   5.214  15.117  0.00  0.00    +0.000 OA
ATOM     12  N   UNL     1       6.062   6.634  16.260  0.00  0.00    +0.000 N 
ATOM     13  C   UNL     1       4.857   6.426  16.928  0.00  0.00    +0.000 A 
ATOM     14  C   UNL     1       4.042   7.316  17.600  0.00  0.00    +0.000 A 
ATOM     15  H   UNL     1       5.632   3.469  15.880  0.00  0.00    +0.000 HD
ATOM     16  H   UNL     1       6.566   7.498  16.153  0.00  0.00    +0.000 HD
ENDBRANCH   3   5
BRANCH   1  19
ATOM     17  C   UNL     1       1.453   8.572  21.790  0.00  0.00    +0.000 C 
ATOM     18  C   UNL     1       0.725   9.507  20.892  0.00  0.00    +0.000 A 
ATOM     19  C   UNL     1       0.828   9.646  19.511  0.00  0.00    +0.000 A 
ATOM     20  O   UNL     1      -0.016  10.637  19.076  0.00  0.00    +0.000 OA
ATOM     21  C   UNL     1      -0.657  11.132  20.169  0.00  0.00    +0.000 A 
ATOM     22  C   UNL     1      -1.599  12.158  20.160  0.00  0.00    +0.000 A 
ATOM     23  C   UNL     1      -2.130  12.531  21.400  0.00  0.00    +0.000 A 
ATOM     24  C   UNL     1      -1.731  11.894  22.579  0.00  0.00    +0.000 A 
ATOM     25  C   UNL     1      -0.788  10.859  22.553  0.00  0.00    +0.000 A 
ATOM     26  C   UNL     1      -0.238  10.473  21.316  0.00  0.00    +0.000 A 
ENDBRANCH   1  19
TORSDOF 2
ENDMDL
MODEL 5
REMARK VINA RESULT:      -7.9      3.020      8.428
REMARK  Name = 
REMARK  3 active torsions:
REMARK  status: ('A' for Active; 'I' for Inactive)
REMARK    1  A    between atoms: C_1  and  C_2
REMARK    2  A    between atoms: C_3  and  C_4
REMARK    3  A    between atoms: N_6  and  C_7
REMARK                            x       y       z     vdW  Elec       q    Type
REMARK                         _______ _______ _______ _____ _____    ______ ____
ROOT
ATOM      1  C   UNL     1       2.112   7.985  18.752  0.00  0.00    +0.000 C 
ATOM      2  O   UNL     1       1.876   7.967  19.958  0.00  0.00    +0.000 OA
ATOM      3  N   UNL     1       1.602   8.930  17.868  0.00  0.00    +0.000 N 
ATOM      4  H   UNL     1       1.774   8.736  16.887  0.00  0.00    +0.000 HD
ENDROOT
BRANCH   3   5
ATOM      5  C   UNL     1       0.809  10.053  18.195  0.00  0.00    +0.000 A 
ATOM      6  C   UNL     1      -0.607  10.018  18.156  0.00  0.00    +0.000 A 
ATOM      7  C   UNL     1      -1.388  11.138  18.464  0.00  0.00    +0.000 A 
ATOM      8  C   UNL     1      -0.716  12.279  18.811  0.00  0.00    +0.000 A 
ATOM      9  N   UNL     1      -1.217  13.531  19.145  0.00  0.00    +0.000 N 
ATOM     10  C   UNL     1      -0.140  14.386  19.412  0.00  0.00    +0.000 A 
ATOM     11  O   UNL     1      -0.207  15.561  19.725  0.00  0.00    +0.000 OA
ATOM     12  N   UNL     1       1.029  13.627  19.243  0.00  0.00    +0.000 N 
ATOM     13  C   UNL     1       0.673  12.331  18.873  0.00  0.00    +0.000 A 
ATOM     14  C   UNL     1       1.465  11.236  18.586  0.00  0.00    +0.000 A 
ATOM     15  H   UNL     1      -2.183  13.811  19.183  0.00  0.00    +0.000 HD
ATOM     16  H   UNL     1       1.954  14.002  19.363  0.00  0.00    +0.000 HD
ENDBRANCH   3   5
BRANCH   1  19
ATOM     17  C   UNL     1       1.827   4.708  18.756  0.00  0.00    +0.000 C 
ATOM     18  C   UNL     1       2.842   5.579  18.105  0.00  0.00    +0.000 A 
ATOM     19  C   UNL     1       2.936   6.967  18.118  0.00  0.00    +0.000 A 
ATOM     20  O   UNL     1       4.022   7.369  17.380  0.00  0.00    +0.000 OA
ATOM     21  C   UNL     1       4.621   6.247  16.897  0.00  0.00    +0.000 A 
ATOM     22  C   UNL     1       5.759   6.219  16.093  0.00  0.00    +0.000 A 
ATOM     23  C   UNL     1       6.208   4.957  15.688  0.00  0.00    +0.000 A 
ATOM     24  C   UNL     1       5.542   3.792  16.081  0.00  0.00    +0.000 A 
ATOM     25  C   UNL     1       4.406   3.854  16.898  0.00  0.00    +0.000 A 
ATOM     26  C   UNL     1       3.935   5.115  17.312  0.00  0.00    +0.000 A 
ENDBRANCH   1  19
TORSDOF 2
ENDMDL
MODEL 6
REMARK VINA RESULT:      -7.9      2.372      2.822
REMARK  Name = 
REMARK  3 active torsions:
REMARK  status: ('A' for Active; 'I' for Inactive)
REMARK    1  A    between atoms: C_1  and  C_2
REMARK    2  A    between atoms: C_3  and  C_4
REMARK    3  A    between atoms: N_6  and  C_7
REMARK                            x       y       z     vdW  Elec       q    Type
REMARK                         _______ _______ _______ _____ _____    ______ ____
ROOT
ATOM      1  C   UNL     1       1.878   8.957  18.050  0.00  0.00    +0.000 C 
ATOM      2  O   UNL     1       2.854   9.511  17.551  0.00  0.00    +0.000 OA
ATOM      3  N   UNL     1       1.867   7.641  18.497  0.00  0.00    +0.000 N 
ATOM      4  H   UNL     1       0.954   7.283  18.758  0.00  0.00    +0.000 HD
ENDROOT
BRANCH   3   5
ATOM      5  C   UNL     1       2.964   6.750  18.530  0.00  0.00    +0.000 A 
ATOM      6  C   UNL     1       3.142   5.805  19.570  0.00  0.00    +0.000 A 
ATOM      7  C   UNL     1       4.240   4.937  19.608  0.00  0.00    +0.000 A 
ATOM      8  C   UNL     1       5.141   5.042  18.583  0.00  0.00    +0.000 A 
ATOM      9  N   UNL     1       6.318   4.336  18.367  0.00  0.00    +0.000 N 
ATOM     10  C   UNL     1       6.911   4.806  17.187  0.00  0.00    +0.000 A 
ATOM     11  O   UNL     1       7.958   4.421  16.699  0.00  0.00    +0.000 OA
ATOM     12  N   UNL     1       6.065   5.806  16.682  0.00  0.00    +0.000 N 
ATOM     13  C   UNL     1       4.977   5.951  17.541  0.00  0.00    +0.000 A 
ATOM     14  C   UNL     1       3.896   6.808  17.476  0.00  0.00    +0.000 A 
ATOM     15  H   UNL     1       6.712   3.616  18.949  0.00  0.00    +0.000 HD
ATOM     16  H   UNL     1       6.260   6.322  15.841  0.00  0.00    +0.000 HD
ENDBRANCH   3   5
BRANCH   1  19
ATOM     17  C   UNL     1       0.911  11.272  20.177  0.00  0.00    +0.000 C 
ATOM     18  C   UNL     1       0.160  10.614  19.075  0.00  0.00    +0.000 A 
ATOM     19  C   UNL     1       0.597   9.637  18.185  0.00  0.00    +0.000 A 
ATOM     20  O   UNL     1      -0.414   9.311  17.316  0.00  0.00    +0.000 OA
ATOM     21  C   UNL     1      -1.492  10.072  17.644  0.00  0.00    +0.000 A 
ATOM     22  C   UNL     1      -2.726  10.049  16.998  0.00  0.00    +0.000 A 
ATOM     23  C   UNL     1      -3.703  10.926  17.482  0.00  0.00    +0.000 A 
ATOM     24  C   UNL     1      -3.441  11.774  18.563  0.00  0.00    +0.000 A 
ATOM     25  C   UNL     1      -2.192  11.767  19.197  0.00  0.00    +0.000 A 
ATOM     26  C   UNL     1      -1.194  10.896  18.720  0.00  0.00    +0.000 A 
ENDBRANCH   1  19
TORSDOF 2
ENDMDL
MODEL 7
REMARK VINA RESULT:      -7.9      1.398      1.594
REMARK  Name = 
REMARK  3 active torsions:
REMARK  status: ('A' for Active; 'I' for Inactive)
REMARK    1  A    between atoms: C_1  and  C_2
REMARK    2  A    between atoms: C_3  and  C_4
REMARK    3  A    between atoms: N_6  and  C_7
REMARK                            x       y       z     vdW  Elec       q    Type
REMARK                         _______ _______ _______ _____ _____    ______ ____
ROOT
ATOM      1  C   UNL     1       1.684   8.911  18.185  0.00  0.00    +0.000 C 
ATOM      2  O   UNL     1       2.193   9.274  17.127  0.00  0.00    +0.000 OA
ATOM      3  N   UNL     1       1.898   7.668  18.772  0.00  0.00    +0.000 N 
ATOM      4  H   UNL     1       1.306   7.463  19.570  0.00  0.00    +0.000 HD
ENDROOT
BRANCH   3   5
ATOM      5  C   UNL     1       2.773   6.657  18.315  0.00  0.00    +0.000 A 
ATOM      6  C   UNL     1       2.332   5.337  18.046  0.00  0.00    +0.000 A 
ATOM      7  C   UNL     1       3.207   4.334  17.611  0.00  0.00    +0.000 A 
ATOM      8  C   UNL     1       4.519   4.690  17.452  0.00  0.00    +0.000 A 
ATOM      9  N   UNL     1       5.601   3.915  17.056  0.00  0.00    +0.000 N 
ATOM     10  C   UNL     1       6.750   4.718  17.055  0.00  0.00    +0.000 A 
ATOM     11  O   UNL     1       7.880   4.366  16.771  0.00  0.00    +0.000 OA
ATOM     12  N   UNL     1       6.343   6.002  17.449  0.00  0.00    +0.000 N 
ATOM     13  C   UNL     1       4.971   5.984  17.694  0.00  0.00    +0.000 A 
ATOM     14  C   UNL     1       4.125   6.993  18.112  0.00  0.00    +0.000 A 
ATOM     15  H   UNL     1       5.596   2.937  16.819  0.00  0.00    +0.000 HD
ATOM     16  H   UNL     1       6.976   6.778  17.544  0.00  0.00    +0.000 HD
ENDBRANCH   3   5
BRANCH   1  19
ATOM     17  C   UNL     1      -1.292  10.030  17.345  0.00  0.00    +0.000 C 
ATOM     18  C   UNL     1      -0.505  10.248  18.588  0.00  0.00    +0.000 A 
ATOM     19  C   UNL     1       0.755   9.758  18.918  0.00  0.00    +0.000 A 
ATOM     20  O   UNL     1       1.112  10.193  20.170  0.00  0.00    +0.000 OA
ATOM     21  C   UNL     1       0.090  10.957  20.641  0.00  0.00    +0.000 A 
ATOM     22  C   UNL     1       0.055  11.586  21.883  0.00  0.00    +0.000 A 
ATOM     23  C   UNL     1      -1.102  12.316  22.183  0.00  0.00    +0.000 A 
ATOM     24  C   UNL     1      -2.158  12.405  21.270  0.00  0.00    +0.000 A 
ATOM     25  C   UNL     1      -2.087  11.768  20.025  0.00  0.00    +0.000 A 
ATOM     26  C   UNL     1      -0.935  11.024  19.707  0.00  0.00    +0.000 A 
ENDBRANCH   1  19
TORSDOF 2
ENDMDL
MODEL 8
REMARK VINA RESULT:      -7.9      2.627      8.604
REMARK  Name = 
REMARK  3 active torsions:
REMARK  status: ('A' for Active; 'I' for Inactive)
REMARK    1  A    between atoms: C_1  and  C_2
REMARK    2  A    between atoms: C_3  and  C_4
REMARK    3  A    between atoms: N_6  and  C_7
REMARK                            x       y       z     vdW  Elec       q    Type
REMARK                         _______ _______ _______ _____ _____    ______ ____
ROOT
ATOM      1  C   UNL     1       2.224   6.579  19.792  0.00  0.00    +0.000 C 
ATOM      2  O   UNL     1       1.684   5.880  20.646  0.00  0.00    +0.000 OA
ATOM      3  N   UNL     1       2.015   7.946  19.651  0.00  0.00    +0.000 N 
ATOM      4  H   UNL     1       2.423   8.360  18.820  0.00  0.00    +0.000 HD
ENDROOT
BRANCH   3   5
ATOM      5  C   UNL     1       1.230   8.772  20.488  0.00  0.00    +0.000 A 
ATOM      6  C   UNL     1       1.223   8.634  21.899  0.00  0.00    +0.000 A 
ATOM      7  C   UNL     1       0.429   9.442  22.722  0.00  0.00    +0.000 A 
ATOM      8  C   UNL     1      -0.344  10.383  22.097  0.00  0.00    +0.000 A 
ATOM      9  N   UNL     1      -1.231  11.300  22.645  0.00  0.00    +0.000 N 
ATOM     10  C   UNL     1      -1.802  12.046  21.605  0.00  0.00    +0.000 A 
ATOM     11  O   UNL     1      -2.630  12.932  21.718  0.00  0.00    +0.000 OA
ATOM     12  N   UNL     1      -1.236  11.571  20.412  0.00  0.00    +0.000 N 
ATOM     13  C   UNL     1      -0.339  10.548  20.715  0.00  0.00    +0.000 A 
ATOM     14  C   UNL     1       0.444   9.772  19.884  0.00  0.00    +0.000 A 
ATOM     15  H   UNL     1      -1.459  11.422  23.618  0.00  0.00    +0.000 HD
ATOM     16  H   UNL     1      -1.479  11.929  19.504  0.00  0.00    +0.000 HD
ENDBRANCH   3   5
BRANCH   1  19
ATOM     17  C   UNL     1       1.784   4.085  17.692  0.00  0.00    +0.000 C 
ATOM     18  C   UNL     1       2.967   4.962  17.901  0.00  0.00    +0.000 A 
ATOM     19  C   UNL     1       3.124   6.015  18.797  0.00  0.00    +0.000 A 
ATOM     20  O   UNL     1       4.374   6.566  18.655  0.00  0.00    +0.000 OA
ATOM     21  C   UNL     1       5.014   5.873  17.676  0.00  0.00    +0.000 A 
ATOM     22  C   UNL     1       6.308   6.120  17.223  0.00  0.00    +0.000 A 
ATOM     23  C   UNL     1       6.778   5.299  16.191  0.00  0.00    +0.000 A 
ATOM     24  C   UNL     1       5.980   4.283  15.656  0.00  0.00    +0.000 A 
ATOM     25  C   UNL     1       4.686   4.054  16.141  0.00  0.00    +0.000 A 
ATOM     26  C   UNL     1       4.193   4.872  17.174  0.00  0.00    +0.000 A 
ENDBRANCH   1  19
TORSDOF 2
ENDMDL
MODEL 9
REMARK VINA RESULT:      -7.7      2.026      2.634
REMARK  Name = 
REMARK  3 active torsions:
REMARK  status: ('A' for Active; 'I' for Inactive)
REMARK    1  A    between atoms: C_1  and  C_2
REMARK    2  A    between atoms: C_3  and  C_4
REMARK    3  A    between atoms: N_6  and  C_7
REMARK                            x       y       z     vdW  Elec       q    Type
REMARK                         _______ _______ _______ _____ _____    ______ ____
ROOT
ATOM      1  C   UNL     1       1.471   8.898  18.867  0.00  0.00    +0.000 C 
ATOM      2  O   UNL     1       1.357   8.931  17.644  0.00  0.00    +0.000 OA
ATOM      3  N   UNL     1       2.056   7.851  19.571  0.00  0.00    +0.000 N 
ATOM      4  H   UNL     1       1.956   7.903  20.579  0.00  0.00    +0.000 HD
ENDROOT
BRANCH   3   5
ATOM      5  C   UNL     1       2.678   6.706  19.022  0.00  0.00    +0.000 A 
ATOM      6  C   UNL     1       3.594   6.785  17.944  0.00  0.00    +0.000 A 
ATOM      7  C   UNL     1       4.193   5.646  17.392  0.00  0.00    +0.000 A 
ATOM      8  C   UNL     1       3.855   4.442  17.949  0.00  0.00    +0.000 A 
ATOM      9  N   UNL     1       4.270   3.163  17.604  0.00  0.00    +0.000 N 
ATOM     10  C   UNL     1       3.640   2.244  18.454  0.00  0.00    +0.000 A 
ATOM     11  O   UNL     1       3.763   1.033  18.431  0.00  0.00    +0.000 OA
ATOM     12  N   UNL     1       2.839   2.992  19.331  0.00  0.00    +0.000 N 
ATOM     13  C   UNL     1       2.971   4.343  19.020  0.00  0.00    +0.000 A 
ATOM     14  C   UNL     1       2.377   5.453  19.589  0.00  0.00    +0.000 A 
ATOM     15  H   UNL     1       4.903   2.906  16.864  0.00  0.00    +0.000 HD
ATOM     16  H   UNL     1       2.264   2.576  20.045  0.00  0.00    +0.000 HD
ENDBRANCH   3   5
BRANCH   1  19
ATOM     17  C   UNL     1       1.830  12.160  18.646  0.00  0.00    +0.000 C 
ATOM     18  C   UNL     1       1.091  11.345  19.647  0.00  0.00    +0.000 A 
ATOM     19  C   UNL     1       0.953   9.962  19.715  0.00  0.00    +0.000 A 
ATOM     20  O   UNL     1       0.179   9.622  20.796  0.00  0.00    +0.000 OA
ATOM     21  C   UNL     1      -0.177  10.777  21.420  0.00  0.00    +0.000 A 
ATOM     22  C   UNL     1      -0.969  10.870  22.562  0.00  0.00    +0.000 A 
ATOM     23  C   UNL     1      -1.233  12.159  23.037  0.00  0.00    +0.000 A 
ATOM     24  C   UNL     1      -0.717  13.288  22.392  0.00  0.00    +0.000 A 
ATOM     25  C   UNL     1       0.084  13.160  21.250  0.00  0.00    +0.000 A 
ATOM     26  C   UNL     1       0.357  11.871  20.753  0.00  0.00    +0.000 A 
ENDBRANCH   1  19
TORSDOF 2
ENDMDL
