MODEL 1
REMARK VINA RESULT:      -9.4      0.000      0.000
REMARK  Name = 
REMARK  4 active torsions:
REMARK  status: ('A' for Active; 'I' for Inactive)
REMARK    1  A    between atoms: C_1  and  C_2
REMARK    2  A    between atoms: C_5  and  C_6
REMARK    3  A    between atoms: C_9  and  C_10
REMARK    4  A    between atoms: C_10  and  N_11
REMARK                            x       y       z     vdW  Elec       q    Type
REMARK                         _______ _______ _______ _____ _____    ______ ____
ROOT
ATOM      1  N   UNL     1       5.898   5.343  17.605  0.00  0.00    +0.000 N 
ATOM      2  C   UNL     1       5.658   4.447  16.599  0.00  0.00    +0.000 C 
ATOM      3  O   UNL     1       6.442   4.096  15.731  0.00  0.00    +0.000 OA
ATOM      4  N   UNL     1       4.389   3.851  16.810  0.00  0.00    +0.000 N 
ATOM      5  C   UNL     1       4.174   3.940  18.236  0.00  0.00    +0.000 C 
ATOM      6  C   UNL     1       5.013   2.813  18.921  0.00  0.00    +0.000 C 
ATOM      7  C   UNL     1       4.025   1.738  19.378  0.00  0.00    +0.000 C 
ATOM      8  C   UNL     1       2.819   2.574  19.647  0.00  0.00    +0.000 A 
ATOM      9  C   UNL     1       1.840   2.310  20.592  0.00  0.00    +0.000 A 
ATOM     10  C   UNL     1       0.891   3.297  20.847  0.00  0.00    +0.000 A 
ATOM     11  C   UNL     1       0.903   4.497  20.124  0.00  0.00    +0.000 A 
ATOM     12  C   UNL     1       1.863   4.728  19.132  0.00  0.00    +0.000 A 
ATOM     13  C   UNL     1       2.844   3.770  18.911  0.00  0.00    +0.000 A 
ATOM     14  C   UNL     1       4.826   5.297  18.424  0.00  0.00    +0.000 C 
ATOM     15  O   UNL     1       4.436   6.205  19.149  0.00  0.00    +0.000 OA
ATOM     16  H   UNL     1       3.670   4.287  16.246  0.00  0.00    +0.000 HD
ENDROOT
BRANCH   1  17
ATOM     17  C   UNL     1       7.230   5.589  18.142  0.00  0.00    +0.000 C 
BRANCH  17  21
ATOM     18  C   UNL     1       8.405   8.983  18.227  0.00  0.00    +0.000 A 
ATOM     19  N   UNL     1       7.532   9.053  17.209  0.00  0.00    +0.000 NA
ATOM     20  O   UNL     1       7.021   7.769  17.115  0.00  0.00    +0.000 OA
ATOM     21  C   UNL     1       7.654   7.017  18.065  0.00  0.00    +0.000 A 
ATOM     22  N   UNL     1       8.494   7.722  18.790  0.00  0.00    +0.000 NA
BRANCH  18  27
ATOM     23  C   UNL     1      11.236  13.639  20.200  0.00  0.00    +0.000 C 
ATOM     24  C   UNL     1      10.505  12.433  19.682  0.00  0.00    +0.000 A 
ATOM     25  C   UNL     1      10.344  12.229  18.309  0.00  0.00    +0.000 A 
ATOM     26  C   UNL     1       9.667  11.098  17.838  0.00  0.00    +0.000 A 
ATOM     27  C   UNL     1       9.136  10.148  18.726  0.00  0.00    +0.000 A 
ATOM     28  C   UNL     1       9.305  10.357  20.100  0.00  0.00    +0.000 A 
ATOM     29  C   UNL     1       9.983  11.490  20.573  0.00  0.00    +0.000 A 
ENDBRANCH  18  27
ENDBRANCH  17  21
ENDBRANCH   1  17
TORSDOF 3
ENDMDL
MODEL 2
REMARK VINA RESULT:      -9.0      1.031      1.357
REMARK  Name = 
REMARK  4 active torsions:
REMARK  status: ('A' for Active; 'I' for Inactive)
REMARK    1  A    between atoms: C_1  and  C_2
REMARK    2  A    between atoms: C_5  and  C_6
REMARK    3  A    between atoms: C_9  and  C_10
REMARK    4  A    between atoms: C_10  and  N_11
REMARK                            x       y       z     vdW  Elec       q    Type
REMARK                         _______ _______ _______ _____ _____    ______ ____
ROOT
ATOM      1  N   UNL     1       6.578   5.552  17.760  0.00  0.00    +0.000 N 
ATOM      2  C   UNL     1       6.892   4.467  16.988  0.00  0.00    +0.000 C 
ATOM      3  O   UNL     1       8.008   4.118  16.638  0.00  0.00    +0.000 OA
ATOM      4  N   UNL     1       5.719   3.698  16.781  0.00  0.00    +0.000 N 
ATOM      5  C   UNL     1       4.881   3.992  17.920  0.00  0.00    +0.000 C 
ATOM      6  C   UNL     1       5.416   3.170  19.137  0.00  0.00    +0.000 C 
ATOM      7  C   UNL     1       4.423   2.031  19.375  0.00  0.00    +0.000 C 
ATOM      8  C   UNL     1       3.158   2.670  18.909  0.00  0.00    +0.000 A 
ATOM      9  C   UNL     1       1.886   2.402  19.389  0.00  0.00    +0.000 A 
ATOM     10  C   UNL     1       0.843   3.232  18.984  0.00  0.00    +0.000 A 
ATOM     11  C   UNL     1       1.076   4.271  18.073  0.00  0.00    +0.000 A 
ATOM     12  C   UNL     1       2.356   4.495  17.551  0.00  0.00    +0.000 A 
ATOM     13  C   UNL     1       3.409   3.706  17.994  0.00  0.00    +0.000 A 
ATOM     14  C   UNL     1       5.261   5.457  18.040  0.00  0.00    +0.000 C 
ATOM     15  O   UNL     1       4.512   6.391  18.300  0.00  0.00    +0.000 OA
ATOM     16  H   UNL     1       5.295   3.893  15.882  0.00  0.00    +0.000 HD
ENDROOT
BRANCH   1  17
ATOM     17  C   UNL     1       7.501   6.122  18.732  0.00  0.00    +0.000 C 
BRANCH  17  21
ATOM     18  C   UNL     1       8.609   9.510  18.278  0.00  0.00    +0.000 A 
ATOM     19  N   UNL     1       7.788   9.378  17.224  0.00  0.00    +0.000 NA
ATOM     20  O   UNL     1       7.306   8.085  17.332  0.00  0.00    +0.000 OA
ATOM     21  C   UNL     1       7.903   7.526  18.427  0.00  0.00    +0.000 A 
ATOM     22  N   UNL     1       8.692   8.369  19.057  0.00  0.00    +0.000 NA
BRANCH  18  27
ATOM     23  C   UNL     1      11.379  14.448  19.514  0.00  0.00    +0.000 C 
ATOM     24  C   UNL     1      10.663  13.166  19.200  0.00  0.00    +0.000 A 
ATOM     25  C   UNL     1      10.831  12.036  20.005  0.00  0.00    +0.000 A 
ATOM     26  C   UNL     1      10.153  10.848  19.707  0.00  0.00    +0.000 A 
ATOM     27  C   UNL     1       9.293  10.763  18.600  0.00  0.00    +0.000 A 
ATOM     28  C   UNL     1       9.126  11.900  17.800  0.00  0.00    +0.000 A 
ATOM     29  C   UNL     1       9.805  13.090  18.098  0.00  0.00    +0.000 A 
ENDBRANCH  18  27
ENDBRANCH  17  21
ENDBRANCH   1  17
TORSDOF 3
ENDMDL
MODEL 3
REMARK VINA RESULT:      -8.4      1.117      1.535
REMARK  Name = 
REMARK  4 active torsions:
REMARK  status: ('A' for Active; 'I' for Inactive)
REMARK    1  A    between atoms: C_1  and  C_2
REMARK    2  A    between atoms: C_5  and  C_6
REMARK    3  A    between atoms: C_9  and  C_10
REMARK    4  A    between atoms: C_10  and  N_11
REMARK                            x       y       z     vdW  Elec       q    Type
REMARK                         _______ _______ _______ _____ _____    ______ ____
ROOT
ATOM      1  N   UNL     1       5.478   5.250  16.812  0.00  0.00    +0.000 N 
ATOM      2  C   UNL     1       4.830   4.595  15.800  0.00  0.00    +0.000 C 
ATOM      3  O   UNL     1       5.285   4.313  14.704  0.00  0.00    +0.000 OA
ATOM      4  N   UNL     1       3.576   4.140  16.280  0.00  0.00    +0.000 N 
ATOM      5  C   UNL     1       3.760   3.989  17.705  0.00  0.00    +0.000 C 
ATOM      6  C   UNL     1       4.536   2.655  17.952  0.00  0.00    +0.000 C 
ATOM      7  C   UNL     1       3.528   1.652  18.515  0.00  0.00    +0.000 C 
ATOM      8  C   UNL     1       2.601   2.572  19.236  0.00  0.00    +0.000 A 
ATOM      9  C   UNL     1       1.872   2.267  20.374  0.00  0.00    +0.000 A 
ATOM     10  C   UNL     1       1.213   3.304  21.029  0.00  0.00    +0.000 A 
ATOM     11  C   UNL     1       1.247   4.605  20.512  0.00  0.00    +0.000 A 
ATOM     12  C   UNL     1       1.939   4.890  19.329  0.00  0.00    +0.000 A 
ATOM     13  C   UNL     1       2.644   3.871  18.702  0.00  0.00    +0.000 A 
ATOM     14  C   UNL     1       4.666   5.192  17.889  0.00  0.00    +0.000 C 
ATOM     15  O   UNL     1       4.646   5.991  18.818  0.00  0.00    +0.000 OA
ATOM     16  H   UNL     1       2.823   4.763  16.014  0.00  0.00    +0.000 HD
ENDROOT
BRANCH   1  17
ATOM     17  C   UNL     1       6.925   5.216  16.973  0.00  0.00    +0.000 C 
BRANCH  17  21
ATOM     18  C   UNL     1       8.220   8.309  18.264  0.00  0.00    +0.000 A 
ATOM     19  N   UNL     1       8.581   7.466  19.244  0.00  0.00    +0.000 NA
ATOM     20  O   UNL     1       8.121   6.233  18.815  0.00  0.00    +0.000 OA
ATOM     21  C   UNL     1       7.486   6.438  17.621  0.00  0.00    +0.000 A 
ATOM     22  N   UNL     1       7.543   7.691  17.228  0.00  0.00    +0.000 NA
BRANCH  18  27
ATOM     23  C   UNL     1       9.671  13.920  18.233  0.00  0.00    +0.000 C 
ATOM     24  C   UNL     1       9.299  12.465  18.247  0.00  0.00    +0.000 A 
ATOM     25  C   UNL     1       9.987  11.557  19.056  0.00  0.00    +0.000 A 
ATOM     26  C   UNL     1       9.627  10.205  19.066  0.00  0.00    +0.000 A 
ATOM     27  C   UNL     1       8.573   9.729  18.269  0.00  0.00    +0.000 A 
ATOM     28  C   UNL     1       7.885  10.645  17.464  0.00  0.00    +0.000 A 
ATOM     29  C   UNL     1       8.245  12.000  17.453  0.00  0.00    +0.000 A 
ENDBRANCH  18  27
ENDBRANCH  17  21
ENDBRANCH   1  17
TORSDOF 3
ENDMDL
MODEL 4
REMARK VINA RESULT:      -8.3      1.527      1.835
REMARK  Name = 
REMARK  4 active torsions:
REMARK  status: ('A' for Active; 'I' for Inactive)
REMARK    1  A    between atoms: C_1  and  C_2
REMARK    2  A    between atoms: C_5  and  C_6
REMARK    3  A    between atoms: C_9  and  C_10
REMARK    4  A    between atoms: C_10  and  N_11
REMARK                            x       y       z     vdW  Elec       q    Type
REMARK                         _______ _______ _______ _____ _____    ______ ____
ROOT
ATOM      1  N   UNL     1       5.538   6.448  17.562  0.00  0.00    +0.000 N 
ATOM      2  C   UNL     1       4.726   6.439  16.461  0.00  0.00    +0.000 C 
ATOM      3  O   UNL     1       5.026   6.787  15.330  0.00  0.00    +0.000 OA
ATOM      4  N   UNL     1       3.505   5.801  16.798  0.00  0.00    +0.000 N 
ATOM      5  C   UNL     1       3.843   4.910  17.884  0.00  0.00    +0.000 C 
ATOM      6  C   UNL     1       4.537   3.649  17.274  0.00  0.00    +0.000 C 
ATOM      7  C   UNL     1       3.526   2.503  17.355  0.00  0.00    +0.000 C 
ATOM      8  C   UNL     1       2.765   2.897  18.577  0.00  0.00    +0.000 A 
ATOM      9  C   UNL     1       2.154   2.031  19.469  0.00  0.00    +0.000 A 
ATOM     10  C   UNL     1       1.659   2.558  20.660  0.00  0.00    +0.000 A 
ATOM     11  C   UNL     1       1.733   3.934  20.912  0.00  0.00    +0.000 A 
ATOM     12  C   UNL     1       2.302   4.806  19.976  0.00  0.00    +0.000 A 
ATOM     13  C   UNL     1       2.847   4.280  18.812  0.00  0.00    +0.000 A 
ATOM     14  C   UNL     1       4.856   5.824  18.547  0.00  0.00    +0.000 C 
ATOM     15  O   UNL     1       5.008   6.002  19.750  0.00  0.00    +0.000 OA
ATOM     16  H   UNL     1       2.777   6.472  17.012  0.00  0.00    +0.000 HD
ENDROOT
BRANCH   1  17
ATOM     17  C   UNL     1       6.987   6.328  17.476  0.00  0.00    +0.000 C 
BRANCH  17  21
ATOM     18  C   UNL     1       8.666   9.420  18.209  0.00  0.00    +0.000 A 
ATOM     19  N   UNL     1       9.093   8.661  19.232  0.00  0.00    +0.000 NA
ATOM     20  O   UNL     1       8.490   7.434  19.016  0.00  0.00    +0.000 OA
ATOM     21  C   UNL     1       7.717   7.560  17.895  0.00  0.00    +0.000 A 
ATOM     22  N   UNL     1       7.812   8.752  17.349  0.00  0.00    +0.000 NA
BRANCH  18  27
ATOM     23  C   UNL     1      10.449  14.881  17.449  0.00  0.00    +0.000 C 
ATOM     24  C   UNL     1       9.980  13.467  17.644  0.00  0.00    +0.000 A 
ATOM     25  C   UNL     1       8.618  13.156  17.630  0.00  0.00    +0.000 A 
ATOM     26  C   UNL     1       8.194  11.834  17.806  0.00  0.00    +0.000 A 
ATOM     27  C   UNL     1       9.119  10.794  17.999  0.00  0.00    +0.000 A 
ATOM     28  C   UNL     1      10.482  11.113  18.007  0.00  0.00    +0.000 A 
ATOM     29  C   UNL     1      10.908  12.437  17.832  0.00  0.00    +0.000 A 
ENDBRANCH  18  27
ENDBRANCH  17  21
ENDBRANCH   1  17
TORSDOF 3
ENDMDL
MODEL 5
REMARK VINA RESULT:      -8.3      1.770      2.105
REMARK  Name = 
REMARK  4 active torsions:
REMARK  status: ('A' for Active; 'I' for Inactive)
REMARK    1  A    between atoms: C_1  and  C_2
REMARK    2  A    between atoms: C_5  and  C_6
REMARK    3  A    between atoms: C_9  and  C_10
REMARK    4  A    between atoms: C_10  and  N_11
REMARK                            x       y       z     vdW  Elec       q    Type
REMARK                         _______ _______ _______ _____ _____    ______ ____
ROOT
ATOM      1  N   UNL     1       5.032   6.621  17.890  0.00  0.00    +0.000 N 
ATOM      2  C   UNL     1       3.974   6.962  17.093  0.00  0.00    +0.000 C 
ATOM      3  O   UNL     1       4.019   7.607  16.058  0.00  0.00    +0.000 OA
ATOM      4  N   UNL     1       2.811   6.305  17.569  0.00  0.00    +0.000 N 
ATOM      5  C   UNL     1       3.305   5.126  18.243  0.00  0.00    +0.000 C 
ATOM      6  C   UNL     1       3.671   4.066  17.154  0.00  0.00    +0.000 C 
ATOM      7  C   UNL     1       2.587   2.988  17.201  0.00  0.00    +0.000 C 
ATOM      8  C   UNL     1       2.209   3.045  18.643  0.00  0.00    +0.000 A 
ATOM      9  C   UNL     1       1.745   1.985  19.406  0.00  0.00    +0.000 A 
ATOM     10  C   UNL     1       1.630   2.167  20.781  0.00  0.00    +0.000 A 
ATOM     11  C   UNL     1       1.925   3.408  21.360  0.00  0.00    +0.000 A 
ATOM     12  C   UNL     1       2.338   4.488  20.571  0.00  0.00    +0.000 A 
ATOM     13  C   UNL     1       2.507   4.297  19.206  0.00  0.00    +0.000 A 
ATOM     14  C   UNL     1       4.552   5.768  18.822  0.00  0.00    +0.000 C 
ATOM     15  O   UNL     1       5.021   5.587  19.939  0.00  0.00    +0.000 OA
ATOM     16  H   UNL     1       2.244   6.915  18.144  0.00  0.00    +0.000 HD
ENDROOT
BRANCH   1  17
ATOM     17  C   UNL     1       6.389   6.472  17.382  0.00  0.00    +0.000 C 
BRANCH  17  21
ATOM     18  C   UNL     1       8.487   9.294  18.121  0.00  0.00    +0.000 A 
ATOM     19  N   UNL     1       9.003   8.380  18.959  0.00  0.00    +0.000 NA
ATOM     20  O   UNL     1       8.245   7.245  18.727  0.00  0.00    +0.000 OA
ATOM     21  C   UNL     1       7.307   7.575  17.789  0.00  0.00    +0.000 A 
ATOM     22  N   UNL     1       7.431   8.815  17.367  0.00  0.00    +0.000 NA
BRANCH  18  27
ATOM     23  C   UNL     1      10.689  14.617  17.487  0.00  0.00    +0.000 C 
ATOM     24  C   UNL     1      10.124  13.235  17.654  0.00  0.00    +0.000 A 
ATOM     25  C   UNL     1      10.960  12.148  17.926  0.00  0.00    +0.000 A 
ATOM     26  C   UNL     1      10.422  10.866  18.087  0.00  0.00    +0.000 A 
ATOM     27  C   UNL     1       9.039  10.641  17.980  0.00  0.00    +0.000 A 
ATOM     28  C   UNL     1       8.208  11.736  17.712  0.00  0.00    +0.000 A 
ATOM     29  C   UNL     1       8.746  13.020  17.551  0.00  0.00    +0.000 A 
ENDBRANCH  18  27
ENDBRANCH  17  21
ENDBRANCH   1  17
TORSDOF 3
ENDMDL
MODEL 6
REMARK VINA RESULT:      -7.8      7.779     10.380
REMARK  Name = 
REMARK  4 active torsions:
REMARK  status: ('A' for Active; 'I' for Inactive)
REMARK    1  A    between atoms: C_1  and  C_2
REMARK    2  A    between atoms: C_5  and  C_6
REMARK    3  A    between atoms: C_9  and  C_10
REMARK    4  A    between atoms: C_10  and  N_11
REMARK                            x       y       z     vdW  Elec       q    Type
REMARK                         _______ _______ _______ _____ _____    ______ ____
ROOT
ATOM      1  N   UNL     1      -0.489  10.904  21.501  0.00  0.00    +0.000 N 
ATOM      2  C   UNL     1      -0.615  10.516  22.807  0.00  0.00    +0.000 C 
ATOM      3  O   UNL     1       0.204   9.897  23.467  0.00  0.00    +0.000 OA
ATOM      4  N   UNL     1      -1.795  11.090  23.343  0.00  0.00    +0.000 N 
ATOM      5  C   UNL     1      -2.015  12.281  22.557  0.00  0.00    +0.000 C 
ATOM      6  C   UNL     1      -1.036  13.385  23.071  0.00  0.00    +0.000 C 
ATOM      7  C   UNL     1      -1.875  14.394  23.858  0.00  0.00    +0.000 C 
ATOM      8  C   UNL     1      -3.178  14.282  23.139  0.00  0.00    +0.000 A 
ATOM      9  C   UNL     1      -4.112  15.294  22.984  0.00  0.00    +0.000 A 
ATOM     10  C   UNL     1      -5.179  15.076  22.117  0.00  0.00    +0.000 A 
ATOM     11  C   UNL     1      -5.325  13.842  21.467  0.00  0.00    +0.000 A 
ATOM     12  C   UNL     1      -4.406  12.807  21.677  0.00  0.00    +0.000 A 
ATOM     13  C   UNL     1      -3.310  13.039  22.498  0.00  0.00    +0.000 A 
ATOM     14  C   UNL     1      -1.544  11.705  21.235  0.00  0.00    +0.000 C 
ATOM     15  O   UNL     1      -2.045  11.890  20.132  0.00  0.00    +0.000 OA
ATOM     16  H   UNL     1      -2.567  10.433  23.342  0.00  0.00    +0.000 HD
ENDROOT
BRANCH   1  17
ATOM     17  C   UNL     1       0.801  11.147  20.871  0.00  0.00    +0.000 C 
BRANCH  17  21
ATOM     18  C   UNL     1       1.850   8.549  18.622  0.00  0.00    +0.000 A 
ATOM     19  N   UNL     1       1.293   9.411  17.756  0.00  0.00    +0.000 NA
ATOM     20  O   UNL     1       0.865  10.459  18.552  0.00  0.00    +0.000 OA
ATOM     21  C   UNL     1       1.169  10.129  19.844  0.00  0.00    +0.000 A 
ATOM     22  N   UNL     1       1.798   8.978  19.936  0.00  0.00    +0.000 NA
BRANCH  18  27
ATOM     23  C   UNL     1       4.488   3.646  17.010  0.00  0.00    +0.000 C 
ATOM     24  C   UNL     1       3.809   4.920  17.424  0.00  0.00    +0.000 A 
ATOM     25  C   UNL     1       4.397   6.161  17.167  0.00  0.00    +0.000 A 
ATOM     26  C   UNL     1       3.752   7.343  17.551  0.00  0.00    +0.000 A 
ATOM     27  C   UNL     1       2.506   7.311  18.199  0.00  0.00    +0.000 A 
ATOM     28  C   UNL     1       1.920   6.064  18.449  0.00  0.00    +0.000 A 
ATOM     29  C   UNL     1       2.566   4.881  18.065  0.00  0.00    +0.000 A 
ENDBRANCH  18  27
ENDBRANCH  17  21
ENDBRANCH   1  17
TORSDOF 3
ENDMDL
MODEL 7
REMARK VINA RESULT:      -7.8      6.897      9.719
REMARK  Name = 
REMARK  4 active torsions:
REMARK  status: ('A' for Active; 'I' for Inactive)
REMARK    1  A    between atoms: C_1  and  C_2
REMARK    2  A    between atoms: C_5  and  C_6
REMARK    3  A    between atoms: C_9  and  C_10
REMARK    4  A    between atoms: C_10  and  N_11
REMARK                            x       y       z     vdW  Elec       q    Type
REMARK                         _______ _______ _______ _____ _____    ______ ____
ROOT
ATOM      1  N   UNL     1       0.480  10.682  19.083  0.00  0.00    +0.000 N 
ATOM      2  C   UNL     1      -0.639  10.776  18.303  0.00  0.00    +0.000 C 
ATOM      3  O   UNL     1      -1.406   9.872  18.014  0.00  0.00    +0.000 OA
ATOM      4  N   UNL     1      -0.874  12.142  18.003  0.00  0.00    +0.000 N 
ATOM      5  C   UNL     1      -0.268  12.868  19.095  0.00  0.00    +0.000 C 
ATOM      6  C   UNL     1      -1.236  12.789  20.320  0.00  0.00    +0.000 C 
ATOM      7  C   UNL     1      -1.882  14.169  20.465  0.00  0.00    +0.000 C 
ATOM      8  C   UNL     1      -0.789  15.038  19.940  0.00  0.00    +0.000 A 
ATOM      9  C   UNL     1      -0.525  16.341  20.332  0.00  0.00    +0.000 A 
ATOM     10  C   UNL     1       0.653  16.934  19.885  0.00  0.00    +0.000 A 
ATOM     11  C   UNL     1       1.511  16.245  19.019  0.00  0.00    +0.000 A 
ATOM     12  C   UNL     1       1.204  14.950  18.584  0.00  0.00    +0.000 A 
ATOM     13  C   UNL     1       0.059  14.332  19.070  0.00  0.00    +0.000 A 
ATOM     14  C   UNL     1       0.921  11.943  19.278  0.00  0.00    +0.000 C 
ATOM     15  O   UNL     1       2.077  12.272  19.516  0.00  0.00    +0.000 OA
ATOM     16  H   UNL     1      -0.525  12.391  17.085  0.00  0.00    +0.000 HD
ENDROOT
BRANCH   1  17
ATOM     17  C   UNL     1       0.633   9.676  20.125  0.00  0.00    +0.000 C 
BRANCH  17  21
ATOM     18  C   UNL     1       2.657   6.992  18.854  0.00  0.00    +0.000 A 
ATOM     19  N   UNL     1       2.264   6.468  20.027  0.00  0.00    +0.000 NA
ATOM     20  O   UNL     1       1.463   7.450  20.583  0.00  0.00    +0.000 OA
ATOM     21  C   UNL     1       1.462   8.506  19.714  0.00  0.00    +0.000 A 
ATOM     22  N   UNL     1       2.160   8.264  18.626  0.00  0.00    +0.000 NA
BRANCH  18  27
ATOM     23  C   UNL     1       5.955   4.077  15.085  0.00  0.00    +0.000 C 
ATOM     24  C   UNL     1       5.102   4.839  16.058  0.00  0.00    +0.000 A 
ATOM     25  C   UNL     1       5.176   6.232  16.139  0.00  0.00    +0.000 A 
ATOM     26  C   UNL     1       4.371   6.931  17.045  0.00  0.00    +0.000 A 
ATOM     27  C   UNL     1       3.475   6.256  17.890  0.00  0.00    +0.000 A 
ATOM     28  C   UNL     1       3.403   4.861  17.801  0.00  0.00    +0.000 A 
ATOM     29  C   UNL     1       4.209   4.160  16.894  0.00  0.00    +0.000 A 
ENDBRANCH  18  27
ENDBRANCH  17  21
ENDBRANCH   1  17
TORSDOF 3
ENDMDL
MODEL 8
REMARK VINA RESULT:      -7.8      7.654     10.528
REMARK  Name = 
REMARK  4 active torsions:
REMARK  status: ('A' for Active; 'I' for Inactive)
REMARK    1  A    between atoms: C_1  and  C_2
REMARK    2  A    between atoms: C_5  and  C_6
REMARK    3  A    between atoms: C_9  and  C_10
REMARK    4  A    between atoms: C_10  and  N_11
REMARK                            x       y       z     vdW  Elec       q    Type
REMARK                         _______ _______ _______ _____ _____    ______ ____
ROOT
ATOM      1  N   UNL     1      -0.476  10.825  21.406  0.00  0.00    +0.000 N 
ATOM      2  C   UNL     1      -0.536  10.482  22.729  0.00  0.00    +0.000 C 
ATOM      3  O   UNL     1       0.305   9.865  23.362  0.00  0.00    +0.000 OA
ATOM      4  N   UNL     1      -1.671  11.101  23.311  0.00  0.00    +0.000 N 
ATOM      5  C   UNL     1      -1.909  12.271  22.498  0.00  0.00    +0.000 C 
ATOM      6  C   UNL     1      -0.878  13.367  22.920  0.00  0.00    +0.000 C 
ATOM      7  C   UNL     1      -1.649  14.421  23.718  0.00  0.00    +0.000 C 
ATOM      8  C   UNL     1      -2.993  14.317  23.077  0.00  0.00    +0.000 A 
ATOM      9  C   UNL     1      -3.911  15.346  22.940  0.00  0.00    +0.000 A 
ATOM     10  C   UNL     1      -5.030  15.125  22.142  0.00  0.00    +0.000 A 
ATOM     11  C   UNL     1      -5.239  13.875  21.544  0.00  0.00    +0.000 A 
ATOM     12  C   UNL     1      -4.333  12.825  21.737  0.00  0.00    +0.000 A 
ATOM     13  C   UNL     1      -3.188  13.057  22.487  0.00  0.00    +0.000 A 
ATOM     14  C   UNL     1      -1.526  11.641  21.172  0.00  0.00    +0.000 C 
ATOM     15  O   UNL     1      -2.084  11.803  20.094  0.00  0.00    +0.000 OA
ATOM     16  H   UNL     1      -2.456  10.463  23.374  0.00  0.00    +0.000 HD
ENDROOT
BRANCH   1  17
ATOM     17  C   UNL     1       0.782  11.016  20.697  0.00  0.00    +0.000 C 
BRANCH  17  21
ATOM     18  C   UNL     1       1.937   7.953  19.215  0.00  0.00    +0.000 A 
ATOM     19  N   UNL     1       1.967   8.767  18.147  0.00  0.00    +0.000 NA
ATOM     20  O   UNL     1       1.538   9.987  18.642  0.00  0.00    +0.000 OA
ATOM     21  C   UNL     1       1.250   9.803  19.966  0.00  0.00    +0.000 A 
ATOM     22  N   UNL     1       1.503   8.578  20.371  0.00  0.00    +0.000 NA
BRANCH  18  27
ATOM     23  C   UNL     1       3.642   2.419  18.988  0.00  0.00    +0.000 C 
ATOM     24  C   UNL     1       3.199   3.853  19.054  0.00  0.00    +0.000 A 
ATOM     25  C   UNL     1       2.511   4.339  20.168  0.00  0.00    +0.000 A 
ATOM     26  C   UNL     1       2.109   5.679  20.222  0.00  0.00    +0.000 A 
ATOM     27  C   UNL     1       2.385   6.562  19.164  0.00  0.00    +0.000 A 
ATOM     28  C   UNL     1       3.078   6.068  18.052  0.00  0.00    +0.000 A 
ATOM     29  C   UNL     1       3.481   4.726  17.998  0.00  0.00    +0.000 A 
ENDBRANCH  18  27
ENDBRANCH  17  21
ENDBRANCH   1  17
TORSDOF 3
ENDMDL
MODEL 9
REMARK VINA RESULT:      -7.7      7.175      9.685
REMARK  Name = 
REMARK  4 active torsions:
REMARK  status: ('A' for Active; 'I' for Inactive)
REMARK    1  A    between atoms: C_1  and  C_2
REMARK    2  A    between atoms: C_5  and  C_6
REMARK    3  A    between atoms: C_9  and  C_10
REMARK    4  A    between atoms: C_10  and  N_11
REMARK                            x       y       z     vdW  Elec       q    Type
REMARK                         _______ _______ _______ _____ _____    ______ ____
ROOT
ATOM      1  N   UNL     1       0.173  10.891  20.183  0.00  0.00    +0.000 N 
ATOM      2  C   UNL     1      -1.079  11.047  19.653  0.00  0.00    +0.000 C 
ATOM      3  O   UNL     1      -1.694  10.235  18.982  0.00  0.00    +0.000 OA
ATOM      4  N   UNL     1      -1.636  12.255  20.144  0.00  0.00    +0.000 N 
ATOM      5  C   UNL     1      -0.975  12.477  21.410  0.00  0.00    +0.000 C 
ATOM      6  C   UNL     1      -1.637  11.538  22.469  0.00  0.00    +0.000 C 
ATOM      7  C   UNL     1      -2.500  12.422  23.370  0.00  0.00    +0.000 C 
ATOM      8  C   UNL     1      -1.732  13.700  23.313  0.00  0.00    +0.000 A 
ATOM      9  C   UNL     1      -1.657  14.651  24.319  0.00  0.00    +0.000 A 
ATOM     10  C   UNL     1      -0.737  15.686  24.176  0.00  0.00    +0.000 A 
ATOM     11  C   UNL     1       0.045  15.785  23.018  0.00  0.00    +0.000 A 
ATOM     12  C   UNL     1      -0.081  14.851  21.983  0.00  0.00    +0.000 A 
ATOM     13  C   UNL     1      -0.957  13.786  22.145  0.00  0.00    +0.000 A 
ATOM     14  C   UNL     1       0.385  11.954  20.988  0.00  0.00    +0.000 C 
ATOM     15  O   UNL     1       1.477  12.425  21.283  0.00  0.00    +0.000 OA
ATOM     16  H   UNL     1      -1.538  13.012  19.477  0.00  0.00    +0.000 HD
ENDROOT
BRANCH   1  17
ATOM     17  C   UNL     1       0.732   9.588  20.517  0.00  0.00    +0.000 C 
BRANCH  17  21
ATOM     18  C   UNL     1       2.681   7.859  18.042  0.00  0.00    +0.000 A 
ATOM     19  N   UNL     1       2.492   9.037  17.425  0.00  0.00    +0.000 NA
ATOM     20  O   UNL     1       1.746   9.774  18.328  0.00  0.00    +0.000 OA
ATOM     21  C   UNL     1       1.515   8.968  19.408  0.00  0.00    +0.000 A 
ATOM     22  N   UNL     1       2.091   7.792  19.292  0.00  0.00    +0.000 NA
BRANCH  18  27
ATOM     23  C   UNL     1       5.943   3.611  15.829  0.00  0.00    +0.000 C 
ATOM     24  C   UNL     1       5.100   4.716  16.397  0.00  0.00    +0.000 A 
ATOM     25  C   UNL     1       5.360   6.052  16.079  0.00  0.00    +0.000 A 
ATOM     26  C   UNL     1       4.564   7.073  16.609  0.00  0.00    +0.000 A 
ATOM     27  C   UNL     1       3.492   6.784  17.469  0.00  0.00    +0.000 A 
ATOM     28  C   UNL     1       3.234   5.444  17.781  0.00  0.00    +0.000 A 
ATOM     29  C   UNL     1       4.032   4.420  17.250  0.00  0.00    +0.000 A 
ENDBRANCH  18  27
ENDBRANCH  17  21
ENDBRANCH   1  17
TORSDOF 3
ENDMDL
