MODEL 1
REMARK VINA RESULT:      -8.1      0.000      0.000
REMARK  Name = 
REMARK  5 active torsions:
REMARK  status: ('A' for Active; 'I' for Inactive)
REMARK    1  A    between atoms: C_1  and  N_2
REMARK    2  A    between atoms: C_6  and  C_7
REMARK    3  A    between atoms: C_7  and  C_8
REMARK    4  A    between atoms: C_8  and  C_9
REMARK    5  A    between atoms: C_13  and  N_14
REMARK                            x       y       z     vdW  Elec       q    Type
REMARK                         _______ _______ _______ _____ _____    ______ ____
ROOT
ATOM      1  C   UNL     1       5.356   6.097  18.056  0.00  0.00    +0.000 A 
ATOM      2  C   UNL     1       4.631   7.125  17.429  0.00  0.00    +0.000 A 
ATOM      3  C   UNL     1       3.238   7.164  17.465  0.00  0.00    +0.000 A 
ATOM      4  C   UNL     1       2.526   6.168  18.134  0.00  0.00    +0.000 A 
ATOM      5  C   UNL     1       3.191   5.125  18.780  0.00  0.00    +0.000 A 
ATOM      6  C   UNL     1       4.596   5.126  18.746  0.00  0.00    +0.000 A 
ENDROOT
BRANCH   5   7
ATOM      7  N   UNL     1       2.493   4.061  19.410  0.00  0.00    +0.000 N 
ATOM      8  C   UNL     1       1.894   2.979  18.654  0.00  0.00    +0.000 C 
ATOM      9  C   UNL     1       1.126   2.239  19.689  0.00  0.00    +0.000 C 
ATOM     10  C   UNL     1       1.321   2.775  20.889  0.00  0.00    +0.000 C 
ATOM     11  F   UNL     1       0.783   2.387  22.051  0.00  0.00    +0.000 F 
ATOM     12  C   UNL     1       2.210   3.941  20.775  0.00  0.00    +0.000 C 
ATOM     13  O   UNL     1       2.572   4.615  21.723  0.00  0.00    +0.000 OA
ENDBRANCH   5   7
BRANCH   1  14
ATOM     14  C   UNL     1       6.959   5.992  17.963  0.00  0.00    +0.000 C 
ATOM     15  C   UNL     1       7.748   7.278  17.574  0.00  0.00    +0.000 C 
ATOM     16  O   UNL     1       8.479   7.280  18.818  0.00  0.00    +0.000 OA
ATOM     17  C   UNL     1       7.719   6.161  19.311  0.00  0.00    +0.000 C 
BRANCH  14  18
ATOM     18  C   UNL     1       7.388   4.717  17.212  0.00  0.00    +0.000 C 
BRANCH  18  24
ATOM     19  C   UNL     1       4.963   3.271  15.791  0.00  0.00    +0.000 C 
ATOM     20  N   UNL     1       5.994   4.053  15.168  0.00  0.00    +0.000 N 
ATOM     21  C   UNL     1       6.121   4.259  13.827  0.00  0.00    +0.000 A 
ATOM     22  N   UNL     1       7.155   5.030  13.597  0.00  0.00    +0.000 NA
ATOM     23  N   UNL     1       7.732   5.320  14.807  0.00  0.00    +0.000 NA
ATOM     24  C   UNL     1       7.040   4.722  15.756  0.00  0.00    +0.000 A 
ENDBRANCH  18  24
ENDBRANCH  14  18
ENDBRANCH   1  14
TORSDOF 4
ENDMDL
MODEL 2
REMARK VINA RESULT:      -8.0      3.216      6.847
REMARK  Name = 
REMARK  5 active torsions:
REMARK  status: ('A' for Active; 'I' for Inactive)
REMARK    1  A    between atoms: C_1  and  N_2
REMARK    2  A    between atoms: C_6  and  C_7
REMARK    3  A    between atoms: C_7  and  C_8
REMARK    4  A    between atoms: C_8  and  C_9
REMARK    5  A    between atoms: C_13  and  N_14
REMARK                            x       y       z     vdW  Elec       q    Type
REMARK                         _______ _______ _______ _____ _____    ______ ____
ROOT
ATOM      1  C   UNL     1       4.504   5.566  17.792  0.00  0.00    +0.000 A 
ATOM      2  C   UNL     1       5.602   5.426  18.658  0.00  0.00    +0.000 A 
ATOM      3  C   UNL     1       6.854   5.025  18.193  0.00  0.00    +0.000 A 
ATOM      4  C   UNL     1       7.044   4.753  16.838  0.00  0.00    +0.000 A 
ATOM      5  C   UNL     1       5.993   4.881  15.929  0.00  0.00    +0.000 A 
ATOM      6  C   UNL     1       4.749   5.308  16.425  0.00  0.00    +0.000 A 
ENDROOT
BRANCH   5   7
ATOM      7  N   UNL     1       6.137   4.545  14.557  0.00  0.00    +0.000 N 
ATOM      8  C   UNL     1       5.208   3.662  13.879  0.00  0.00    +0.000 C 
ATOM      9  C   UNL     1       5.859   3.451  12.559  0.00  0.00    +0.000 C 
ATOM     10  C   UNL     1       6.968   4.174  12.462  0.00  0.00    +0.000 C 
ATOM     11  F   UNL     1       7.819   4.227  11.431  0.00  0.00    +0.000 F 
ATOM     12  C   UNL     1       7.189   4.917  13.713  0.00  0.00    +0.000 C 
ATOM     13  O   UNL     1       8.125   5.675  13.897  0.00  0.00    +0.000 OA
ENDBRANCH   5   7
BRANCH   1  14
ATOM     14  C   UNL     1       3.034   5.953  18.320  0.00  0.00    +0.000 C 
ATOM     15  C   UNL     1       2.920   6.622  19.722  0.00  0.00    +0.000 C 
ATOM     16  O   UNL     1       2.320   7.814  19.174  0.00  0.00    +0.000 OA
ATOM     17  C   UNL     1       2.489   7.326  17.829  0.00  0.00    +0.000 C 
BRANCH  14  18
ATOM     18  C   UNL     1       2.035   4.809  18.064  0.00  0.00    +0.000 C 
BRANCH  18  24
ATOM     19  C   UNL     1       3.635   2.187  18.809  0.00  0.00    +0.000 C 
ATOM     20  N   UNL     1       2.523   2.756  19.516  0.00  0.00    +0.000 N 
ATOM     21  C   UNL     1       1.935   2.214  20.620  0.00  0.00    +0.000 A 
ATOM     22  N   UNL     1       0.961   2.992  21.025  0.00  0.00    +0.000 NA
ATOM     23  N   UNL     1       0.893   4.054  20.159  0.00  0.00    +0.000 NA
ATOM     24  C   UNL     1       1.827   3.908  19.241  0.00  0.00    +0.000 A 
ENDBRANCH  18  24
ENDBRANCH  14  18
ENDBRANCH   1  14
TORSDOF 4
ENDMDL
MODEL 3
REMARK VINA RESULT:      -7.9      2.105      3.323
REMARK  Name = 
REMARK  5 active torsions:
REMARK  status: ('A' for Active; 'I' for Inactive)
REMARK    1  A    between atoms: C_1  and  N_2
REMARK    2  A    between atoms: C_6  and  C_7
REMARK    3  A    between atoms: C_7  and  C_8
REMARK    4  A    between atoms: C_8  and  C_9
REMARK    5  A    between atoms: C_13  and  N_14
REMARK                            x       y       z     vdW  Elec       q    Type
REMARK                         _______ _______ _______ _____ _____    ______ ____
ROOT
ATOM      1  C   UNL     1       4.792   5.552  16.614  0.00  0.00    +0.000 A 
ATOM      2  C   UNL     1       4.438   6.910  16.711  0.00  0.00    +0.000 A 
ATOM      3  C   UNL     1       3.409   7.338  17.547  0.00  0.00    +0.000 A 
ATOM      4  C   UNL     1       2.699   6.416  18.316  0.00  0.00    +0.000 A 
ATOM      5  C   UNL     1       3.009   5.055  18.267  0.00  0.00    +0.000 A 
ATOM      6  C   UNL     1       4.067   4.657  17.431  0.00  0.00    +0.000 A 
ENDROOT
BRANCH   5   7
ATOM      7  N   UNL     1       2.261   4.085  18.984  0.00  0.00    +0.000 N 
ATOM      8  C   UNL     1       1.442   3.095  18.313  0.00  0.00    +0.000 C 
ATOM      9  C   UNL     1       0.715   2.451  19.439  0.00  0.00    +0.000 C 
ATOM     10  C   UNL     1       1.118   2.949  20.602  0.00  0.00    +0.000 C 
ATOM     11  F   UNL     1       0.679   2.624  21.823  0.00  0.00    +0.000 F 
ATOM     12  C   UNL     1       2.130   3.992  20.374  0.00  0.00    +0.000 C 
ATOM     13  O   UNL     1       2.686   4.607  21.266  0.00  0.00    +0.000 OA
ENDBRANCH   5   7
BRANCH   1  14
ATOM     14  C   UNL     1       5.925   5.027  15.599  0.00  0.00    +0.000 C 
ATOM     15  C   UNL     1       5.934   3.510  15.245  0.00  0.00    +0.000 C 
ATOM     16  O   UNL     1       5.730   3.774  13.841  0.00  0.00    +0.000 OA
ATOM     17  C   UNL     1       5.591   5.186  14.087  0.00  0.00    +0.000 C 
BRANCH  14  18
ATOM     18  C   UNL     1       7.302   5.619  15.953  0.00  0.00    +0.000 C 
BRANCH  18  24
ATOM     19  C   UNL     1       7.806   8.188  17.724  0.00  0.00    +0.000 C 
ATOM     20  N   UNL     1       7.824   6.819  18.155  0.00  0.00    +0.000 N 
ATOM     21  C   UNL     1       8.119   6.398  19.417  0.00  0.00    +0.000 A 
ATOM     22  N   UNL     1       8.030   5.091  19.477  0.00  0.00    +0.000 NA
ATOM     23  N   UNL     1       7.691   4.643  18.225  0.00  0.00    +0.000 NA
ATOM     24  C   UNL     1       7.578   5.683  17.423  0.00  0.00    +0.000 A 
ENDBRANCH  18  24
ENDBRANCH  14  18
ENDBRANCH   1  14
TORSDOF 4
ENDMDL
MODEL 4
REMARK VINA RESULT:      -7.9      3.218      6.619
REMARK  Name = 
REMARK  5 active torsions:
REMARK  status: ('A' for Active; 'I' for Inactive)
REMARK    1  A    between atoms: C_1  and  N_2
REMARK    2  A    between atoms: C_6  and  C_7
REMARK    3  A    between atoms: C_7  and  C_8
REMARK    4  A    between atoms: C_8  and  C_9
REMARK    5  A    between atoms: C_13  and  N_14
REMARK                            x       y       z     vdW  Elec       q    Type
REMARK                         _______ _______ _______ _____ _____    ______ ____
ROOT
ATOM      1  C   UNL     1       4.519   5.644  17.735  0.00  0.00    +0.000 A 
ATOM      2  C   UNL     1       5.617   5.524  18.604  0.00  0.00    +0.000 A 
ATOM      3  C   UNL     1       6.872   5.126  18.146  0.00  0.00    +0.000 A 
ATOM      4  C   UNL     1       7.065   4.836  16.795  0.00  0.00    +0.000 A 
ATOM      5  C   UNL     1       6.014   4.943  15.883  0.00  0.00    +0.000 A 
ATOM      6  C   UNL     1       4.767   5.368  16.372  0.00  0.00    +0.000 A 
ENDROOT
BRANCH   5   7
ATOM      7  N   UNL     1       6.162   4.588  14.516  0.00  0.00    +0.000 N 
ATOM      8  C   UNL     1       5.222   3.714  13.842  0.00  0.00    +0.000 C 
ATOM      9  C   UNL     1       5.878   3.476  12.529  0.00  0.00    +0.000 C 
ATOM     10  C   UNL     1       7.001   4.179  12.432  0.00  0.00    +0.000 C 
ATOM     11  F   UNL     1       7.860   4.205  11.406  0.00  0.00    +0.000 F 
ATOM     12  C   UNL     1       7.226   4.932  13.675  0.00  0.00    +0.000 C 
ATOM     13  O   UNL     1       8.173   5.676  13.858  0.00  0.00    +0.000 OA
ENDBRANCH   5   7
BRANCH   1  14
ATOM     14  C   UNL     1       3.045   6.027  18.256  0.00  0.00    +0.000 C 
ATOM     15  C   UNL     1       2.887   6.426  19.754  0.00  0.00    +0.000 C 
ATOM     16  O   UNL     1       2.393   7.739  19.416  0.00  0.00    +0.000 OA
ATOM     17  C   UNL     1       2.614   7.502  18.013  0.00  0.00    +0.000 C 
BRANCH  14  18
ATOM     18  C   UNL     1       1.997   5.025  17.739  0.00  0.00    +0.000 C 
BRANCH  18  24
ATOM     19  C   UNL     1       0.818   3.680  20.345  0.00  0.00    +0.000 C 
ATOM     20  N   UNL     1       1.698   3.082  19.381  0.00  0.00    +0.000 N 
ATOM     21  C   UNL     1       2.217   1.824  19.466  0.00  0.00    +0.000 A 
ATOM     22  N   UNL     1       2.966   1.586  18.418  0.00  0.00    +0.000 NA
ATOM     23  N   UNL     1       2.957   2.715  17.638  0.00  0.00    +0.000 NA
ATOM     24  C   UNL     1       2.202   3.623  18.223  0.00  0.00    +0.000 A 
ENDBRANCH  18  24
ENDBRANCH  14  18
ENDBRANCH   1  14
TORSDOF 4
ENDMDL
MODEL 5
REMARK VINA RESULT:      -7.8      4.182      6.164
REMARK  Name = 
REMARK  5 active torsions:
REMARK  status: ('A' for Active; 'I' for Inactive)
REMARK    1  A    between atoms: C_1  and  N_2
REMARK    2  A    between atoms: C_6  and  C_7
REMARK    3  A    between atoms: C_7  and  C_8
REMARK    4  A    between atoms: C_8  and  C_9
REMARK    5  A    between atoms: C_13  and  N_14
REMARK                            x       y       z     vdW  Elec       q    Type
REMARK                         _______ _______ _______ _____ _____    ______ ____
ROOT
ATOM      1  C   UNL     1       2.418   7.553  18.614  0.00  0.00    +0.000 A 
ATOM      2  C   UNL     1       2.369   8.472  17.550  0.00  0.00    +0.000 A 
ATOM      3  C   UNL     1       1.796   9.733  17.701  0.00  0.00    +0.000 A 
ATOM      4  C   UNL     1       1.252  10.115  18.928  0.00  0.00    +0.000 A 
ATOM      5  C   UNL     1       1.277   9.248  20.022  0.00  0.00    +0.000 A 
ATOM      6  C   UNL     1       1.882   7.992  19.845  0.00  0.00    +0.000 A 
ENDROOT
BRANCH   5   7
ATOM      7  N   UNL     1       0.671   9.581  21.262  0.00  0.00    +0.000 N 
ATOM      8  C   UNL     1       1.112   8.999  22.514  0.00  0.00    +0.000 C 
ATOM      9  C   UNL     1       0.085   9.475  23.477  0.00  0.00    +0.000 C 
ATOM     10  C   UNL     1      -0.782  10.282  22.877  0.00  0.00    +0.000 C 
ATOM     11  F   UNL     1      -1.845  10.885  23.422  0.00  0.00    +0.000 F 
ATOM     12  C   UNL     1      -0.443  10.405  21.452  0.00  0.00    +0.000 C 
ATOM     13  O   UNL     1      -1.061  11.098  20.663  0.00  0.00    +0.000 OA
ENDBRANCH   5   7
BRANCH   1  14
ATOM     14  C   UNL     1       3.006   6.065  18.440  0.00  0.00    +0.000 C 
ATOM     15  C   UNL     1       4.241   5.878  17.509  0.00  0.00    +0.000 C 
ATOM     16  O   UNL     1       5.052   5.364  18.586  0.00  0.00    +0.000 OA
ATOM     17  C   UNL     1       4.004   5.609  19.543  0.00  0.00    +0.000 C 
BRANCH  14  18
ATOM     18  C   UNL     1       1.873   5.044  18.226  0.00  0.00    +0.000 C 
BRANCH  18  24
ATOM     19  C   UNL     1       3.086   2.129  18.366  0.00  0.00    +0.000 C 
ATOM     20  N   UNL     1       2.254   2.771  19.344  0.00  0.00    +0.000 N 
ATOM     21  C   UNL     1       1.802   2.192  20.493  0.00  0.00    +0.000 A 
ATOM     22  N   UNL     1       1.082   3.055  21.166  0.00  0.00    +0.000 NA
ATOM     23  N   UNL     1       1.041   4.217  20.438  0.00  0.00    +0.000 NA
ATOM     24  C   UNL     1       1.737   4.044  19.332  0.00  0.00    +0.000 A 
ENDBRANCH  18  24
ENDBRANCH  14  18
ENDBRANCH   1  14
TORSDOF 4
ENDMDL
MODEL 6
REMARK VINA RESULT:      -7.8      2.836      3.715
REMARK  Name = 
REMARK  5 active torsions:
REMARK  status: ('A' for Active; 'I' for Inactive)
REMARK    1  A    between atoms: C_1  and  N_2
REMARK    2  A    between atoms: C_6  and  C_7
REMARK    3  A    between atoms: C_7  and  C_8
REMARK    4  A    between atoms: C_8  and  C_9
REMARK    5  A    between atoms: C_13  and  N_14
REMARK                            x       y       z     vdW  Elec       q    Type
REMARK                         _______ _______ _______ _____ _____    ______ ____
ROOT
ATOM      1  C   UNL     1       4.517   4.917  17.209  0.00  0.00    +0.000 A 
ATOM      2  C   UNL     1       3.666   3.809  17.057  0.00  0.00    +0.000 A 
ATOM      3  C   UNL     1       2.350   3.830  17.518  0.00  0.00    +0.000 A 
ATOM      4  C   UNL     1       1.846   4.968  18.147  0.00  0.00    +0.000 A 
ATOM      5  C   UNL     1       2.642   6.101  18.322  0.00  0.00    +0.000 A 
ATOM      6  C   UNL     1       3.957   6.057  17.826  0.00  0.00    +0.000 A 
ENDROOT
BRANCH   5   7
ATOM      7  N   UNL     1       2.180   7.249  19.019  0.00  0.00    +0.000 N 
ATOM      8  C   UNL     1       1.809   7.200  20.419  0.00  0.00    +0.000 C 
ATOM      9  C   UNL     1       1.215   8.543  20.648  0.00  0.00    +0.000 C 
ATOM     10  C   UNL     1       1.304   9.289  19.553  0.00  0.00    +0.000 C 
ATOM     11  F   UNL     1       0.865  10.541  19.382  0.00  0.00    +0.000 F 
ATOM     12  C   UNL     1       1.936   8.514  18.474  0.00  0.00    +0.000 C 
ATOM     13  O   UNL     1       2.160   8.956  17.361  0.00  0.00    +0.000 OA
ENDBRANCH   5   7
BRANCH   1  14
ATOM     14  C   UNL     1       6.061   4.887  16.753  0.00  0.00    +0.000 C 
ATOM     15  C   UNL     1       6.809   6.248  16.637  0.00  0.00    +0.000 C 
ATOM     16  O   UNL     1       7.780   5.870  17.635  0.00  0.00    +0.000 OA
ATOM     17  C   UNL     1       7.089   4.633  17.894  0.00  0.00    +0.000 C 
BRANCH  14  18
ATOM     18  C   UNL     1       6.267   3.930  15.564  0.00  0.00    +0.000 C 
BRANCH  18  24
ATOM     19  C   UNL     1       5.709   3.366  12.505  0.00  0.00    +0.000 C 
ATOM     20  N   UNL     1       6.677   4.270  13.059  0.00  0.00    +0.000 N 
ATOM     21  C   UNL     1       7.564   5.010  12.335  0.00  0.00    +0.000 A 
ATOM     22  N   UNL     1       8.291   5.740  13.145  0.00  0.00    +0.000 NA
ATOM     23  N   UNL     1       7.889   5.460  14.427  0.00  0.00    +0.000 NA
ATOM     24  C   UNL     1       6.924   4.564  14.378  0.00  0.00    +0.000 A 
ENDBRANCH  18  24
ENDBRANCH  14  18
ENDBRANCH   1  14
TORSDOF 4
ENDMDL
MODEL 7
REMARK VINA RESULT:      -7.8      1.122      1.366
REMARK  Name = 
REMARK  5 active torsions:
REMARK  status: ('A' for Active; 'I' for Inactive)
REMARK    1  A    between atoms: C_1  and  N_2
REMARK    2  A    between atoms: C_6  and  C_7
REMARK    3  A    between atoms: C_7  and  C_8
REMARK    4  A    between atoms: C_8  and  C_9
REMARK    5  A    between atoms: C_13  and  N_14
REMARK                            x       y       z     vdW  Elec       q    Type
REMARK                         _______ _______ _______ _____ _____    ______ ____
ROOT
ATOM      1  C   UNL     1       5.362   6.262  18.082  0.00  0.00    +0.000 A 
ATOM      2  C   UNL     1       4.741   7.355  17.454  0.00  0.00    +0.000 A 
ATOM      3  C   UNL     1       3.355   7.506  17.453  0.00  0.00    +0.000 A 
ATOM      4  C   UNL     1       2.546   6.562  18.086  0.00  0.00    +0.000 A 
ATOM      5  C   UNL     1       3.107   5.458  18.731  0.00  0.00    +0.000 A 
ATOM      6  C   UNL     1       4.508   5.346  18.734  0.00  0.00    +0.000 A 
ENDROOT
BRANCH   5   7
ATOM      7  N   UNL     1       2.308   4.444  19.323  0.00  0.00    +0.000 N 
ATOM      8  C   UNL     1       2.051   4.402  20.749  0.00  0.00    +0.000 C 
ATOM      9  C   UNL     1       1.362   3.096  20.920  0.00  0.00    +0.000 C 
ATOM     10  C   UNL     1       1.178   2.505  19.745  0.00  0.00    +0.000 C 
ATOM     11  F   UNL     1       0.609   1.317  19.510  0.00  0.00    +0.000 F 
ATOM     12  C   UNL     1       1.749   3.338  18.675  0.00  0.00    +0.000 C 
ATOM     13  O   UNL     1       1.708   3.048  17.493  0.00  0.00    +0.000 OA
ENDBRANCH   5   7
BRANCH   1  14
ATOM     14  C   UNL     1       6.954   6.029  18.029  0.00  0.00    +0.000 C 
ATOM     15  C   UNL     1       7.853   7.247  17.659  0.00  0.00    +0.000 C 
ATOM     16  O   UNL     1       8.550   7.194  18.921  0.00  0.00    +0.000 OA
ATOM     17  C   UNL     1       7.691   6.140  19.396  0.00  0.00    +0.000 C 
BRANCH  14  18
ATOM     18  C   UNL     1       7.298   4.721  17.291  0.00  0.00    +0.000 C 
BRANCH  18  24
ATOM     19  C   UNL     1       4.822   3.395  15.841  0.00  0.00    +0.000 C 
ATOM     20  N   UNL     1       5.897   4.125  15.231  0.00  0.00    +0.000 N 
ATOM     21  C   UNL     1       6.051   4.323  13.891  0.00  0.00    +0.000 A 
ATOM     22  N   UNL     1       7.124   5.042  13.673  0.00  0.00    +0.000 NA
ATOM     23  N   UNL     1       7.701   5.304  14.891  0.00  0.00    +0.000 NA
ATOM     24  C   UNL     1       6.969   4.741  15.831  0.00  0.00    +0.000 A 
ENDBRANCH  18  24
ENDBRANCH  14  18
ENDBRANCH   1  14
TORSDOF 4
ENDMDL
MODEL 8
REMARK VINA RESULT:      -7.8      3.600      6.929
REMARK  Name = 
REMARK  5 active torsions:
REMARK  status: ('A' for Active; 'I' for Inactive)
REMARK    1  A    between atoms: C_1  and  N_2
REMARK    2  A    between atoms: C_6  and  C_7
REMARK    3  A    between atoms: C_7  and  C_8
REMARK    4  A    between atoms: C_8  and  C_9
REMARK    5  A    between atoms: C_13  and  N_14
REMARK                            x       y       z     vdW  Elec       q    Type
REMARK                         _______ _______ _______ _____ _____    ______ ____
ROOT
ATOM      1  C   UNL     1       4.571   4.945  18.080  0.00  0.00    +0.000 A 
ATOM      2  C   UNL     1       5.737   5.074  18.856  0.00  0.00    +0.000 A 
ATOM      3  C   UNL     1       7.005   5.024  18.281  0.00  0.00    +0.000 A 
ATOM      4  C   UNL     1       7.146   4.842  16.905  0.00  0.00    +0.000 A 
ATOM      5  C   UNL     1       6.025   4.713  16.083  0.00  0.00    +0.000 A 
ATOM      6  C   UNL     1       4.759   4.791  16.689  0.00  0.00    +0.000 A 
ENDROOT
BRANCH   5   7
ATOM      7  N   UNL     1       6.136   4.458  14.691  0.00  0.00    +0.000 N 
ATOM      8  C   UNL     1       5.201   3.601  13.989  0.00  0.00    +0.000 C 
ATOM      9  C   UNL     1       5.818   3.476  12.642  0.00  0.00    +0.000 C 
ATOM     10  C   UNL     1       6.914   4.221  12.557  0.00  0.00    +0.000 C 
ATOM     11  F   UNL     1       7.734   4.346  11.508  0.00  0.00    +0.000 F 
ATOM     12  C   UNL     1       7.158   4.895  13.841  0.00  0.00    +0.000 C 
ATOM     13  O   UNL     1       8.087   5.657  14.044  0.00  0.00    +0.000 OA
ENDBRANCH   5   7
BRANCH   1  14
ATOM     14  C   UNL     1       3.100   4.924  18.733  0.00  0.00    +0.000 C 
ATOM     15  C   UNL     1       1.892   4.649  17.788  0.00  0.00    +0.000 C 
ATOM     16  O   UNL     1       1.514   3.461  18.516  0.00  0.00    +0.000 OA
ATOM     17  C   UNL     1       2.671   3.569  19.367  0.00  0.00    +0.000 C 
BRANCH  14  18
ATOM     18  C   UNL     1       2.908   6.104  19.704  0.00  0.00    +0.000 C 
BRANCH  18  24
ATOM     19  C   UNL     1       1.138   8.437  20.892  0.00  0.00    +0.000 C 
ATOM     20  N   UNL     1       1.704   8.361  19.575  0.00  0.00    +0.000 N 
ATOM     21  C   UNL     1       1.522   9.283  18.588  0.00  0.00    +0.000 A 
ATOM     22  N   UNL     1       2.188   8.921  17.519  0.00  0.00    +0.000 NA
ATOM     23  N   UNL     1       2.804   7.728  17.801  0.00  0.00    +0.000 NA
ATOM     24  C   UNL     1       2.503   7.382  19.037  0.00  0.00    +0.000 A 
ENDBRANCH  18  24
ENDBRANCH  14  18
ENDBRANCH   1  14
TORSDOF 4
ENDMDL
MODEL 9
REMARK VINA RESULT:      -7.7      1.003      1.037
REMARK  Name = 
REMARK  5 active torsions:
REMARK  status: ('A' for Active; 'I' for Inactive)
REMARK    1  A    between atoms: C_1  and  N_2
REMARK    2  A    between atoms: C_6  and  C_7
REMARK    3  A    between atoms: C_7  and  C_8
REMARK    4  A    between atoms: C_8  and  C_9
REMARK    5  A    between atoms: C_13  and  N_14
REMARK                            x       y       z     vdW  Elec       q    Type
REMARK                         _______ _______ _______ _____ _____    ______ ____
ROOT
ATOM      1  C   UNL     1       5.398   6.075  18.128  0.00  0.00    +0.000 A 
ATOM      2  C   UNL     1       4.625   6.959  17.354  0.00  0.00    +0.000 A 
ATOM      3  C   UNL     1       3.233   6.965  17.425  0.00  0.00    +0.000 A 
ATOM      4  C   UNL     1       2.570   6.081  18.278  0.00  0.00    +0.000 A 
ATOM      5  C   UNL     1       3.285   5.185  19.075  0.00  0.00    +0.000 A 
ATOM      6  C   UNL     1       4.688   5.219  18.998  0.00  0.00    +0.000 A 
ENDROOT
BRANCH   5   7
ATOM      7  N   UNL     1       2.638   4.228  19.900  0.00  0.00    +0.000 N 
ATOM      8  C   UNL     1       1.282   4.414  20.378  0.00  0.00    +0.000 C 
ATOM      9  C   UNL     1       1.114   3.292  21.338  0.00  0.00    +0.000 C 
ATOM     10  C   UNL     1       2.196   2.521  21.352  0.00  0.00    +0.000 C 
ATOM     11  F   UNL     1       2.411   1.433  22.100  0.00  0.00    +0.000 F 
ATOM     12  C   UNL     1       3.205   3.063  20.429  0.00  0.00    +0.000 C 
ATOM     13  O   UNL     1       4.291   2.548  20.230  0.00  0.00    +0.000 OA
ENDBRANCH   5   7
BRANCH   1  14
ATOM     14  C   UNL     1       7.001   6.000  18.004  0.00  0.00    +0.000 C 
ATOM     15  C   UNL     1       7.759   7.301  17.603  0.00  0.00    +0.000 C 
ATOM     16  O   UNL     1       8.513   7.314  18.834  0.00  0.00    +0.000 OA
ATOM     17  C   UNL     1       7.782   6.180  19.338  0.00  0.00    +0.000 C 
BRANCH  14  18
ATOM     18  C   UNL     1       7.439   4.734  17.244  0.00  0.00    +0.000 C 
BRANCH  18  24
ATOM     19  C   UNL     1       4.930   3.339  15.922  0.00  0.00    +0.000 C 
ATOM     20  N   UNL     1       5.963   4.079  15.255  0.00  0.00    +0.000 N 
ATOM     21  C   UNL     1       6.055   4.259  13.907  0.00  0.00    +0.000 A 
ATOM     22  N   UNL     1       7.104   4.995  13.632  0.00  0.00    +0.000 NA
ATOM     23  N   UNL     1       7.726   5.287  14.820  0.00  0.00    +0.000 NA
ATOM     24  C   UNL     1       7.047   4.725  15.799  0.00  0.00    +0.000 A 
ENDBRANCH  18  24
ENDBRANCH  14  18
ENDBRANCH   1  14
TORSDOF 4
ENDMDL
