MODEL 1
REMARK VINA RESULT:      -8.7      0.000      0.000
REMARK  Name = 
REMARK  5 active torsions:
REMARK  status: ('A' for Active; 'I' for Inactive)
REMARK    1  A    between atoms: C_1  and  C_2
REMARK    2  A    between atoms: C_7  and  C_8
REMARK    3  A    between atoms: N_10  and  C_11
REMARK    4  A    between atoms: C_15  and  C_16
REMARK    5  A    between atoms: N_20  and  C_21
REMARK                            x       y       z     vdW  Elec       q    Type
REMARK                         _______ _______ _______ _____ _____    ______ ____
ROOT
ATOM      1  C   UNL     1       1.704   7.333  20.199  0.00  0.00    +0.000 C 
ATOM      2  O   UNL     1       1.842   6.419  21.011  0.00  0.00    +0.000 OA
ATOM      3  N   UNL     1       2.033   7.200  18.855  0.00  0.00    +0.000 N 
ATOM      4  H   UNL     1       2.213   8.065  18.357  0.00  0.00    +0.000 HD
ENDROOT
BRANCH   1  11
ATOM      5  C   UNL     1      -1.292  13.223  23.274  0.00  0.00    +0.000 C 
ATOM      6  C   UNL     1      -0.600  12.359  22.263  0.00  0.00    +0.000 A 
ATOM      7  C   UNL     1      -0.352  12.831  20.962  0.00  0.00    +0.000 A 
ATOM      8  C   UNL     1       0.281  12.011  20.020  0.00  0.00    +0.000 A 
ATOM      9  C   UNL     1       0.609  10.738  20.469  0.00  0.00    +0.000 A 
ATOM     10  O   UNL     1       1.202   9.717  19.769  0.00  0.00    +0.000 OA
ATOM     11  C   UNL     1       1.248   8.641  20.625  0.00  0.00    +0.000 A 
ATOM     12  C   UNL     1       0.753   8.999  21.868  0.00  0.00    +0.000 A 
ATOM     13  C   UNL     1       0.327  10.334  21.769  0.00  0.00    +0.000 A 
ATOM     14  N   UNL     1      -0.271  11.121  22.690  0.00  0.00    +0.000 NA
ENDBRANCH   1  11
BRANCH   3  15
ATOM     15  C   UNL     1       2.593   6.001  18.358  0.00  0.00    +0.000 A 
ATOM     16  C   UNL     1       1.760   4.912  18.119  0.00  0.00    +0.000 A 
ATOM     17  C   UNL     1       2.282   3.769  17.514  0.00  0.00    +0.000 A 
ATOM     18  C   UNL     1       3.646   3.686  17.222  0.00  0.00    +0.000 A 
ATOM     19  C   UNL     1       4.522   4.738  17.534  0.00  0.00    +0.000 A 
ATOM     20  C   UNL     1       3.970   5.900  18.088  0.00  0.00    +0.000 A 
BRANCH  19  21
ATOM     21  C   UNL     1       5.962   4.526  17.349  0.00  0.00    +0.000 A 
ATOM     22  N   UNL     1       6.840   4.443  18.341  0.00  0.00    +0.000 NA
ATOM     23  N   UNL     1       8.076   4.287  17.780  0.00  0.00    +0.000 NA
ATOM     24  N   UNL     1       7.992   4.244  16.462  0.00  0.00    +0.000 NA
ATOM     25  N   UNL     1       6.681   4.378  16.185  0.00  0.00    +0.000 N 
ATOM     26  C   UNL     1       6.247   4.285  14.819  0.00  0.00    +0.000 C 
ENDBRANCH  19  21
ENDBRANCH   3  15
TORSDOF 3
ENDMDL
MODEL 2
REMARK VINA RESULT:      -8.6      1.039      1.506
REMARK  Name = 
REMARK  5 active torsions:
REMARK  status: ('A' for Active; 'I' for Inactive)
REMARK    1  A    between atoms: C_1  and  C_2
REMARK    2  A    between atoms: C_7  and  C_8
REMARK    3  A    between atoms: N_10  and  C_11
REMARK    4  A    between atoms: C_15  and  C_16
REMARK    5  A    between atoms: N_20  and  C_21
REMARK                            x       y       z     vdW  Elec       q    Type
REMARK                         _______ _______ _______ _____ _____    ______ ____
ROOT
ATOM      1  C   UNL     1       1.812   8.004  19.215  0.00  0.00    +0.000 C 
ATOM      2  O   UNL     1       2.236   8.288  18.095  0.00  0.00    +0.000 OA
ATOM      3  N   UNL     1       1.942   6.734  19.767  0.00  0.00    +0.000 N 
ATOM      4  H   UNL     1       1.286   6.505  20.505  0.00  0.00    +0.000 HD
ENDROOT
BRANCH   1  11
ATOM      5  C   UNL     1      -0.947  13.785  22.691  0.00  0.00    +0.000 C 
ATOM      6  C   UNL     1      -0.665  12.355  22.338  0.00  0.00    +0.000 A 
ATOM      7  C   UNL     1      -1.090  11.309  23.175  0.00  0.00    +0.000 A 
ATOM      8  C   UNL     1      -0.808   9.978  22.844  0.00  0.00    +0.000 A 
ATOM      9  C   UNL     1      -0.086   9.800  21.671  0.00  0.00    +0.000 A 
ATOM     10  O   UNL     1       0.357   8.626  21.116  0.00  0.00    +0.000 OA
ATOM     11  C   UNL     1       1.083   8.977  20.001  0.00  0.00    +0.000 A 
ATOM     12  C   UNL     1       1.041  10.350  19.819  0.00  0.00    +0.000 A 
ATOM     13  C   UNL     1       0.309  10.883  20.893  0.00  0.00    +0.000 A 
ATOM     14  N   UNL     1       0.032  12.170  21.196  0.00  0.00    +0.000 NA
ENDBRANCH   1  11
BRANCH   3  15
ATOM     15  C   UNL     1       2.537   5.680  19.036  0.00  0.00    +0.000 A 
ATOM     16  C   UNL     1       1.742   4.623  18.604  0.00  0.00    +0.000 A 
ATOM     17  C   UNL     1       2.292   3.643  17.778  0.00  0.00    +0.000 A 
ATOM     18  C   UNL     1       3.651   3.679  17.451  0.00  0.00    +0.000 A 
ATOM     19  C   UNL     1       4.492   4.688  17.946  0.00  0.00    +0.000 A 
ATOM     20  C   UNL     1       3.909   5.695  18.726  0.00  0.00    +0.000 A 
BRANCH  19  21
ATOM     21  C   UNL     1       5.934   4.580  17.697  0.00  0.00    +0.000 A 
ATOM     22  N   UNL     1       6.847   4.414  18.646  0.00  0.00    +0.000 NA
ATOM     23  N   UNL     1       8.070   4.400  18.037  0.00  0.00    +0.000 NA
ATOM     24  N   UNL     1       7.945   4.529  16.728  0.00  0.00    +0.000 NA
ATOM     25  N   UNL     1       6.621   4.627  16.505  0.00  0.00    +0.000 N 
ATOM     26  C   UNL     1       6.147   4.693  15.151  0.00  0.00    +0.000 C 
ENDBRANCH  19  21
ENDBRANCH   3  15
TORSDOF 3
ENDMDL
MODEL 3
REMARK VINA RESULT:      -8.6      5.830      7.480
REMARK  Name = 
REMARK  5 active torsions:
REMARK  status: ('A' for Active; 'I' for Inactive)
REMARK    1  A    between atoms: C_1  and  C_2
REMARK    2  A    between atoms: C_7  and  C_8
REMARK    3  A    between atoms: N_10  and  C_11
REMARK    4  A    between atoms: C_15  and  C_16
REMARK    5  A    between atoms: N_20  and  C_21
REMARK                            x       y       z     vdW  Elec       q    Type
REMARK                         _______ _______ _______ _____ _____    ______ ____
ROOT
ATOM      1  C   UNL     1       7.882   7.882  18.177  0.00  0.00    +0.000 C 
ATOM      2  O   UNL     1       8.351   6.921  18.787  0.00  0.00    +0.000 OA
ATOM      3  N   UNL     1       6.851   7.753  17.253  0.00  0.00    +0.000 N 
ATOM      4  H   UNL     1       6.772   8.502  16.574  0.00  0.00    +0.000 HD
ENDROOT
BRANCH   1  11
ATOM      5  C   UNL     1      10.448  14.686  17.691  0.00  0.00    +0.000 C 
ATOM      6  C   UNL     1      10.192  13.312  18.233  0.00  0.00    +0.000 A 
ATOM      7  C   UNL     1      10.886  12.841  19.361  0.00  0.00    +0.000 A 
ATOM      8  C   UNL     1      10.651  11.551  19.851  0.00  0.00    +0.000 A 
ATOM      9  C   UNL     1       9.720  10.808  19.137  0.00  0.00    +0.000 A 
ATOM     10  O   UNL     1       9.312   9.517  19.360  0.00  0.00    +0.000 OA
ATOM     11  C   UNL     1       8.436   9.209  18.345  0.00  0.00    +0.000 A 
ATOM     12  C   UNL     1       8.242  10.314  17.533  0.00  0.00    +0.000 A 
ATOM     13  C   UNL     1       9.074  11.334  18.024  0.00  0.00    +0.000 A 
ATOM     14  N   UNL     1       9.284  12.582  17.551  0.00  0.00    +0.000 NA
ENDBRANCH   1  11
BRANCH   3  15
ATOM     15  C   UNL     1       6.316   6.485  16.931  0.00  0.00    +0.000 A 
ATOM     16  C   UNL     1       6.918   5.731  15.928  0.00  0.00    +0.000 A 
ATOM     17  C   UNL     1       6.476   4.430  15.688  0.00  0.00    +0.000 A 
ATOM     18  C   UNL     1       5.386   3.915  16.394  0.00  0.00    +0.000 A 
ATOM     19  C   UNL     1       4.707   4.689  17.349  0.00  0.00    +0.000 A 
ATOM     20  C   UNL     1       5.201   5.972  17.617  0.00  0.00    +0.000 A 
BRANCH  19  21
ATOM     21  C   UNL     1       3.475   4.149  17.938  0.00  0.00    +0.000 A 
ATOM     22  N   UNL     1       2.252   4.458  17.528  0.00  0.00    +0.000 NA
ATOM     23  N   UNL     1       1.371   3.797  18.339  0.00  0.00    +0.000 NA
ATOM     24  N   UNL     1       2.013   3.062  19.229  0.00  0.00    +0.000 NA
ATOM     25  N   UNL     1       3.321   3.262  18.980  0.00  0.00    +0.000 N 
ATOM     26  C   UNL     1       4.293   2.524  19.736  0.00  0.00    +0.000 C 
ENDBRANCH  19  21
ENDBRANCH   3  15
TORSDOF 3
ENDMDL
MODEL 4
REMARK VINA RESULT:      -8.5      1.074      1.119
REMARK  Name = 
REMARK  5 active torsions:
REMARK  status: ('A' for Active; 'I' for Inactive)
REMARK    1  A    between atoms: C_1  and  C_2
REMARK    2  A    between atoms: C_7  and  C_8
REMARK    3  A    between atoms: N_10  and  C_11
REMARK    4  A    between atoms: C_15  and  C_16
REMARK    5  A    between atoms: N_20  and  C_21
REMARK                            x       y       z     vdW  Elec       q    Type
REMARK                         _______ _______ _______ _____ _____    ______ ____
ROOT
ATOM      1  C   UNL     1       1.916   8.309  18.708  0.00  0.00    +0.000 C 
ATOM      2  O   UNL     1       2.209   8.419  17.517  0.00  0.00    +0.000 OA
ATOM      3  N   UNL     1       2.116   7.134  19.425  0.00  0.00    +0.000 N 
ATOM      4  H   UNL     1       1.549   7.025  20.258  0.00  0.00    +0.000 HD
ENDROOT
BRANCH   1  11
ATOM      5  C   UNL     1      -1.380  12.900  23.310  0.00  0.00    +0.000 C 
ATOM      6  C   UNL     1      -0.879  12.309  22.026  0.00  0.00    +0.000 A 
ATOM      7  C   UNL     1      -1.278  12.837  20.786  0.00  0.00    +0.000 A 
ATOM      8  C   UNL     1      -0.818  12.269  19.592  0.00  0.00    +0.000 A 
ATOM      9  C   UNL     1       0.020  11.172  19.745  0.00  0.00    +0.000 A 
ATOM     10  O   UNL     1       0.595  10.400  18.766  0.00  0.00    +0.000 OA
ATOM     11  C   UNL     1       1.274   9.396  19.418  0.00  0.00    +0.000 A 
ATOM     12  C   UNL     1       1.184   9.573  20.789  0.00  0.00    +0.000 A 
ATOM     13  C   UNL     1       0.369  10.697  21.004  0.00  0.00    +0.000 A 
ATOM     14  N   UNL     1      -0.059  11.245  22.161  0.00  0.00    +0.000 NA
ENDBRANCH   1  11
BRANCH   3  15
ATOM     15  C   UNL     1       2.630   5.977  18.796  0.00  0.00    +0.000 A 
ATOM     16  C   UNL     1       1.782   4.900  18.562  0.00  0.00    +0.000 A 
ATOM     17  C   UNL     1       2.247   3.805  17.833  0.00  0.00    +0.000 A 
ATOM     18  C   UNL     1       3.578   3.755  17.409  0.00  0.00    +0.000 A 
ATOM     19  C   UNL     1       4.476   4.792  17.709  0.00  0.00    +0.000 A 
ATOM     20  C   UNL     1       3.976   5.908  18.392  0.00  0.00    +0.000 A 
BRANCH  19  21
ATOM     21  C   UNL     1       5.894   4.606  17.376  0.00  0.00    +0.000 A 
ATOM     22  N   UNL     1       6.852   4.400  18.271  0.00  0.00    +0.000 NA
ATOM     23  N   UNL     1       8.034   4.317  17.589  0.00  0.00    +0.000 NA
ATOM     24  N   UNL     1       7.837   4.442  16.289  0.00  0.00    +0.000 NA
ATOM     25  N   UNL     1       6.509   4.608  16.145  0.00  0.00    +0.000 N 
ATOM     26  C   UNL     1       5.958   4.688  14.821  0.00  0.00    +0.000 C 
ENDBRANCH  19  21
ENDBRANCH   3  15
TORSDOF 3
ENDMDL
MODEL 5
REMARK VINA RESULT:      -8.5      5.912      7.095
REMARK  Name = 
REMARK  5 active torsions:
REMARK  status: ('A' for Active; 'I' for Inactive)
REMARK    1  A    between atoms: C_1  and  C_2
REMARK    2  A    between atoms: C_7  and  C_8
REMARK    3  A    between atoms: N_10  and  C_11
REMARK    4  A    between atoms: C_15  and  C_16
REMARK    5  A    between atoms: N_20  and  C_21
REMARK                            x       y       z     vdW  Elec       q    Type
REMARK                         _______ _______ _______ _____ _____    ______ ____
ROOT
ATOM      1  C   UNL     1       7.660   7.576  17.959  0.00  0.00    +0.000 C 
ATOM      2  O   UNL     1       8.057   6.623  18.629  0.00  0.00    +0.000 OA
ATOM      3  N   UNL     1       6.708   7.443  16.954  0.00  0.00    +0.000 N 
ATOM      4  H   UNL     1       6.703   8.176  16.253  0.00  0.00    +0.000 HD
ENDROOT
BRANCH   1  11
ATOM      5  C   UNL     1      10.728  13.813  20.151  0.00  0.00    +0.000 C 
ATOM      6  C   UNL     1       9.931  12.849  19.325  0.00  0.00    +0.000 A 
ATOM      7  C   UNL     1       9.120  13.303  18.270  0.00  0.00    +0.000 A 
ATOM      8  C   UNL     1       8.366  12.397  17.515  0.00  0.00    +0.000 A 
ATOM      9  C   UNL     1       8.478  11.068  17.902  0.00  0.00    +0.000 A 
ATOM     10  O   UNL     1       7.842   9.973  17.373  0.00  0.00    +0.000 OA
ATOM     11  C   UNL     1       8.225   8.897  18.142  0.00  0.00    +0.000 A 
ATOM     12  C   UNL     1       9.142   9.299  19.099  0.00  0.00    +0.000 A 
ATOM     13  C   UNL     1       9.295  10.689  18.961  0.00  0.00    +0.000 A 
ATOM     14  N   UNL     1      10.036  11.553  19.689  0.00  0.00    +0.000 NA
ENDBRANCH   1  11
BRANCH   3  15
ATOM     15  C   UNL     1       6.177   6.177  16.618  0.00  0.00    +0.000 A 
ATOM     16  C   UNL     1       6.749   5.459  15.572  0.00  0.00    +0.000 A 
ATOM     17  C   UNL     1       6.314   4.159  15.314  0.00  0.00    +0.000 A 
ATOM     18  C   UNL     1       5.259   3.610  16.048  0.00  0.00    +0.000 A 
ATOM     19  C   UNL     1       4.608   4.348  17.050  0.00  0.00    +0.000 A 
ATOM     20  C   UNL     1       5.097   5.630  17.334  0.00  0.00    +0.000 A 
BRANCH  19  21
ATOM     21  C   UNL     1       3.408   3.775  17.672  0.00  0.00    +0.000 A 
ATOM     22  N   UNL     1       2.194   3.826  17.140  0.00  0.00    +0.000 NA
ATOM     23  N   UNL     1       1.338   3.228  18.022  0.00  0.00    +0.000 NA
ATOM     24  N   UNL     1       1.990   2.783  19.081  0.00  0.00    +0.000 NA
ATOM     25  N   UNL     1       3.279   3.105  18.867  0.00  0.00    +0.000 N 
ATOM     26  C   UNL     1       4.269   2.675  19.814  0.00  0.00    +0.000 C 
ENDBRANCH  19  21
ENDBRANCH   3  15
TORSDOF 3
ENDMDL
MODEL 6
REMARK VINA RESULT:      -8.4      1.347      1.362
REMARK  Name = 
REMARK  5 active torsions:
REMARK  status: ('A' for Active; 'I' for Inactive)
REMARK    1  A    between atoms: C_1  and  C_2
REMARK    2  A    between atoms: C_7  and  C_8
REMARK    3  A    between atoms: N_10  and  C_11
REMARK    4  A    between atoms: C_15  and  C_16
REMARK    5  A    between atoms: N_20  and  C_21
REMARK                            x       y       z     vdW  Elec       q    Type
REMARK                         _______ _______ _______ _____ _____    ______ ____
ROOT
ATOM      1  C   UNL     1       2.101   7.669  19.651  0.00  0.00    +0.000 C 
ATOM      2  O   UNL     1       2.590   7.731  18.523  0.00  0.00    +0.000 OA
ATOM      3  N   UNL     1       2.237   6.552  20.468  0.00  0.00    +0.000 N 
ATOM      4  H   UNL     1       1.541   6.454  21.198  0.00  0.00    +0.000 HD
ENDROOT
BRANCH   1  11
ATOM      5  C   UNL     1      -2.136  12.315  23.337  0.00  0.00    +0.000 C 
ATOM      6  C   UNL     1      -1.419  11.668  22.190  0.00  0.00    +0.000 A 
ATOM      7  C   UNL     1      -1.682  12.056  20.864  0.00  0.00    +0.000 A 
ATOM      8  C   UNL     1      -1.019  11.435  19.799  0.00  0.00    +0.000 A 
ATOM      9  C   UNL     1      -0.130  10.431  20.161  0.00  0.00    +0.000 A 
ATOM     10  O   UNL     1       0.631   9.635  19.342  0.00  0.00    +0.000 OA
ATOM     11  C   UNL     1       1.288   8.751  20.167  0.00  0.00    +0.000 A 
ATOM     12  C   UNL     1       0.996   9.030  21.492  0.00  0.00    +0.000 A 
ATOM     13  C   UNL     1       0.077  10.093  21.494  0.00  0.00    +0.000 A 
ATOM     14  N   UNL     1      -0.548  10.694  22.529  0.00  0.00    +0.000 NA
ENDBRANCH   1  11
BRANCH   3  15
ATOM     15  C   UNL     1       2.915   5.398  20.016  0.00  0.00    +0.000 A 
ATOM     16  C   UNL     1       2.411   4.143  20.345  0.00  0.00    +0.000 A 
ATOM     17  C   UNL     1       3.000   3.002  19.801  0.00  0.00    +0.000 A 
ATOM     18  C   UNL     1       4.137   3.112  18.995  0.00  0.00    +0.000 A 
ATOM     19  C   UNL     1       4.716   4.361  18.720  0.00  0.00    +0.000 A 
ATOM     20  C   UNL     1       4.076   5.500  19.228  0.00  0.00    +0.000 A 
BRANCH  19  21
ATOM     21  C   UNL     1       5.996   4.396  18.003  0.00  0.00    +0.000 A 
ATOM     22  N   UNL     1       7.183   4.445  18.593  0.00  0.00    +0.000 NA
ATOM     23  N   UNL     1       8.126   4.506  17.606  0.00  0.00    +0.000 NA
ATOM     24  N   UNL     1       7.561   4.471  16.412  0.00  0.00    +0.000 NA
ATOM     25  N   UNL     1       6.238   4.389  16.648  0.00  0.00    +0.000 N 
ATOM     26  C   UNL     1       5.342   4.246  15.535  0.00  0.00    +0.000 C 
ENDBRANCH  19  21
ENDBRANCH   3  15
TORSDOF 3
ENDMDL
MODEL 7
REMARK VINA RESULT:      -8.3      5.881      7.392
REMARK  Name = 
REMARK  5 active torsions:
REMARK  status: ('A' for Active; 'I' for Inactive)
REMARK    1  A    between atoms: C_1  and  C_2
REMARK    2  A    between atoms: C_7  and  C_8
REMARK    3  A    between atoms: N_10  and  C_11
REMARK    4  A    between atoms: C_15  and  C_16
REMARK    5  A    between atoms: N_20  and  C_21
REMARK                            x       y       z     vdW  Elec       q    Type
REMARK                         _______ _______ _______ _____ _____    ______ ____
ROOT
ATOM      1  C   UNL     1       7.963   7.935  18.217  0.00  0.00    +0.000 C 
ATOM      2  O   UNL     1       8.446   6.983  18.829  0.00  0.00    +0.000 OA
ATOM      3  N   UNL     1       6.930   7.789  17.297  0.00  0.00    +0.000 N 
ATOM      4  H   UNL     1       6.839   8.534  16.616  0.00  0.00    +0.000 HD
ENDROOT
BRANCH   1  11
ATOM      5  C   UNL     1      10.446  14.767  17.693  0.00  0.00    +0.000 C 
ATOM      6  C   UNL     1      10.205  13.393  18.243  0.00  0.00    +0.000 A 
ATOM      7  C   UNL     1      10.904  12.939  19.375  0.00  0.00    +0.000 A 
ATOM      8  C   UNL     1      10.684  11.648  19.873  0.00  0.00    +0.000 A 
ATOM      9  C   UNL     1       9.763  10.889  19.162  0.00  0.00    +0.000 A 
ATOM     10  O   UNL     1       9.371   9.595  19.393  0.00  0.00    +0.000 OA
ATOM     11  C   UNL     1       8.500   9.270  18.378  0.00  0.00    +0.000 A 
ATOM     12  C   UNL     1       8.294  10.368  17.558  0.00  0.00    +0.000 A 
ATOM     13  C   UNL     1       9.112  11.401  18.045  0.00  0.00    +0.000 A 
ATOM     14  N   UNL     1       9.308  12.648  17.564  0.00  0.00    +0.000 NA
ENDBRANCH   1  11
BRANCH   3  15
ATOM     15  C   UNL     1       6.411   6.513  16.982  0.00  0.00    +0.000 A 
ATOM     16  C   UNL     1       6.642   5.982  15.717  0.00  0.00    +0.000 A 
ATOM     17  C   UNL     1       6.242   4.675  15.438  0.00  0.00    +0.000 A 
ATOM     18  C   UNL     1       5.544   3.932  16.395  0.00  0.00    +0.000 A 
ATOM     19  C   UNL     1       5.223   4.479  17.647  0.00  0.00    +0.000 A 
ATOM     20  C   UNL     1       5.683   5.771  17.930  0.00  0.00    +0.000 A 
BRANCH  19  21
ATOM     21  C   UNL     1       4.353   3.708  18.544  0.00  0.00    +0.000 A 
ATOM     22  N   UNL     1       4.787   2.982  19.567  0.00  0.00    +0.000 NA
ATOM     23  N   UNL     1       3.697   2.383  20.133  0.00  0.00    +0.000 NA
ATOM     24  N   UNL     1       2.588   2.735  19.506  0.00  0.00    +0.000 NA
ATOM     25  N   UNL     1       2.983   3.569  18.526  0.00  0.00    +0.000 N 
ATOM     26  C   UNL     1       1.987   4.200  17.708  0.00  0.00    +0.000 C 
ENDBRANCH  19  21
ENDBRANCH   3  15
TORSDOF 3
ENDMDL
MODEL 8
REMARK VINA RESULT:      -8.3      1.550      1.643
REMARK  Name = 
REMARK  5 active torsions:
REMARK  status: ('A' for Active; 'I' for Inactive)
REMARK    1  A    between atoms: C_1  and  C_2
REMARK    2  A    between atoms: C_7  and  C_8
REMARK    3  A    between atoms: N_10  and  C_11
REMARK    4  A    between atoms: C_15  and  C_16
REMARK    5  A    between atoms: N_20  and  C_21
REMARK                            x       y       z     vdW  Elec       q    Type
REMARK                         _______ _______ _______ _____ _____    ______ ____
ROOT
ATOM      1  C   UNL     1       1.924   8.686  18.279  0.00  0.00    +0.000 C 
ATOM      2  O   UNL     1       2.266   8.696  17.096  0.00  0.00    +0.000 OA
ATOM      3  N   UNL     1       2.070   7.568  19.093  0.00  0.00    +0.000 N 
ATOM      4  H   UNL     1       1.469   7.535  19.908  0.00  0.00    +0.000 HD
ENDROOT
BRANCH   1  11
ATOM      5  C   UNL     1      -2.392  13.651  21.417  0.00  0.00    +0.000 C 
ATOM      6  C   UNL     1      -1.253  13.064  20.638  0.00  0.00    +0.000 A 
ATOM      7  C   UNL     1      -0.380  13.889  19.906  0.00  0.00    +0.000 A 
ATOM      8  C   UNL     1       0.671  13.330  19.169  0.00  0.00    +0.000 A 
ATOM      9  C   UNL     1       0.754  11.945  19.214  0.00  0.00    +0.000 A 
ATOM     10  O   UNL     1       1.651  11.127  18.574  0.00  0.00    +0.000 OA
ATOM     11  C   UNL     1       1.278   9.837  18.875  0.00  0.00    +0.000 A 
ATOM     12  C   UNL     1       0.201   9.844  19.747  0.00  0.00    +0.000 A 
ATOM     13  C   UNL     1      -0.149  11.189  19.954  0.00  0.00    +0.000 A 
ATOM     14  N   UNL     1      -1.158  11.718  20.678  0.00  0.00    +0.000 NA
ENDBRANCH   1  11
BRANCH   3  15
ATOM     15  C   UNL     1       2.585   6.356  18.578  0.00  0.00    +0.000 A 
ATOM     16  C   UNL     1       1.713   5.298  18.339  0.00  0.00    +0.000 A 
ATOM     17  C   UNL     1       2.189   4.144  17.717  0.00  0.00    +0.000 A 
ATOM     18  C   UNL     1       3.547   4.019  17.408  0.00  0.00    +0.000 A 
ATOM     19  C   UNL     1       4.461   5.038  17.719  0.00  0.00    +0.000 A 
ATOM     20  C   UNL     1       3.954   6.212  18.291  0.00  0.00    +0.000 A 
BRANCH  19  21
ATOM     21  C   UNL     1       5.891   4.780  17.515  0.00  0.00    +0.000 A 
ATOM     22  N   UNL     1       6.761   4.570  18.496  0.00  0.00    +0.000 NA
ATOM     23  N   UNL     1       7.991   4.411  17.922  0.00  0.00    +0.000 NA
ATOM     24  N   UNL     1       7.909   4.491  16.605  0.00  0.00    +0.000 NA
ATOM     25  N   UNL     1       6.607   4.706  16.342  0.00  0.00    +0.000 N 
ATOM     26  C   UNL     1       6.174   4.755  14.974  0.00  0.00    +0.000 C 
ENDBRANCH  19  21
ENDBRANCH   3  15
TORSDOF 3
ENDMDL
MODEL 9
REMARK VINA RESULT:      -8.3      1.427      2.073
REMARK  Name = 
REMARK  5 active torsions:
REMARK  status: ('A' for Active; 'I' for Inactive)
REMARK    1  A    between atoms: C_1  and  C_2
REMARK    2  A    between atoms: C_7  and  C_8
REMARK    3  A    between atoms: N_10  and  C_11
REMARK    4  A    between atoms: C_15  and  C_16
REMARK    5  A    between atoms: N_20  and  C_21
REMARK                            x       y       z     vdW  Elec       q    Type
REMARK                         _______ _______ _______ _____ _____    ______ ____
ROOT
ATOM      1  C   UNL     1       1.661   8.476  18.763  0.00  0.00    +0.000 C 
ATOM      2  O   UNL     1       1.682   8.569  17.536  0.00  0.00    +0.000 OA
ATOM      3  N   UNL     1       2.163   7.370  19.441  0.00  0.00    +0.000 N 
ATOM      4  H   UNL     1       1.803   7.227  20.378  0.00  0.00    +0.000 HD
ENDROOT
BRANCH   1  11
ATOM      5  C   UNL     1      -0.425  14.419  22.432  0.00  0.00    +0.000 C 
ATOM      6  C   UNL     1      -0.322  12.981  22.019  0.00  0.00    +0.000 A 
ATOM      7  C   UNL     1      -0.908  11.965  22.795  0.00  0.00    +0.000 A 
ATOM      8  C   UNL     1      -0.792  10.624  22.410  0.00  0.00    +0.000 A 
ATOM      9  C   UNL     1      -0.062  10.402  21.250  0.00  0.00    +0.000 A 
ATOM     10  O   UNL     1       0.240   9.204  20.653  0.00  0.00    +0.000 OA
ATOM     11  C   UNL     1       1.041   9.503  19.575  0.00  0.00    +0.000 A 
ATOM     12  C   UNL     1       1.186  10.876  19.456  0.00  0.00    +0.000 A 
ATOM     13  C   UNL     1       0.496  11.455  20.534  0.00  0.00    +0.000 A 
ATOM     14  N   UNL     1       0.381  12.753  20.889  0.00  0.00    +0.000 NA
ENDBRANCH   1  11
BRANCH   3  15
ATOM     15  C   UNL     1       2.686   6.262  18.737  0.00  0.00    +0.000 A 
ATOM     16  C   UNL     1       2.091   5.015  18.899  0.00  0.00    +0.000 A 
ATOM     17  C   UNL     1       2.520   3.943  18.117  0.00  0.00    +0.000 A 
ATOM     18  C   UNL     1       3.592   4.099  17.234  0.00  0.00    +0.000 A 
ATOM     19  C   UNL     1       4.265   5.326  17.117  0.00  0.00    +0.000 A 
ATOM     20  C   UNL     1       3.783   6.406  17.868  0.00  0.00    +0.000 A 
BRANCH  19  21
ATOM     21  C   UNL     1       5.480   5.381  16.294  0.00  0.00    +0.000 A 
ATOM     22  N   UNL     1       5.497   5.704  15.007  0.00  0.00    +0.000 NA
ATOM     23  N   UNL     1       6.792   5.605  14.580  0.00  0.00    +0.000 NA
ATOM     24  N   UNL     1       7.589   5.253  15.573  0.00  0.00    +0.000 NA
ATOM     25  N   UNL     1       6.786   5.125  16.646  0.00  0.00    +0.000 N 
ATOM     26  C   UNL     1       7.373   4.829  17.922  0.00  0.00    +0.000 C 
ENDBRANCH  19  21
ENDBRANCH   3  15
TORSDOF 3
ENDMDL
