MODEL 1
REMARK VINA RESULT:      -8.3      0.000      0.000
REMARK  Name = 
REMARK  5 active torsions:
REMARK  status: ('A' for Active; 'I' for Inactive)
REMARK    1  A    between atoms: C_2  and  C_13
REMARK    2  A    between atoms: N_3  and  C_4
REMARK    3  A    between atoms: C_17  and  O_18
REMARK    4  A    between atoms: O_18  and  C_19
REMARK    5  A    between atoms: C_19  and  C_20
REMARK                            x       y       z     vdW  Elec       q    Type
REMARK                         _______ _______ _______ _____ _____    ______ ____
ROOT
ATOM      1  O   UNL     1       1.514   5.887  20.876  0.00  0.00    +0.000 OA
ATOM      2  C   UNL     1       2.120   6.351  19.916  0.00  0.00    +0.000 C 
ATOM      3  N   UNL     1       2.048   7.657  19.455  0.00  0.00    +0.000 N 
ATOM      4  H   UNL     1       2.517   7.848  18.572  0.00  0.00    +0.000 HD
ENDROOT
BRANCH   3   5
ATOM      5  C   UNL     1       1.264   8.681  20.034  0.00  0.00    +0.000 A 
ATOM      6  C   UNL     1       0.724   9.730  19.274  0.00  0.00    +0.000 A 
ATOM      7  C   UNL     1       0.017  10.792  19.848  0.00  0.00    +0.000 A 
ATOM      8  C   UNL     1      -0.123  10.751  21.229  0.00  0.00    +0.000 A 
ATOM      9  N   UNL     1      -0.692  11.600  22.134  0.00  0.00    +0.000 N 
ATOM     10  N   UNL     1      -0.583  11.138  23.390  0.00  0.00    +0.000 NA
ATOM     11  N   UNL     1       0.056   9.975  23.331  0.00  0.00    +0.000 NA
ATOM     12  C   UNL     1       0.358   9.716  22.019  0.00  0.00    +0.000 A 
ATOM     13  C   UNL     1       1.043   8.644  21.421  0.00  0.00    +0.000 A 
ATOM     14  H   UNL     1      -1.147  12.490  21.975  0.00  0.00    +0.000 HD
ENDBRANCH   3   5
BRANCH   2  15
ATOM     15  C   UNL     1       2.990   5.435  19.115  0.00  0.00    +0.000 A 
ATOM     16  C   UNL     1       2.407   4.695  18.088  0.00  0.00    +0.000 A 
ATOM     17  C   UNL     1       3.203   3.811  17.372  0.00  0.00    +0.000 A 
ATOM     18  C   UNL     1       4.544   3.690  17.715  0.00  0.00    +0.000 A 
ATOM     19  C   UNL     1       5.041   4.490  18.735  0.00  0.00    +0.000 A 
ATOM     20  N   UNL     1       4.307   5.371  19.447  0.00  0.00    +0.000 NA
BRANCH  19  21
ATOM     21  O   UNL     1       6.376   4.327  19.038  0.00  0.00    +0.000 OA
BRANCH  21  22
ATOM     22  C   UNL     1       7.025   5.558  19.380  0.00  0.00    +0.000 C 
BRANCH  22  23
ATOM     23  C   UNL     1       7.428   6.426  18.192  0.00  0.00    +0.000 C 
ATOM     24  F   UNL     1       6.446   7.246  17.764  0.00  0.00    +0.000 F 
ATOM     25  F   UNL     1       8.483   7.212  18.525  0.00  0.00    +0.000 F 
ATOM     26  F   UNL     1       7.822   5.664  17.141  0.00  0.00    +0.000 F 
ENDBRANCH  22  23
ENDBRANCH  21  22
ENDBRANCH  19  21
ENDBRANCH   2  15
TORSDOF 5
ENDMDL
MODEL 2
REMARK VINA RESULT:      -8.1      4.088      8.315
REMARK  Name = 
REMARK  5 active torsions:
REMARK  status: ('A' for Active; 'I' for Inactive)
REMARK    1  A    between atoms: C_2  and  C_13
REMARK    2  A    between atoms: N_3  and  C_4
REMARK    3  A    between atoms: C_17  and  O_18
REMARK    4  A    between atoms: O_18  and  C_19
REMARK    5  A    between atoms: C_19  and  C_20
REMARK                            x       y       z     vdW  Elec       q    Type
REMARK                         _______ _______ _______ _____ _____    ______ ____
ROOT
ATOM      1  O   UNL     1       2.534   6.111  20.281  0.00  0.00    +0.000 OA
ATOM      2  C   UNL     1       2.388   7.072  19.532  0.00  0.00    +0.000 C 
ATOM      3  N   UNL     1       2.964   7.230  18.281  0.00  0.00    +0.000 N 
ATOM      4  H   UNL     1       2.841   8.141  17.842  0.00  0.00    +0.000 HD
ENDROOT
BRANCH   3   5
ATOM      5  C   UNL     1       3.815   6.292  17.653  0.00  0.00    +0.000 A 
ATOM      6  C   UNL     1       3.449   4.948  17.478  0.00  0.00    +0.000 A 
ATOM      7  C   UNL     1       4.314   3.994  16.935  0.00  0.00    +0.000 A 
ATOM      8  C   UNL     1       5.573   4.455  16.572  0.00  0.00    +0.000 A 
ATOM      9  N   UNL     1       6.680   3.839  16.062  0.00  0.00    +0.000 N 
ATOM     10  N   UNL     1       7.688   4.704  15.869  0.00  0.00    +0.000 NA
ATOM     11  N   UNL     1       7.260   5.904  16.244  0.00  0.00    +0.000 NA
ATOM     12  C   UNL     1       5.968   5.780  16.687  0.00  0.00    +0.000 A 
ATOM     13  C   UNL     1       5.075   6.730  17.212  0.00  0.00    +0.000 A 
ATOM     14  H   UNL     1       6.821   2.861  15.839  0.00  0.00    +0.000 HD
ENDBRANCH   3   5
BRANCH   2  15
ATOM     15  C   UNL     1       1.553   8.219  20.005  0.00  0.00    +0.000 A 
ATOM     16  C   UNL     1       1.170   8.253  21.344  0.00  0.00    +0.000 A 
ATOM     17  C   UNL     1       0.358   9.294  21.777  0.00  0.00    +0.000 A 
ATOM     18  C   UNL     1      -0.049  10.250  20.856  0.00  0.00    +0.000 A 
ATOM     19  C   UNL     1       0.407  10.148  19.549  0.00  0.00    +0.000 A 
ATOM     20  N   UNL     1       1.207   9.163  19.089  0.00  0.00    +0.000 NA
BRANCH  19  21
ATOM     21  O   UNL     1      -0.030  11.121  18.676  0.00  0.00    +0.000 OA
BRANCH  21  22
ATOM     22  C   UNL     1      -1.458  11.179  18.573  0.00  0.00    +0.000 C 
BRANCH  22  23
ATOM     23  C   UNL     1      -2.051  10.403  17.400  0.00  0.00    +0.000 C 
ATOM     24  F   UNL     1      -1.241   9.432  16.930  0.00  0.00    +0.000 F 
ATOM     25  F   UNL     1      -3.210   9.805  17.775  0.00  0.00    +0.000 F 
ATOM     26  F   UNL     1      -2.352  11.230  16.368  0.00  0.00    +0.000 F 
ENDBRANCH  22  23
ENDBRANCH  21  22
ENDBRANCH  19  21
ENDBRANCH   2  15
TORSDOF 5
ENDMDL
MODEL 3
REMARK VINA RESULT:      -8.1      6.133      7.613
REMARK  Name = 
REMARK  5 active torsions:
REMARK  status: ('A' for Active; 'I' for Inactive)
REMARK    1  A    between atoms: C_2  and  C_13
REMARK    2  A    between atoms: N_3  and  C_4
REMARK    3  A    between atoms: C_17  and  O_18
REMARK    4  A    between atoms: O_18  and  C_19
REMARK    5  A    between atoms: C_19  and  C_20
REMARK                            x       y       z     vdW  Elec       q    Type
REMARK                         _______ _______ _______ _____ _____    ______ ____
ROOT
ATOM      1  O   UNL     1       8.469   7.205  18.822  0.00  0.00    +0.000 OA
ATOM      2  C   UNL     1       7.822   7.718  17.915  0.00  0.00    +0.000 C 
ATOM      3  N   UNL     1       7.794   9.065  17.587  0.00  0.00    +0.000 N 
ATOM      4  H   UNL     1       7.109   9.343  16.887  0.00  0.00    +0.000 HD
ENDROOT
BRANCH   3   5
ATOM      5  C   UNL     1       8.528  10.077  18.247  0.00  0.00    +0.000 A 
ATOM      6  C   UNL     1       9.151   9.863  19.487  0.00  0.00    +0.000 A 
ATOM      7  C   UNL     1       9.808  10.880  20.187  0.00  0.00    +0.000 A 
ATOM      8  C   UNL     1       9.810  12.129  19.581  0.00  0.00    +0.000 A 
ATOM      9  N   UNL     1      10.296  13.348  19.960  0.00  0.00    +0.000 N 
ATOM     10  N   UNL     1      10.058  14.290  19.033  0.00  0.00    +0.000 NA
ATOM     11  N   UNL     1       9.417  13.705  18.028  0.00  0.00    +0.000 NA
ATOM     12  C   UNL     1       9.244  12.382  18.341  0.00  0.00    +0.000 A 
ATOM     13  C   UNL     1       8.611  11.341  17.639  0.00  0.00    +0.000 A 
ATOM     14  H   UNL     1      10.774  13.607  20.814  0.00  0.00    +0.000 HD
ENDBRANCH   3   5
BRANCH   2  15
ATOM     15  C   UNL     1       6.930   6.840  17.096  0.00  0.00    +0.000 A 
ATOM     16  C   UNL     1       5.585   6.746  17.450  0.00  0.00    +0.000 A 
ATOM     17  C   UNL     1       4.763   5.897  16.719  0.00  0.00    +0.000 A 
ATOM     18  C   UNL     1       5.317   5.168  15.674  0.00  0.00    +0.000 A 
ATOM     19  C   UNL     1       6.661   5.349  15.379  0.00  0.00    +0.000 A 
ATOM     20  N   UNL     1       7.491   6.172  16.053  0.00  0.00    +0.000 NA
BRANCH  19  21
ATOM     21  O   UNL     1       7.160   4.599  14.336  0.00  0.00    +0.000 OA
BRANCH  21  22
ATOM     22  C   UNL     1       6.176   3.739  13.747  0.00  0.00    +0.000 C 
BRANCH  22  23
ATOM     23  C   UNL     1       6.327   3.523  12.243  0.00  0.00    +0.000 C 
ATOM     24  F   UNL     1       6.839   2.318  11.920  0.00  0.00    +0.000 F 
ATOM     25  F   UNL     1       5.117   3.615  11.636  0.00  0.00    +0.000 F 
ATOM     26  F   UNL     1       7.118   4.475  11.689  0.00  0.00    +0.000 F 
ENDBRANCH  22  23
ENDBRANCH  21  22
ENDBRANCH  19  21
ENDBRANCH   2  15
TORSDOF 5
ENDMDL
MODEL 4
REMARK VINA RESULT:      -8.1      4.493      8.528
REMARK  Name = 
REMARK  5 active torsions:
REMARK  status: ('A' for Active; 'I' for Inactive)
REMARK    1  A    between atoms: C_2  and  C_13
REMARK    2  A    between atoms: N_3  and  C_4
REMARK    3  A    between atoms: C_17  and  O_18
REMARK    4  A    between atoms: O_18  and  C_19
REMARK    5  A    between atoms: C_19  and  C_20
REMARK                            x       y       z     vdW  Elec       q    Type
REMARK                         _______ _______ _______ _____ _____    ______ ____
ROOT
ATOM      1  O   UNL     1       2.405   8.568  17.255  0.00  0.00    +0.000 OA
ATOM      2  C   UNL     1       2.361   8.030  18.357  0.00  0.00    +0.000 C 
ATOM      3  N   UNL     1       2.999   6.854  18.720  0.00  0.00    +0.000 N 
ATOM      4  H   UNL     1       2.758   6.478  19.635  0.00  0.00    +0.000 HD
ENDROOT
BRANCH   3   5
ATOM      5  C   UNL     1       3.824   6.081  17.872  0.00  0.00    +0.000 A 
ATOM      6  C   UNL     1       3.481   4.779  17.476  0.00  0.00    +0.000 A 
ATOM      7  C   UNL     1       4.327   3.976  16.706  0.00  0.00    +0.000 A 
ATOM      8  C   UNL     1       5.544   4.544  16.350  0.00  0.00    +0.000 A 
ATOM      9  N   UNL     1       6.625   4.076  15.660  0.00  0.00    +0.000 N 
ATOM     10  N   UNL     1       7.593   5.000  15.562  0.00  0.00    +0.000 NA
ATOM     11  N   UNL     1       7.163   6.093  16.183  0.00  0.00    +0.000 NA
ATOM     12  C   UNL     1       5.912   5.839  16.683  0.00  0.00    +0.000 A 
ATOM     13  C   UNL     1       5.036   6.641  17.435  0.00  0.00    +0.000 A 
ATOM     14  H   UNL     1       6.773   3.162  15.250  0.00  0.00    +0.000 HD
ENDBRANCH   3   5
BRANCH   2  15
ATOM     15  C   UNL     1       1.508   8.652  19.415  0.00  0.00    +0.000 A 
ATOM     16  C   UNL     1       1.540   8.109  20.699  0.00  0.00    +0.000 A 
ATOM     17  C   UNL     1       0.716   8.657  21.673  0.00  0.00    +0.000 A 
ATOM     18  C   UNL     1      -0.115   9.715  21.328  0.00  0.00    +0.000 A 
ATOM     19  C   UNL     1      -0.057  10.207  20.031  0.00  0.00    +0.000 A 
ATOM     20  N   UNL     1       0.738   9.715  19.058  0.00  0.00    +0.000 NA
BRANCH  19  21
ATOM     21  O   UNL     1      -0.905  11.254  19.741  0.00  0.00    +0.000 OA
BRANCH  21  22
ATOM     22  C   UNL     1      -1.036  11.493  18.334  0.00  0.00    +0.000 C 
BRANCH  22  23
ATOM     23  C   UNL     1      -2.352  11.023  17.720  0.00  0.00    +0.000 C 
ATOM     24  F   UNL     1      -2.511  11.398  16.434  0.00  0.00    +0.000 F 
ATOM     25  F   UNL     1      -2.421   9.668  17.749  0.00  0.00    +0.000 F 
ATOM     26  F   UNL     1      -3.414  11.486  18.424  0.00  0.00    +0.000 F 
ENDBRANCH  22  23
ENDBRANCH  21  22
ENDBRANCH  19  21
ENDBRANCH   2  15
TORSDOF 5
ENDMDL
MODEL 5
REMARK VINA RESULT:      -8.0      1.149      1.405
REMARK  Name = 
REMARK  5 active torsions:
REMARK  status: ('A' for Active; 'I' for Inactive)
REMARK    1  A    between atoms: C_2  and  C_13
REMARK    2  A    between atoms: N_3  and  C_4
REMARK    3  A    between atoms: C_17  and  O_18
REMARK    4  A    between atoms: O_18  and  C_19
REMARK    5  A    between atoms: C_19  and  C_20
REMARK                            x       y       z     vdW  Elec       q    Type
REMARK                         _______ _______ _______ _____ _____    ______ ____
ROOT
ATOM      1  O   UNL     1       0.887   5.462  20.712  0.00  0.00    +0.000 OA
ATOM      2  C   UNL     1       1.946   5.884  20.257  0.00  0.00    +0.000 C 
ATOM      3  N   UNL     1       2.296   7.216  20.099  0.00  0.00    +0.000 N 
ATOM      4  H   UNL     1       3.160   7.396  19.591  0.00  0.00    +0.000 HD
ENDROOT
BRANCH   3   5
ATOM      5  C   UNL     1       1.484   8.318  20.451  0.00  0.00    +0.000 A 
ATOM      6  C   UNL     1       1.053   9.263  19.508  0.00  0.00    +0.000 A 
ATOM      7  C   UNL     1       0.320  10.401  19.859  0.00  0.00    +0.000 A 
ATOM      8  C   UNL     1       0.036  10.546  21.211  0.00  0.00    +0.000 A 
ATOM      9  N   UNL     1      -0.601  11.515  21.931  0.00  0.00    +0.000 N 
ATOM     10  N   UNL     1      -0.635  11.223  23.241  0.00  0.00    +0.000 NA
ATOM     11  N   UNL     1      -0.024  10.055  23.403  0.00  0.00    +0.000 NA
ATOM     12  C   UNL     1       0.405   9.620  22.176  0.00  0.00    +0.000 A 
ATOM     13  C   UNL     1       1.119   8.469  21.800  0.00  0.00    +0.000 A 
ATOM     14  H   UNL     1      -1.014  12.382  21.609  0.00  0.00    +0.000 HD
ENDBRANCH   3   5
BRANCH   2  15
ATOM     15  C   UNL     1       2.956   4.892  19.775  0.00  0.00    +0.000 A 
ATOM     16  C   UNL     1       2.956   3.617  20.338  0.00  0.00    +0.000 A 
ATOM     17  C   UNL     1       3.921   2.708  19.924  0.00  0.00    +0.000 A 
ATOM     18  C   UNL     1       4.853   3.109  18.975  0.00  0.00    +0.000 A 
ATOM     19  C   UNL     1       4.755   4.390  18.450  0.00  0.00    +0.000 A 
ATOM     20  N   UNL     1       3.827   5.300  18.813  0.00  0.00    +0.000 NA
BRANCH  19  21
ATOM     21  O   UNL     1       5.707   4.737  17.515  0.00  0.00    +0.000 OA
BRANCH  21  22
ATOM     22  C   UNL     1       6.395   5.950  17.842  0.00  0.00    +0.000 C 
BRANCH  22  23
ATOM     23  C   UNL     1       7.609   5.778  18.751  0.00  0.00    +0.000 C 
ATOM     24  F   UNL     1       8.391   4.733  18.414  0.00  0.00    +0.000 F 
ATOM     25  F   UNL     1       8.388   6.888  18.704  0.00  0.00    +0.000 F 
ATOM     26  F   UNL     1       7.233   5.617  20.045  0.00  0.00    +0.000 F 
ENDBRANCH  22  23
ENDBRANCH  21  22
ENDBRANCH  19  21
ENDBRANCH   2  15
TORSDOF 5
ENDMDL
MODEL 6
REMARK VINA RESULT:      -8.0      1.604      1.697
REMARK  Name = 
REMARK  5 active torsions:
REMARK  status: ('A' for Active; 'I' for Inactive)
REMARK    1  A    between atoms: C_2  and  C_13
REMARK    2  A    between atoms: N_3  and  C_4
REMARK    3  A    between atoms: C_17  and  O_18
REMARK    4  A    between atoms: O_18  and  C_19
REMARK    5  A    between atoms: C_19  and  C_20
REMARK                            x       y       z     vdW  Elec       q    Type
REMARK                         _______ _______ _______ _____ _____    ______ ____
ROOT
ATOM      1  O   UNL     1       2.446   8.563  17.317  0.00  0.00    +0.000 OA
ATOM      2  C   UNL     1       2.542   7.673  18.156  0.00  0.00    +0.000 C 
ATOM      3  N   UNL     1       2.036   7.705  19.447  0.00  0.00    +0.000 N 
ATOM      4  H   UNL     1       2.310   6.936  20.056  0.00  0.00    +0.000 HD
ENDROOT
BRANCH   3   5
ATOM      5  C   UNL     1       1.307   8.778  20.008  0.00  0.00    +0.000 A 
ATOM      6  C   UNL     1       0.947   9.911  19.260  0.00  0.00    +0.000 A 
ATOM      7  C   UNL     1       0.300  11.014  19.825  0.00  0.00    +0.000 A 
ATOM      8  C   UNL     1       0.030  10.928  21.185  0.00  0.00    +0.000 A 
ATOM      9  N   UNL     1      -0.533  11.791  22.080  0.00  0.00    +0.000 N 
ATOM     10  N   UNL     1      -0.587  11.266  23.314  0.00  0.00    +0.000 NA
ATOM     11  N   UNL     1      -0.065  10.047  23.250  0.00  0.00    +0.000 NA
ATOM     12  C   UNL     1       0.330   9.815  21.958  0.00  0.00    +0.000 A 
ATOM     13  C   UNL     1       0.956   8.705  21.366  0.00  0.00    +0.000 A 
ATOM     14  H   UNL     1      -0.881  12.730  21.929  0.00  0.00    +0.000 HD
ENDBRANCH   3   5
BRANCH   2  15
ATOM     15  C   UNL     1       3.313   6.442  17.799  0.00  0.00    +0.000 A 
ATOM     16  C   UNL     1       2.679   5.206  17.907  0.00  0.00    +0.000 A 
ATOM     17  C   UNL     1       3.406   4.059  17.618  0.00  0.00    +0.000 A 
ATOM     18  C   UNL     1       4.738   4.188  17.245  0.00  0.00    +0.000 A 
ATOM     19  C   UNL     1       5.275   5.464  17.138  0.00  0.00    +0.000 A 
ATOM     20  N   UNL     1       4.602   6.604  17.395  0.00  0.00    +0.000 NA
BRANCH  19  21
ATOM     21  O   UNL     1       6.601   5.534  16.768  0.00  0.00    +0.000 OA
BRANCH  21  22
ATOM     22  C   UNL     1       7.478   4.904  17.709  0.00  0.00    +0.000 C 
BRANCH  22  23
ATOM     23  C   UNL     1       7.751   5.710  18.976  0.00  0.00    +0.000 C 
ATOM     24  F   UNL     1       8.029   7.009  18.739  0.00  0.00    +0.000 F 
ATOM     25  F   UNL     1       6.667   5.679  19.792  0.00  0.00    +0.000 F 
ATOM     26  F   UNL     1       8.787   5.184  19.677  0.00  0.00    +0.000 F 
ENDBRANCH  22  23
ENDBRANCH  21  22
ENDBRANCH  19  21
ENDBRANCH   2  15
TORSDOF 5
ENDMDL
MODEL 7
REMARK VINA RESULT:      -8.0      2.963      3.508
REMARK  Name = 
REMARK  5 active torsions:
REMARK  status: ('A' for Active; 'I' for Inactive)
REMARK    1  A    between atoms: C_2  and  C_13
REMARK    2  A    between atoms: N_3  and  C_4
REMARK    3  A    between atoms: C_17  and  O_18
REMARK    4  A    between atoms: O_18  and  C_19
REMARK    5  A    between atoms: C_19  and  C_20
REMARK                            x       y       z     vdW  Elec       q    Type
REMARK                         _______ _______ _______ _____ _____    ______ ____
ROOT
ATOM      1  O   UNL     1       2.712   8.756  17.370  0.00  0.00    +0.000 OA
ATOM      2  C   UNL     1       2.823   7.796  18.125  0.00  0.00    +0.000 C 
ATOM      3  N   UNL     1       2.225   7.657  19.368  0.00  0.00    +0.000 N 
ATOM      4  H   UNL     1       2.520   6.855  19.921  0.00  0.00    +0.000 HD
ENDROOT
BRANCH   3   5
ATOM      5  C   UNL     1       1.369   8.608  19.969  0.00  0.00    +0.000 A 
ATOM      6  C   UNL     1       0.690   9.583  19.221  0.00  0.00    +0.000 A 
ATOM      7  C   UNL     1      -0.093  10.579  19.812  0.00  0.00    +0.000 A 
ATOM      8  C   UNL     1      -0.162  10.552  21.199  0.00  0.00    +0.000 A 
ATOM      9  N   UNL     1      -0.772  11.358  22.118  0.00  0.00    +0.000 N 
ATOM     10  N   UNL     1      -0.557  10.934  23.374  0.00  0.00    +0.000 NA
ATOM     11  N   UNL     1       0.193   9.840  23.301  0.00  0.00    +0.000 NA
ATOM     12  C   UNL     1       0.457   9.587  21.980  0.00  0.00    +0.000 A 
ATOM     13  C   UNL     1       1.218   8.578  21.365  0.00  0.00    +0.000 A 
ATOM     14  H   UNL     1      -1.322  12.194  21.968  0.00  0.00    +0.000 HD
ENDBRANCH   3   5
BRANCH   2  15
ATOM     15  C   UNL     1       3.720   6.672  17.715  0.00  0.00    +0.000 A 
ATOM     16  C   UNL     1       4.537   6.848  16.599  0.00  0.00    +0.000 A 
ATOM     17  C   UNL     1       5.339   5.791  16.190  0.00  0.00    +0.000 A 
ATOM     18  C   UNL     1       5.287   4.599  16.900  0.00  0.00    +0.000 A 
ATOM     19  C   UNL     1       4.464   4.528  18.016  0.00  0.00    +0.000 A 
ATOM     20  N   UNL     1       3.680   5.533  18.457  0.00  0.00    +0.000 NA
BRANCH  19  21
ATOM     21  O   UNL     1       4.448   3.321  18.682  0.00  0.00    +0.000 OA
BRANCH  21  22
ATOM     22  C   UNL     1       3.199   3.060  19.335  0.00  0.00    +0.000 C 
BRANCH  22  23
ATOM     23  C   UNL     1       2.128   2.430  18.449  0.00  0.00    +0.000 C 
ATOM     24  F   UNL     1       1.280   1.624  19.119  0.00  0.00    +0.000 F 
ATOM     25  F   UNL     1       1.377   3.398  17.866  0.00  0.00    +0.000 F 
ATOM     26  F   UNL     1       2.685   1.707  17.446  0.00  0.00    +0.000 F 
ENDBRANCH  22  23
ENDBRANCH  21  22
ENDBRANCH  19  21
ENDBRANCH   2  15
TORSDOF 5
ENDMDL
MODEL 8
REMARK VINA RESULT:      -7.9      3.121      3.684
REMARK  Name = 
REMARK  5 active torsions:
REMARK  status: ('A' for Active; 'I' for Inactive)
REMARK    1  A    between atoms: C_2  and  C_13
REMARK    2  A    between atoms: N_3  and  C_4
REMARK    3  A    between atoms: C_17  and  O_18
REMARK    4  A    between atoms: O_18  and  C_19
REMARK    5  A    between atoms: C_19  and  C_20
REMARK                            x       y       z     vdW  Elec       q    Type
REMARK                         _______ _______ _______ _____ _____    ______ ____
ROOT
ATOM      1  O   UNL     1       2.478   8.312  17.651  0.00  0.00    +0.000 OA
ATOM      2  C   UNL     1       2.551   7.519  18.585  0.00  0.00    +0.000 C 
ATOM      3  N   UNL     1       1.992   7.682  19.844  0.00  0.00    +0.000 N 
ATOM      4  H   UNL     1       2.252   6.989  20.543  0.00  0.00    +0.000 HD
ENDROOT
BRANCH   3   5
ATOM      5  C   UNL     1       1.227   8.796  20.255  0.00  0.00    +0.000 A 
ATOM      6  C   UNL     1       0.859   9.821  19.369  0.00  0.00    +0.000 A 
ATOM      7  C   UNL     1       0.174  10.968  19.783  0.00  0.00    +0.000 A 
ATOM      8  C   UNL     1      -0.126  11.039  21.137  0.00  0.00    +0.000 A 
ATOM      9  N   UNL     1      -0.729  11.990  21.910  0.00  0.00    +0.000 N 
ATOM     10  N   UNL     1      -0.800  11.615  23.197  0.00  0.00    +0.000 NA
ATOM     11  N   UNL     1      -0.249  10.411  23.292  0.00  0.00    +0.000 NA
ATOM     12  C   UNL     1       0.180  10.036  22.045  0.00  0.00    +0.000 A 
ATOM     13  C   UNL     1       0.846   8.878  21.605  0.00  0.00    +0.000 A 
ATOM     14  H   UNL     1      -1.095  12.894  21.639  0.00  0.00    +0.000 HD
ENDBRANCH   3   5
BRANCH   2  15
ATOM     15  C   UNL     1       3.353   6.272  18.394  0.00  0.00    +0.000 A 
ATOM     16  C   UNL     1       4.131   6.152  17.244  0.00  0.00    +0.000 A 
ATOM     17  C   UNL     1       4.843   4.976  17.043  0.00  0.00    +0.000 A 
ATOM     18  C   UNL     1       4.742   3.965  17.989  0.00  0.00    +0.000 A 
ATOM     19  C   UNL     1       3.965   4.187  19.117  0.00  0.00    +0.000 A 
ATOM     20  N   UNL     1       3.269   5.317  19.359  0.00  0.00    +0.000 NA
BRANCH  19  21
ATOM     21  O   UNL     1       3.897   3.149  20.021  0.00  0.00    +0.000 OA
BRANCH  21  22
ATOM     22  C   UNL     1       2.588   2.574  20.114  0.00  0.00    +0.000 C 
BRANCH  22  23
ATOM     23  C   UNL     1       1.738   3.089  21.272  0.00  0.00    +0.000 C 
ATOM     24  F   UNL     1       1.216   2.108  22.036  0.00  0.00    +0.000 F 
ATOM     25  F   UNL     1       2.488   3.871  22.089  0.00  0.00    +0.000 F 
ATOM     26  F   UNL     1       0.714   3.858  20.824  0.00  0.00    +0.000 F 
ENDBRANCH  22  23
ENDBRANCH  21  22
ENDBRANCH  19  21
ENDBRANCH   2  15
TORSDOF 5
ENDMDL
MODEL 9
REMARK VINA RESULT:      -7.9      1.286      1.505
REMARK  Name = 
REMARK  5 active torsions:
REMARK  status: ('A' for Active; 'I' for Inactive)
REMARK    1  A    between atoms: C_2  and  C_13
REMARK    2  A    between atoms: N_3  and  C_4
REMARK    3  A    between atoms: C_17  and  O_18
REMARK    4  A    between atoms: O_18  and  C_19
REMARK    5  A    between atoms: C_19  and  C_20
REMARK                            x       y       z     vdW  Elec       q    Type
REMARK                         _______ _______ _______ _____ _____    ______ ____
ROOT
ATOM      1  O   UNL     1       1.496   5.716  19.631  0.00  0.00    +0.000 OA
ATOM      2  C   UNL     1       2.246   6.427  18.970  0.00  0.00    +0.000 C 
ATOM      3  N   UNL     1       2.250   7.813  18.946  0.00  0.00    +0.000 N 
ATOM      4  H   UNL     1       2.852   8.248  18.249  0.00  0.00    +0.000 HD
ENDROOT
BRANCH   3   5
ATOM      5  C   UNL     1       1.388   8.642  19.699  0.00  0.00    +0.000 A 
ATOM      6  C   UNL     1       0.536   9.581  19.096  0.00  0.00    +0.000 A 
ATOM      7  C   UNL     1      -0.259  10.463  19.835  0.00  0.00    +0.000 A 
ATOM      8  C   UNL     1      -0.160  10.357  21.216  0.00  0.00    +0.000 A 
ATOM      9  N   UNL     1      -0.727  11.049  22.247  0.00  0.00    +0.000 N 
ATOM     10  N   UNL     1      -0.324  10.585  23.441  0.00  0.00    +0.000 NA
ATOM     11  N   UNL     1       0.510   9.577  23.214  0.00  0.00    +0.000 NA
ATOM     12  C   UNL     1       0.636   9.420  21.858  0.00  0.00    +0.000 A 
ATOM     13  C   UNL     1       1.409   8.524  21.099  0.00  0.00    +0.000 A 
ATOM     14  H   UNL     1      -1.367  11.833  22.214  0.00  0.00    +0.000 HD
ENDBRANCH   3   5
BRANCH   2  15
ATOM     15  C   UNL     1       3.228   5.766  18.056  0.00  0.00    +0.000 A 
ATOM     16  C   UNL     1       3.033   4.424  17.731  0.00  0.00    +0.000 A 
ATOM     17  C   UNL     1       3.967   3.795  16.918  0.00  0.00    +0.000 A 
ATOM     18  C   UNL     1       5.062   4.523  16.472  0.00  0.00    +0.000 A 
ATOM     19  C   UNL     1       5.156   5.862  16.825  0.00  0.00    +0.000 A 
ATOM     20  N   UNL     1       4.266   6.517  17.600  0.00  0.00    +0.000 NA
BRANCH  19  21
ATOM     21  O   UNL     1       6.264   6.537  16.359  0.00  0.00    +0.000 OA
BRANCH  21  22
ATOM     22  C   UNL     1       6.975   7.226  17.394  0.00  0.00    +0.000 C 
BRANCH  22  23
ATOM     23  C   UNL     1       7.642   6.324  18.429  0.00  0.00    +0.000 C 
ATOM     24  F   UNL     1       6.819   5.952  19.430  0.00  0.00    +0.000 F 
ATOM     25  F   UNL     1       8.087   5.187  17.838  0.00  0.00    +0.000 F 
ATOM     26  F   UNL     1       8.723   6.930  18.982  0.00  0.00    +0.000 F 
ENDBRANCH  22  23
ENDBRANCH  21  22
ENDBRANCH  19  21
ENDBRANCH   2  15
TORSDOF 5
ENDMDL
