MODEL 1
REMARK VINA RESULT:      -9.3      0.000      0.000
REMARK  Name = 
REMARK  4 active torsions:
REMARK  status: ('A' for Active; 'I' for Inactive)
REMARK    1  A    between atoms: C_2  and  C_19
REMARK    2  A    between atoms: N_3  and  C_4
REMARK    3  A    between atoms: C_8  and  S_9
REMARK    4  A    between atoms: S_9  and  N_12
REMARK                            x       y       z     vdW  Elec       q    Type
REMARK                         _______ _______ _______ _____ _____    ______ ____
ROOT
ATOM      1  C   UNL     1       3.391   6.344  17.850  0.00  0.00    +0.000 A 
ATOM      2  C   UNL     1       2.893   5.057  18.137  0.00  0.00    +0.000 A 
ATOM      3  C   UNL     1       3.639   3.907  17.850  0.00  0.00    +0.000 A 
ATOM      4  C   UNL     1       4.887   4.024  17.261  0.00  0.00    +0.000 A 
ATOM      5  C   UNL     1       5.389   5.267  16.943  0.00  0.00    +0.000 A 
ATOM      6  C   UNL     1       4.666   6.432  17.241  0.00  0.00    +0.000 A 
ENDROOT
BRANCH   1   9
ATOM      7  O   UNL     1       1.958   6.974  20.302  0.00  0.00    +0.000 OA
ATOM      8  C   UNL     1       2.043   7.790  19.370  0.00  0.00    +0.000 C 
ATOM      9  N   UNL     1       2.694   7.543  18.176  0.00  0.00    +0.000 N 
ATOM     10  H   UNL     1       2.721   8.313  17.507  0.00  0.00    +0.000 HD
BRANCH   8  11
ATOM     11  C   UNL     1       1.436   9.136  19.631  0.00  0.00    +0.000 A 
ATOM     12  C   UNL     1       1.471  10.034  18.532  0.00  0.00    +0.000 A 
ATOM     13  C   UNL     1       0.748  11.213  18.558  0.00  0.00    +0.000 A 
ATOM     14  C   UNL     1      -0.125  11.428  19.604  0.00  0.00    +0.000 A 
ATOM     15  C   UNL     1      -0.123  10.572  20.706  0.00  0.00    +0.000 A 
ATOM     16  C   UNL     1      -1.008  10.808  21.758  0.00  0.00    +0.000 A 
ATOM     17  C   UNL     1      -0.667  10.374  23.019  0.00  0.00    +0.000 A 
ATOM     18  C   UNL     1       0.366   9.448  23.098  0.00  0.00    +0.000 A 
ATOM     19  N   UNL     1       0.986   8.916  22.030  0.00  0.00    +0.000 NA
ATOM     20  C   UNL     1       0.773   9.485  20.815  0.00  0.00    +0.000 A 
ENDBRANCH   8  11
ENDBRANCH   1   9
BRANCH   5  21
ATOM     21  S   UNL     1       7.018   5.406  16.252  0.00  0.00    +0.000 S 
ATOM     22  O   UNL     1       7.451   6.777  16.392  0.00  0.00    +0.000 OA
ATOM     23  O   UNL     1       7.813   4.313  16.806  0.00  0.00    +0.000 OA
BRANCH  21  24
ATOM     24  N   UNL     1       6.802   5.075  14.586  0.00  0.00    +0.000 NA
ATOM     25  C   UNL     1       7.952   5.394  13.703  0.00  0.00    +0.000 C 
ATOM     26  C   UNL     1       7.592   5.234  12.229  0.00  0.00    +0.000 C 
ATOM     27  C   UNL     1       7.020   3.851  11.949  0.00  0.00    +0.000 C 
ATOM     28  C   UNL     1       5.797   3.621  12.825  0.00  0.00    +0.000 C 
ATOM     29  C   UNL     1       6.153   3.757  14.300  0.00  0.00    +0.000 C 
ENDBRANCH  21  24
ENDBRANCH   5  21
TORSDOF 4
ENDMDL
MODEL 2
REMARK VINA RESULT:      -9.2      3.609      8.944
REMARK  Name = 
REMARK  4 active torsions:
REMARK  status: ('A' for Active; 'I' for Inactive)
REMARK    1  A    between atoms: C_2  and  C_19
REMARK    2  A    between atoms: N_3  and  C_4
REMARK    3  A    between atoms: C_8  and  S_9
REMARK    4  A    between atoms: S_9  and  N_12
REMARK                            x       y       z     vdW  Elec       q    Type
REMARK                         _______ _______ _______ _____ _____    ______ ____
ROOT
ATOM      1  C   UNL     1       1.312   8.503  20.428  0.00  0.00    +0.000 A 
ATOM      2  C   UNL     1       1.161   8.433  21.827  0.00  0.00    +0.000 A 
ATOM      3  C   UNL     1       0.471   9.424  22.536  0.00  0.00    +0.000 A 
ATOM      4  C   UNL     1      -0.068  10.506  21.859  0.00  0.00    +0.000 A 
ATOM      5  C   UNL     1       0.087  10.616  20.496  0.00  0.00    +0.000 A 
ATOM      6  C   UNL     1       0.757   9.624  19.764  0.00  0.00    +0.000 A 
ENDROOT
BRANCH   1   9
ATOM      7  O   UNL     1       2.605   8.772  17.836  0.00  0.00    +0.000 OA
ATOM      8  C   UNL     1       2.569   7.685  18.436  0.00  0.00    +0.000 C 
ATOM      9  N   UNL     1       1.956   7.491  19.660  0.00  0.00    +0.000 N 
ATOM     10  H   UNL     1       2.032   6.555  20.061  0.00  0.00    +0.000 HD
BRANCH   8  11
ATOM     11  C   UNL     1       3.307   6.558  17.777  0.00  0.00    +0.000 A 
ATOM     12  C   UNL     1       4.497   6.932  17.101  0.00  0.00    +0.000 A 
ATOM     13  C   UNL     1       5.388   5.974  16.653  0.00  0.00    +0.000 A 
ATOM     14  C   UNL     1       5.175   4.658  17.009  0.00  0.00    +0.000 A 
ATOM     15  C   UNL     1       3.983   4.284  17.630  0.00  0.00    +0.000 A 
ATOM     16  C   UNL     1       3.781   2.949  17.976  0.00  0.00    +0.000 A 
ATOM     17  C   UNL     1       2.492   2.472  18.051  0.00  0.00    +0.000 A 
ATOM     18  C   UNL     1       1.481   3.424  18.102  0.00  0.00    +0.000 A 
ATOM     19  N   UNL     1       1.695   4.750  18.153  0.00  0.00    +0.000 NA
ATOM     20  C   UNL     1       2.947   5.208  17.892  0.00  0.00    +0.000 A 
ENDBRANCH   8  11
ENDBRANCH   1   9
BRANCH   5  21
ATOM     21  S   UNL     1      -0.667  11.972  19.632  0.00  0.00    +0.000 S 
ATOM     22  O   UNL     1      -1.133  12.926  20.611  0.00  0.00    +0.000 OA
ATOM     23  O   UNL     1       0.260  12.377  18.579  0.00  0.00    +0.000 OA
BRANCH  21  24
ATOM     24  N   UNL     1      -2.030  11.278  18.862  0.00  0.00    +0.000 NA
ATOM     25  C   UNL     1      -3.293  12.054  18.948  0.00  0.00    +0.000 C 
ATOM     26  C   UNL     1      -4.477  11.268  18.391  0.00  0.00    +0.000 C 
ATOM     27  C   UNL     1      -4.198  10.782  16.976  0.00  0.00    +0.000 C 
ATOM     28  C   UNL     1      -2.939   9.926  16.972  0.00  0.00    +0.000 C 
ATOM     29  C   UNL     1      -1.747  10.711  17.505  0.00  0.00    +0.000 C 
ENDBRANCH  21  24
ENDBRANCH   5  21
TORSDOF 4
ENDMDL
MODEL 3
REMARK VINA RESULT:      -9.2      0.965      1.013
REMARK  Name = 
REMARK  4 active torsions:
REMARK  status: ('A' for Active; 'I' for Inactive)
REMARK    1  A    between atoms: C_2  and  C_19
REMARK    2  A    between atoms: N_3  and  C_4
REMARK    3  A    between atoms: C_8  and  S_9
REMARK    4  A    between atoms: S_9  and  N_12
REMARK                            x       y       z     vdW  Elec       q    Type
REMARK                         _______ _______ _______ _____ _____    ______ ____
ROOT
ATOM      1  C   UNL     1       2.974   6.302  18.213  0.00  0.00    +0.000 A 
ATOM      2  C   UNL     1       2.411   5.013  18.122  0.00  0.00    +0.000 A 
ATOM      3  C   UNL     1       3.107   3.955  17.524  0.00  0.00    +0.000 A 
ATOM      4  C   UNL     1       4.369   4.171  16.997  0.00  0.00    +0.000 A 
ATOM      5  C   UNL     1       4.935   5.426  17.046  0.00  0.00    +0.000 A 
ATOM      6  C   UNL     1       4.263   6.495  17.659  0.00  0.00    +0.000 A 
ENDROOT
BRANCH   1   9
ATOM      7  O   UNL     1       2.209   8.866  17.072  0.00  0.00    +0.000 OA
ATOM      8  C   UNL     1       1.975   8.586  18.259  0.00  0.00    +0.000 C 
ATOM      9  N   UNL     1       2.329   7.393  18.862  0.00  0.00    +0.000 N 
ATOM     10  H   UNL     1       2.043   7.276  19.835  0.00  0.00    +0.000 HD
BRANCH   8  11
ATOM     11  C   UNL     1       1.202   9.616  19.027  0.00  0.00    +0.000 A 
ATOM     12  C   UNL     1       0.668  10.672  18.244  0.00  0.00    +0.000 A 
ATOM     13  C   UNL     1      -0.253  11.556  18.780  0.00  0.00    +0.000 A 
ATOM     14  C   UNL     1      -0.755  11.301  20.039  0.00  0.00    +0.000 A 
ATOM     15  C   UNL     1      -0.195  10.293  20.826  0.00  0.00    +0.000 A 
ATOM     16  C   UNL     1      -0.711  10.053  22.099  0.00  0.00    +0.000 A 
ATOM     17  C   UNL     1       0.117   9.512  23.057  0.00  0.00    +0.000 A 
ATOM     18  C   UNL     1       1.299   8.939  22.604  0.00  0.00    +0.000 A 
ATOM     19  N   UNL     1       1.633   8.826  21.306  0.00  0.00    +0.000 NA
ATOM     20  C   UNL     1       0.907   9.523  20.394  0.00  0.00    +0.000 A 
ENDBRANCH   8  11
ENDBRANCH   1   9
BRANCH   5  21
ATOM     21  S   UNL     1       6.580   5.673  16.428  0.00  0.00    +0.000 S 
ATOM     22  O   UNL     1       6.885   7.083  16.508  0.00  0.00    +0.000 OA
ATOM     23  O   UNL     1       7.436   4.687  17.084  0.00  0.00    +0.000 OA
BRANCH  21  24
ATOM     24  N   UNL     1       6.484   5.233  14.776  0.00  0.00    +0.000 NA
ATOM     25  C   UNL     1       7.728   5.402  13.982  0.00  0.00    +0.000 C 
ATOM     26  C   UNL     1       7.485   5.157  12.496  0.00  0.00    +0.000 C 
ATOM     27  C   UNL     1       6.835   3.801  12.261  0.00  0.00    +0.000 C 
ATOM     28  C   UNL     1       5.527   3.725  13.034  0.00  0.00    +0.000 C 
ATOM     29  C   UNL     1       5.763   3.946  14.523  0.00  0.00    +0.000 C 
ENDBRANCH  21  24
ENDBRANCH   5  21
TORSDOF 4
ENDMDL
MODEL 4
REMARK VINA RESULT:      -9.2      3.555      8.824
REMARK  Name = 
REMARK  4 active torsions:
REMARK  status: ('A' for Active; 'I' for Inactive)
REMARK    1  A    between atoms: C_2  and  C_19
REMARK    2  A    between atoms: N_3  and  C_4
REMARK    3  A    between atoms: C_8  and  S_9
REMARK    4  A    between atoms: S_9  and  N_12
REMARK                            x       y       z     vdW  Elec       q    Type
REMARK                         _______ _______ _______ _____ _____    ______ ____
ROOT
ATOM      1  C   UNL     1       1.456   8.290  20.676  0.00  0.00    +0.000 A 
ATOM      2  C   UNL     1       0.732   8.170  21.879  0.00  0.00    +0.000 A 
ATOM      3  C   UNL     1      -0.162   9.164  22.293  0.00  0.00    +0.000 A 
ATOM      4  C   UNL     1      -0.337  10.300  21.520  0.00  0.00    +0.000 A 
ATOM      5  C   UNL     1       0.377  10.459  20.353  0.00  0.00    +0.000 A 
ATOM      6  C   UNL     1       1.263   9.465  19.910  0.00  0.00    +0.000 A 
ENDROOT
BRANCH   1   9
ATOM      7  O   UNL     1       1.012   5.416  20.598  0.00  0.00    +0.000 OA
ATOM      8  C   UNL     1       2.057   5.925  20.161  0.00  0.00    +0.000 C 
ATOM      9  N   UNL     1       2.333   7.280  20.187  0.00  0.00    +0.000 N 
ATOM     10  H   UNL     1       3.214   7.571  19.761  0.00  0.00    +0.000 HD
BRANCH   8  11
ATOM     11  C   UNL     1       3.023   4.974  19.520  0.00  0.00    +0.000 A 
ATOM     12  C   UNL     1       3.087   3.689  20.120  0.00  0.00    +0.000 A 
ATOM     13  C   UNL     1       3.755   2.649  19.497  0.00  0.00    +0.000 A 
ATOM     14  C   UNL     1       4.224   2.842  18.214  0.00  0.00    +0.000 A 
ATOM     15  C   UNL     1       4.204   4.116  17.645  0.00  0.00    +0.000 A 
ATOM     16  C   UNL     1       4.689   4.294  16.350  0.00  0.00    +0.000 A 
ATOM     17  C   UNL     1       5.189   5.526  15.994  0.00  0.00    +0.000 A 
ATOM     18  C   UNL     1       4.875   6.589  16.833  0.00  0.00    +0.000 A 
ATOM     19  N   UNL     1       4.071   6.491  17.906  0.00  0.00    +0.000 NA
ATOM     20  C   UNL     1       3.740   5.250  18.348  0.00  0.00    +0.000 A 
ENDBRANCH   8  11
ENDBRANCH   1   9
BRANCH   5  21
ATOM     21  S   UNL     1       0.093  11.886  19.337  0.00  0.00    +0.000 S 
ATOM     22  O   UNL     1      -0.290  12.983  20.196  0.00  0.00    +0.000 OA
ATOM     23  O   UNL     1       1.239  12.008  18.439  0.00  0.00    +0.000 OA
BRANCH  21  24
ATOM     24  N   UNL     1      -1.257  11.459  18.373  0.00  0.00    +0.000 NA
ATOM     25  C   UNL     1      -1.198  10.125  17.724  0.00  0.00    +0.000 C 
ATOM     26  C   UNL     1      -2.356   9.920  16.751  0.00  0.00    +0.000 C 
ATOM     27  C   UNL     1      -3.696  10.170  17.429  0.00  0.00    +0.000 C 
ATOM     28  C   UNL     1      -3.720  11.580  18.000  0.00  0.00    +0.000 C 
ATOM     29  C   UNL     1      -2.581  11.786  18.990  0.00  0.00    +0.000 C 
ENDBRANCH  21  24
ENDBRANCH   5  21
TORSDOF 4
ENDMDL
MODEL 5
REMARK VINA RESULT:      -9.1      3.920      9.264
REMARK  Name = 
REMARK  4 active torsions:
REMARK  status: ('A' for Active; 'I' for Inactive)
REMARK    1  A    between atoms: C_2  and  C_19
REMARK    2  A    between atoms: N_3  and  C_4
REMARK    3  A    between atoms: C_8  and  S_9
REMARK    4  A    between atoms: S_9  and  N_12
REMARK                            x       y       z     vdW  Elec       q    Type
REMARK                         _______ _______ _______ _____ _____    ______ ____
ROOT
ATOM      1  C   UNL     1       0.940   9.191  20.393  0.00  0.00    +0.000 A 
ATOM      2  C   UNL     1       0.876   8.910  21.772  0.00  0.00    +0.000 A 
ATOM      3  C   UNL     1       0.075   9.669  22.633  0.00  0.00    +0.000 A 
ATOM      4  C   UNL     1      -0.665  10.728  22.133  0.00  0.00    +0.000 A 
ATOM      5  C   UNL     1      -0.601  11.045  20.794  0.00  0.00    +0.000 A 
ATOM      6  C   UNL     1       0.179  10.284  19.911  0.00  0.00    +0.000 A 
ENDROOT
BRANCH   1   9
ATOM      7  O   UNL     1       1.773   6.416  20.652  0.00  0.00    +0.000 OA
ATOM      8  C   UNL     1       2.048   7.086  19.643  0.00  0.00    +0.000 C 
ATOM      9  N   UNL     1       1.695   8.412  19.470  0.00  0.00    +0.000 N 
ATOM     10  H   UNL     1       1.951   8.836  18.577  0.00  0.00    +0.000 HD
BRANCH   8  11
ATOM     11  C   UNL     1       2.754   6.347  18.547  0.00  0.00    +0.000 A 
ATOM     12  C   UNL     1       3.668   7.125  17.790  0.00  0.00    +0.000 A 
ATOM     13  C   UNL     1       4.551   6.524  16.909  0.00  0.00    +0.000 A 
ATOM     14  C   UNL     1       4.630   5.147  16.893  0.00  0.00    +0.000 A 
ATOM     15  C   UNL     1       3.700   4.383  17.600  0.00  0.00    +0.000 A 
ATOM     16  C   UNL     1       3.791   2.992  17.567  0.00  0.00    +0.000 A 
ATOM     17  C   UNL     1       2.647   2.250  17.752  0.00  0.00    +0.000 A 
ATOM     18  C   UNL     1       1.552   2.920  18.283  0.00  0.00    +0.000 A 
ATOM     19  N   UNL     1       1.574   4.204  18.682  0.00  0.00    +0.000 NA
ATOM     20  C   UNL     1       2.638   4.968  18.325  0.00  0.00    +0.000 A 
ENDBRANCH   8  11
ENDBRANCH   1   9
BRANCH   5  21
ATOM     21  S   UNL     1      -1.607  12.360  20.154  0.00  0.00    +0.000 S 
ATOM     22  O   UNL     1      -2.497  12.799  21.204  0.00  0.00    +0.000 OA
ATOM     23  O   UNL     1      -0.707  13.305  19.496  0.00  0.00    +0.000 OA
BRANCH  21  24
ATOM     24  N   UNL     1      -2.543  11.620  18.926  0.00  0.00    +0.000 NA
ATOM     25  C   UNL     1      -4.007  11.861  18.987  0.00  0.00    +0.000 C 
ATOM     26  C   UNL     1      -4.760  11.016  17.964  0.00  0.00    +0.000 C 
ATOM     27  C   UNL     1      -4.203  11.221  16.563  0.00  0.00    +0.000 C 
ATOM     28  C   UNL     1      -2.721  10.878  16.551  0.00  0.00    +0.000 C 
ATOM     29  C   UNL     1      -1.957  11.734  17.553  0.00  0.00    +0.000 C 
ENDBRANCH  21  24
ENDBRANCH   5  21
TORSDOF 4
ENDMDL
MODEL 6
REMARK VINA RESULT:      -9.1      3.541      8.764
REMARK  Name = 
REMARK  4 active torsions:
REMARK  status: ('A' for Active; 'I' for Inactive)
REMARK    1  A    between atoms: C_2  and  C_19
REMARK    2  A    between atoms: N_3  and  C_4
REMARK    3  A    between atoms: C_8  and  S_9
REMARK    4  A    between atoms: S_9  and  N_12
REMARK                            x       y       z     vdW  Elec       q    Type
REMARK                         _______ _______ _______ _____ _____    ______ ____
ROOT
ATOM      1  C   UNL     1       1.459   8.478  20.307  0.00  0.00    +0.000 A 
ATOM      2  C   UNL     1       1.126   8.384  21.673  0.00  0.00    +0.000 A 
ATOM      3  C   UNL     1       0.448   9.418  22.330  0.00  0.00    +0.000 A 
ATOM      4  C   UNL     1       0.103  10.566  21.636  0.00  0.00    +0.000 A 
ATOM      5  C   UNL     1       0.439  10.699  20.308  0.00  0.00    +0.000 A 
ATOM      6  C   UNL     1       1.100   9.666  19.625  0.00  0.00    +0.000 A 
ENDROOT
BRANCH   1   9
ATOM      7  O   UNL     1       2.550   8.567  17.612  0.00  0.00    +0.000 OA
ATOM      8  C   UNL     1       2.612   7.539  18.305  0.00  0.00    +0.000 C 
ATOM      9  N   UNL     1       2.097   7.430  19.584  0.00  0.00    +0.000 N 
ATOM     10  H   UNL     1       2.248   6.539  20.058  0.00  0.00    +0.000 HD
BRANCH   8  11
ATOM     11  C   UNL     1       3.356   6.390  17.694  0.00  0.00    +0.000 A 
ATOM     12  C   UNL     1       4.558   6.741  17.026  0.00  0.00    +0.000 A 
ATOM     13  C   UNL     1       5.454   5.767  16.622  0.00  0.00    +0.000 A 
ATOM     14  C   UNL     1       5.232   4.463  17.016  0.00  0.00    +0.000 A 
ATOM     15  C   UNL     1       4.029   4.112  17.629  0.00  0.00    +0.000 A 
ATOM     16  C   UNL     1       3.819   2.788  18.014  0.00  0.00    +0.000 A 
ATOM     17  C   UNL     1       2.527   2.316  18.083  0.00  0.00    +0.000 A 
ATOM     18  C   UNL     1       1.518   3.271  18.088  0.00  0.00    +0.000 A 
ATOM     19  N   UNL     1       1.735   4.598  18.101  0.00  0.00    +0.000 NA
ATOM     20  C   UNL     1       2.992   5.045  17.845  0.00  0.00    +0.000 A 
ENDBRANCH   8  11
ENDBRANCH   1   9
BRANCH   5  21
ATOM     21  S   UNL     1      -0.069  12.145  19.413  0.00  0.00    +0.000 S 
ATOM     22  O   UNL     1      -0.545  13.121  20.366  0.00  0.00    +0.000 OA
ATOM     23  O   UNL     1       1.009  12.475  18.484  0.00  0.00    +0.000 OA
BRANCH  21  24
ATOM     24  N   UNL     1      -1.398  11.617  18.471  0.00  0.00    +0.000 NA
ATOM     25  C   UNL     1      -1.258  10.282  17.835  0.00  0.00    +0.000 C 
ATOM     26  C   UNL     1      -2.411   9.989  16.880  0.00  0.00    +0.000 C 
ATOM     27  C   UNL     1      -3.756  10.155  17.573  0.00  0.00    +0.000 C 
ATOM     28  C   UNL     1      -3.869  11.567  18.129  0.00  0.00    +0.000 C 
ATOM     29  C   UNL     1      -2.734  11.860  19.102  0.00  0.00    +0.000 C 
ENDBRANCH  21  24
ENDBRANCH   5  21
TORSDOF 4
ENDMDL
MODEL 7
REMARK VINA RESULT:      -9.1      2.493      3.008
REMARK  Name = 
REMARK  4 active torsions:
REMARK  status: ('A' for Active; 'I' for Inactive)
REMARK    1  A    between atoms: C_2  and  C_19
REMARK    2  A    between atoms: N_3  and  C_4
REMARK    3  A    between atoms: C_8  and  S_9
REMARK    4  A    between atoms: S_9  and  N_12
REMARK                            x       y       z     vdW  Elec       q    Type
REMARK                         _______ _______ _______ _____ _____    ______ ____
ROOT
ATOM      1  C   UNL     1       2.517   6.486  18.601  0.00  0.00    +0.000 A 
ATOM      2  C   UNL     1       1.877   5.259  18.864  0.00  0.00    +0.000 A 
ATOM      3  C   UNL     1       2.309   4.069  18.268  0.00  0.00    +0.000 A 
ATOM      4  C   UNL     1       3.380   4.088  17.389  0.00  0.00    +0.000 A 
ATOM      5  C   UNL     1       4.009   5.276  17.090  0.00  0.00    +0.000 A 
ATOM      6  C   UNL     1       3.604   6.476  17.693  0.00  0.00    +0.000 A 
ENDROOT
BRANCH   1   9
ATOM      7  O   UNL     1       1.727   8.981  17.331  0.00  0.00    +0.000 OA
ATOM      8  C   UNL     1       1.765   8.864  18.566  0.00  0.00    +0.000 C 
ATOM      9  N   UNL     1       2.149   7.711  19.227  0.00  0.00    +0.000 N 
ATOM     10  H   UNL     1       2.100   7.737  20.246  0.00  0.00    +0.000 HD
BRANCH   8  11
ATOM     11  C   UNL     1       1.297  10.057  19.345  0.00  0.00    +0.000 A 
ATOM     12  C   UNL     1       1.356  11.290  18.646  0.00  0.00    +0.000 A 
ATOM     13  C   UNL     1       0.745  12.423  19.155  0.00  0.00    +0.000 A 
ATOM     14  C   UNL     1      -0.050  12.295  20.276  0.00  0.00    +0.000 A 
ATOM     15  C   UNL     1      -0.068  11.095  20.989  0.00  0.00    +0.000 A 
ATOM     16  C   UNL     1      -0.872  10.986  22.123  0.00  0.00    +0.000 A 
ATOM     17  C   UNL     1      -0.507  10.098  23.110  0.00  0.00    +0.000 A 
ATOM     18  C   UNL     1       0.442   9.143  22.765  0.00  0.00    +0.000 A 
ATOM     19  N   UNL     1       0.954   9.001  21.530  0.00  0.00    +0.000 NA
ATOM     20  C   UNL     1       0.730   9.989  20.625  0.00  0.00    +0.000 A 
ENDBRANCH   8  11
ENDBRANCH   1   9
BRANCH   5  21
ATOM     21  S   UNL     1       5.422   5.276  16.016  0.00  0.00    +0.000 S 
ATOM     22  O   UNL     1       5.676   3.914  15.605  0.00  0.00    +0.000 OA
ATOM     23  O   UNL     1       5.207   6.327  15.025  0.00  0.00    +0.000 OA
BRANCH  21  24
ATOM     24  N   UNL     1       6.715   5.787  17.017  0.00  0.00    +0.000 NA
ATOM     25  C   UNL     1       6.817   7.249  17.255  0.00  0.00    +0.000 C 
ATOM     26  C   UNL     1       8.097   7.610  18.002  0.00  0.00    +0.000 C 
ATOM     27  C   UNL     1       8.228   6.809  19.290  0.00  0.00    +0.000 C 
ATOM     28  C   UNL     1       8.200   5.322  18.967  0.00  0.00    +0.000 C 
ATOM     29  C   UNL     1       6.914   4.948  18.241  0.00  0.00    +0.000 C 
ENDBRANCH  21  24
ENDBRANCH   5  21
TORSDOF 4
ENDMDL
MODEL 8
REMARK VINA RESULT:      -9.1      2.416      3.250
REMARK  Name = 
REMARK  4 active torsions:
REMARK  status: ('A' for Active; 'I' for Inactive)
REMARK    1  A    between atoms: C_2  and  C_19
REMARK    2  A    between atoms: N_3  and  C_4
REMARK    3  A    between atoms: C_8  and  S_9
REMARK    4  A    between atoms: S_9  and  N_12
REMARK                            x       y       z     vdW  Elec       q    Type
REMARK                         _______ _______ _______ _____ _____    ______ ____
ROOT
ATOM      1  C   UNL     1       2.015   5.344  20.547  0.00  0.00    +0.000 A 
ATOM      2  C   UNL     1       2.049   4.457  21.642  0.00  0.00    +0.000 A 
ATOM      3  C   UNL     1       2.475   3.132  21.493  0.00  0.00    +0.000 A 
ATOM      4  C   UNL     1       2.860   2.668  20.246  0.00  0.00    +0.000 A 
ATOM      5  C   UNL     1       2.811   3.502  19.151  0.00  0.00    +0.000 A 
ATOM      6  C   UNL     1       2.407   4.840  19.283  0.00  0.00    +0.000 A 
ENDROOT
BRANCH   1   9
ATOM      7  O   UNL     1       2.532   7.503  18.668  0.00  0.00    +0.000 OA
ATOM      8  C   UNL     1       1.906   7.695  19.723  0.00  0.00    +0.000 C 
ATOM      9  N   UNL     1       1.644   6.714  20.662  0.00  0.00    +0.000 N 
ATOM     10  H   UNL     1       1.086   6.997  21.468  0.00  0.00    +0.000 HD
BRANCH   8  11
ATOM     11  C   UNL     1       1.367   9.081  19.913  0.00  0.00    +0.000 A 
ATOM     12  C   UNL     1       1.531   9.947  18.801  0.00  0.00    +0.000 A 
ATOM     13  C   UNL     1       0.881  11.168  18.752  0.00  0.00    +0.000 A 
ATOM     14  C   UNL     1      -0.045  11.461  19.731  0.00  0.00    +0.000 A 
ATOM     15  C   UNL     1      -0.169  10.634  20.848  0.00  0.00    +0.000 A 
ATOM     16  C   UNL     1      -1.106  10.949  21.832  0.00  0.00    +0.000 A 
ATOM     17  C   UNL     1      -0.879  10.527  23.122  0.00  0.00    +0.000 A 
ATOM     18  C   UNL     1       0.089   9.544  23.291  0.00  0.00    +0.000 A 
ATOM     19  N   UNL     1       0.744   8.949  22.280  0.00  0.00    +0.000 NA
ATOM     20  C   UNL     1       0.648   9.499  21.041  0.00  0.00    +0.000 A 
ENDBRANCH   8  11
ENDBRANCH   1   9
BRANCH   5  21
ATOM     21  S   UNL     1       3.373   2.915  17.573  0.00  0.00    +0.000 S 
ATOM     22  O   UNL     1       3.852   1.563  17.739  0.00  0.00    +0.000 OA
ATOM     23  O   UNL     1       2.322   3.221  16.605  0.00  0.00    +0.000 OA
BRANCH  21  24
ATOM     24  N   UNL     1       4.709   3.919  17.198  0.00  0.00    +0.000 NA
ATOM     25  C   UNL     1       5.643   4.206  18.316  0.00  0.00    +0.000 C 
ATOM     26  C   UNL     1       6.687   5.247  17.924  0.00  0.00    +0.000 C 
ATOM     27  C   UNL     1       7.421   4.840  16.654  0.00  0.00    +0.000 C 
ATOM     28  C   UNL     1       6.416   4.643  15.529  0.00  0.00    +0.000 C 
ATOM     29  C   UNL     1       5.382   3.588  15.903  0.00  0.00    +0.000 C 
ENDBRANCH  21  24
ENDBRANCH   5  21
TORSDOF 4
ENDMDL
MODEL 9
REMARK VINA RESULT:      -9.0      2.024      2.616
REMARK  Name = 
REMARK  4 active torsions:
REMARK  status: ('A' for Active; 'I' for Inactive)
REMARK    1  A    between atoms: C_2  and  C_19
REMARK    2  A    between atoms: N_3  and  C_4
REMARK    3  A    between atoms: C_8  and  S_9
REMARK    4  A    between atoms: S_9  and  N_12
REMARK                            x       y       z     vdW  Elec       q    Type
REMARK                         _______ _______ _______ _____ _____    ______ ____
ROOT
ATOM      1  C   UNL     1       1.996   6.374  20.341  0.00  0.00    +0.000 A 
ATOM      2  C   UNL     1       1.144   5.298  20.660  0.00  0.00    +0.000 A 
ATOM      3  C   UNL     1       1.553   3.970  20.487  0.00  0.00    +0.000 A 
ATOM      4  C   UNL     1       2.813   3.696  19.982  0.00  0.00    +0.000 A 
ATOM      5  C   UNL     1       3.658   4.727  19.635  0.00  0.00    +0.000 A 
ATOM      6  C   UNL     1       3.276   6.065  19.819  0.00  0.00    +0.000 A 
ENDROOT
BRANCH   1   9
ATOM      7  O   UNL     1       1.722   8.482  18.356  0.00  0.00    +0.000 OA
ATOM      8  C   UNL     1       1.515   8.693  19.562  0.00  0.00    +0.000 C 
ATOM      9  N   UNL     1       1.646   7.738  20.553  0.00  0.00    +0.000 N 
ATOM     10  H   UNL     1       1.409   8.034  21.501  0.00  0.00    +0.000 HD
BRANCH   8  11
ATOM     11  C   UNL     1       1.035  10.072  19.905  0.00  0.00    +0.000 A 
ATOM     12  C   UNL     1       1.353  11.073  18.951  0.00  0.00    +0.000 A 
ATOM     13  C   UNL     1       0.778  12.330  19.024  0.00  0.00    +0.000 A 
ATOM     14  C   UNL     1      -0.223  12.543  19.950  0.00  0.00    +0.000 A 
ATOM     15  C   UNL     1      -0.500  11.577  20.917  0.00  0.00    +0.000 A 
ATOM     16  C   UNL     1      -1.511  11.812  21.849  0.00  0.00    +0.000 A 
ATOM     17  C   UNL     1      -1.434  11.198  23.079  0.00  0.00    +0.000 A 
ATOM     18  C   UNL     1      -0.542  10.138  23.187  0.00  0.00    +0.000 A 
ATOM     19  N   UNL     1       0.177   9.649  22.162  0.00  0.00    +0.000 NA
ATOM     20  C   UNL     1       0.232  10.373  21.014  0.00  0.00    +0.000 A 
ENDBRANCH   8  11
ENDBRANCH   1   9
BRANCH   5  21
ATOM     21  S   UNL     1       5.295   4.363  19.053  0.00  0.00    +0.000 S 
ATOM     22  O   UNL     1       6.212   5.288  19.679  0.00  0.00    +0.000 OA
ATOM     23  O   UNL     1       5.485   2.921  19.185  0.00  0.00    +0.000 OA
BRANCH  21  24
ATOM     24  N   UNL     1       5.237   4.711  17.377  0.00  0.00    +0.000 NA
ATOM     25  C   UNL     1       5.528   6.116  16.992  0.00  0.00    +0.000 C 
ATOM     26  C   UNL     1       5.273   6.357  15.507  0.00  0.00    +0.000 C 
ATOM     27  C   UNL     1       6.035   5.358  14.648  0.00  0.00    +0.000 C 
ATOM     28  C   UNL     1       5.630   3.943  15.036  0.00  0.00    +0.000 C 
ATOM     29  C   UNL     1       5.902   3.686  16.513  0.00  0.00    +0.000 C 
ENDBRANCH  21  24
ENDBRANCH   5  21
TORSDOF 4
ENDMDL
