MODEL 1
REMARK VINA RESULT:      -8.0      0.000      0.000
REMARK  Name = 
REMARK  5 active torsions:
REMARK  status: ('A' for Active; 'I' for Inactive)
REMARK    1  A    between atoms: C_2  and  C_24
REMARK    2  A    between atoms: N_3  and  C_4
REMARK    3  A    between atoms: N_7  and  C_8
REMARK    4  A    between atoms: C_8  and  C_9
REMARK    5  A    between atoms: C_15  and  C_17
REMARK                            x       y       z     vdW  Elec       q    Type
REMARK                         _______ _______ _______ _____ _____    ______ ____
ROOT
ATOM      1  C   UNL     1       0.394   9.554  20.254  0.00  0.00    +0.000 A 
ATOM      2  C   UNL     1       0.929   9.616  18.953  0.00  0.00    +0.000 A 
ATOM      3  N   UNL     1       1.828   8.649  18.727  0.00  0.00    +0.000 NA
ATOM      4  N   UNL     1       1.866   7.970  19.896  0.00  0.00    +0.000 N 
ATOM      5  C   UNL     1       1.067   8.522  20.854  0.00  0.00    +0.000 A 
ENDROOT
BRANCH   1   8
ATOM      6  O   UNL     1       0.625  12.157  21.459  0.00  0.00    +0.000 OA
ATOM      7  C   UNL     1      -0.411  11.505  21.455  0.00  0.00    +0.000 C 
ATOM      8  N   UNL     1      -0.593  10.260  20.906  0.00  0.00    +0.000 N 
ATOM      9  H   UNL     1      -1.531   9.883  20.818  0.00  0.00    +0.000 HD
BRANCH   7  10
ATOM     10  C   UNL     1      -1.647  12.097  22.002  0.00  0.00    +0.000 A 
ATOM     11  C   UNL     1      -2.191  11.695  23.225  0.00  0.00    +0.000 A 
ATOM     12  C   UNL     1      -3.387  12.263  23.651  0.00  0.00    +0.000 A 
ATOM     13  C   UNL     1      -3.993  13.210  22.838  0.00  0.00    +0.000 A 
ATOM     14  N   UNL     1      -3.486  13.622  21.654  0.00  0.00    +0.000 NA
ATOM     15  C   UNL     1      -2.315  13.062  21.264  0.00  0.00    +0.000 A 
ENDBRANCH   7  10
ENDBRANCH   1   8
BRANCH   4  16
ATOM     16  C   UNL     1       2.612   6.725  19.965  0.00  0.00    +0.000 C 
BRANCH  16  17
ATOM     17  C   UNL     1       2.188   5.601  18.973  0.00  0.00    +0.000 C 
ATOM     18  C   UNL     1       1.502   4.465  19.788  0.00  0.00    +0.000 C 
ATOM     19  C   UNL     1       1.151   3.211  18.994  0.00  0.00    +0.000 C 
ATOM     20  C   UNL     1       2.312   2.783  18.108  0.00  0.00    +0.000 C 
ATOM     21  C   UNL     1       2.689   3.942  17.199  0.00  0.00    +0.000 C 
ATOM     22  N   UNL     1       3.202   5.054  18.009  0.00  0.00    +0.000 N 
ATOM     23  C   UNL     1       4.317   5.820  17.625  0.00  0.00    +0.000 C 
ATOM     24  O   UNL     1       4.523   6.952  18.060  0.00  0.00    +0.000 OA
BRANCH  23  25
ATOM     25  C   UNL     1       5.355   5.312  16.695  0.00  0.00    +0.000 A 
ATOM     26  C   UNL     1       5.148   5.465  15.320  0.00  0.00    +0.000 A 
ATOM     27  C   UNL     1       6.091   4.989  14.414  0.00  0.00    +0.000 A 
ATOM     28  C   UNL     1       7.225   4.375  14.917  0.00  0.00    +0.000 A 
ATOM     29  N   UNL     1       7.497   4.271  16.236  0.00  0.00    +0.000 NA
ATOM     30  C   UNL     1       6.571   4.775  17.092  0.00  0.00    +0.000 A 
ENDBRANCH  23  25
ENDBRANCH  16  17
ENDBRANCH   4  16
TORSDOF 5
ENDMDL
MODEL 2
REMARK VINA RESULT:      -7.7      2.003      3.408
REMARK  Name = 
REMARK  5 active torsions:
REMARK  status: ('A' for Active; 'I' for Inactive)
REMARK    1  A    between atoms: C_2  and  C_24
REMARK    2  A    between atoms: N_3  and  C_4
REMARK    3  A    between atoms: N_7  and  C_8
REMARK    4  A    between atoms: C_8  and  C_9
REMARK    5  A    between atoms: C_15  and  C_17
REMARK                            x       y       z     vdW  Elec       q    Type
REMARK                         _______ _______ _______ _____ _____    ______ ____
ROOT
ATOM      1  C   UNL     1       2.154   8.102  19.215  0.00  0.00    +0.000 A 
ATOM      2  C   UNL     1       2.563   8.245  17.875  0.00  0.00    +0.000 A 
ATOM      3  N   UNL     1       3.163   7.143  17.407  0.00  0.00    +0.000 NA
ATOM      4  N   UNL     1       3.137   6.294  18.459  0.00  0.00    +0.000 N 
ATOM      5  C   UNL     1       2.597   6.857  19.578  0.00  0.00    +0.000 A 
ENDROOT
BRANCH   1   8
ATOM      6  O   UNL     1       0.004   9.895  18.548  0.00  0.00    +0.000 OA
ATOM      7  C   UNL     1       0.422   9.736  19.689  0.00  0.00    +0.000 C 
ATOM      8  N   UNL     1       1.443   8.906  20.079  0.00  0.00    +0.000 N 
ATOM      9  H   UNL     1       1.599   8.731  21.066  0.00  0.00    +0.000 HD
BRANCH   7  10
ATOM     10  C   UNL     1      -0.254  10.411  20.813  0.00  0.00    +0.000 A 
ATOM     11  C   UNL     1      -1.139  11.476  20.624  0.00  0.00    +0.000 A 
ATOM     12  C   UNL     1      -1.699  12.095  21.737  0.00  0.00    +0.000 A 
ATOM     13  C   UNL     1      -1.352  11.624  22.996  0.00  0.00    +0.000 A 
ATOM     14  N   UNL     1      -0.504  10.593  23.208  0.00  0.00    +0.000 NA
ATOM     15  C   UNL     1       0.021   9.998  22.109  0.00  0.00    +0.000 A 
ENDBRANCH   7  10
ENDBRANCH   1   8
BRANCH   4  16
ATOM     16  C   UNL     1       3.546   4.913  18.263  0.00  0.00    +0.000 C 
BRANCH  16  17
ATOM     17  C   UNL     1       5.074   4.620  18.340  0.00  0.00    +0.000 C 
ATOM     18  C   UNL     1       5.693   5.542  19.432  0.00  0.00    +0.000 C 
ATOM     19  C   UNL     1       7.213   5.493  19.543  0.00  0.00    +0.000 C 
ATOM     20  C   UNL     1       7.864   5.565  18.169  0.00  0.00    +0.000 C 
ATOM     21  C   UNL     1       7.322   4.433  17.311  0.00  0.00    +0.000 C 
ATOM     22  N   UNL     1       5.888   4.637  17.077  0.00  0.00    +0.000 N 
ATOM     23  C   UNL     1       5.283   4.409  15.828  0.00  0.00    +0.000 C 
ATOM     24  O   UNL     1       4.077   4.200  15.705  0.00  0.00    +0.000 OA
BRANCH  23  25
ATOM     25  C   UNL     1       6.043   4.440  14.554  0.00  0.00    +0.000 A 
ATOM     26  C   UNL     1       5.627   3.602  13.513  0.00  0.00    +0.000 A 
ATOM     27  C   UNL     1       6.322   3.591  12.307  0.00  0.00    +0.000 A 
ATOM     28  C   UNL     1       7.415   4.431  12.176  0.00  0.00    +0.000 A 
ATOM     29  N   UNL     1       7.804   5.305  13.130  0.00  0.00    +0.000 NA
ATOM     30  C   UNL     1       7.086   5.313  14.281  0.00  0.00    +0.000 A 
ENDBRANCH  23  25
ENDBRANCH  16  17
ENDBRANCH   4  16
TORSDOF 5
ENDMDL
MODEL 3
REMARK VINA RESULT:      -7.6      2.361      2.830
REMARK  Name = 
REMARK  5 active torsions:
REMARK  status: ('A' for Active; 'I' for Inactive)
REMARK    1  A    between atoms: C_2  and  C_24
REMARK    2  A    between atoms: N_3  and  C_4
REMARK    3  A    between atoms: N_7  and  C_8
REMARK    4  A    between atoms: C_8  and  C_9
REMARK    5  A    between atoms: C_15  and  C_17
REMARK                            x       y       z     vdW  Elec       q    Type
REMARK                         _______ _______ _______ _____ _____    ______ ____
ROOT
ATOM      1  C   UNL     1       1.021   9.308  20.450  0.00  0.00    +0.000 A 
ATOM      2  C   UNL     1       0.200   8.632  21.374  0.00  0.00    +0.000 A 
ATOM      3  N   UNL     1       0.497   7.329  21.459  0.00  0.00    +0.000 NA
ATOM      4  N   UNL     1       1.513   7.175  20.580  0.00  0.00    +0.000 N 
ATOM      5  C   UNL     1       1.811   8.327  19.911  0.00  0.00    +0.000 A 
ENDROOT
BRANCH   1   8
ATOM      6  O   UNL     1      -0.535  10.732  18.493  0.00  0.00    +0.000 OA
ATOM      7  C   UNL     1       0.365  11.247  19.144  0.00  0.00    +0.000 C 
ATOM      8  N   UNL     1       1.150  10.630  20.088  0.00  0.00    +0.000 N 
ATOM      9  H   UNL     1       1.754  11.189  20.681  0.00  0.00    +0.000 HD
BRANCH   7  10
ATOM     10  C   UNL     1       0.625  12.693  19.013  0.00  0.00    +0.000 A 
ATOM     11  C   UNL     1       1.903  13.239  19.156  0.00  0.00    +0.000 A 
ATOM     12  C   UNL     1       2.062  14.619  19.069  0.00  0.00    +0.000 A 
ATOM     13  C   UNL     1       0.936  15.398  18.842  0.00  0.00    +0.000 A 
ATOM     14  N   UNL     1      -0.310  14.896  18.695  0.00  0.00    +0.000 NA
ATOM     15  C   UNL     1      -0.440  13.549  18.773  0.00  0.00    +0.000 A 
ENDBRANCH   7  10
ENDBRANCH   1   8
BRANCH   4  16
ATOM     16  C   UNL     1       2.222   5.908  20.534  0.00  0.00    +0.000 C 
BRANCH  16  17
ATOM     17  C   UNL     1       1.892   4.965  19.339  0.00  0.00    +0.000 C 
ATOM     18  C   UNL     1       1.212   3.682  19.904  0.00  0.00    +0.000 C 
ATOM     19  C   UNL     1       0.950   2.579  18.884  0.00  0.00    +0.000 C 
ATOM     20  C   UNL     1       2.168   2.349  18.002  0.00  0.00    +0.000 C 
ATOM     21  C   UNL     1       2.543   3.661  17.333  0.00  0.00    +0.000 C 
ATOM     22  N   UNL     1       2.972   4.627  18.351  0.00  0.00    +0.000 N 
ATOM     23  C   UNL     1       4.074   5.482  18.169  0.00  0.00    +0.000 C 
ATOM     24  O   UNL     1       4.214   6.525  18.806  0.00  0.00    +0.000 OA
BRANCH  23  25
ATOM     25  C   UNL     1       5.176   5.178  17.223  0.00  0.00    +0.000 A 
ATOM     26  C   UNL     1       4.987   5.472  15.868  0.00  0.00    +0.000 A 
ATOM     27  C   UNL     1       5.991   5.188  14.946  0.00  0.00    +0.000 A 
ATOM     28  C   UNL     1       7.164   4.620  15.414  0.00  0.00    +0.000 A 
ATOM     29  N   UNL     1       7.413   4.388  16.722  0.00  0.00    +0.000 NA
ATOM     30  C   UNL     1       6.425   4.706  17.597  0.00  0.00    +0.000 A 
ENDBRANCH  23  25
ENDBRANCH  16  17
ENDBRANCH   4  16
TORSDOF 5
ENDMDL
MODEL 4
REMARK VINA RESULT:      -7.6      2.180      3.945
REMARK  Name = 
REMARK  5 active torsions:
REMARK  status: ('A' for Active; 'I' for Inactive)
REMARK    1  A    between atoms: C_2  and  C_24
REMARK    2  A    between atoms: N_3  and  C_4
REMARK    3  A    between atoms: N_7  and  C_8
REMARK    4  A    between atoms: C_8  and  C_9
REMARK    5  A    between atoms: C_15  and  C_17
REMARK                            x       y       z     vdW  Elec       q    Type
REMARK                         _______ _______ _______ _____ _____    ______ ____
ROOT
ATOM      1  C   UNL     1       1.847   6.139  20.655  0.00  0.00    +0.000 A 
ATOM      2  C   UNL     1       2.229   4.906  21.218  0.00  0.00    +0.000 A 
ATOM      3  N   UNL     1       2.834   4.107  20.329  0.00  0.00    +0.000 NA
ATOM      4  N   UNL     1       2.834   4.839  19.191  0.00  0.00    +0.000 N 
ATOM      5  C   UNL     1       2.195   6.036  19.334  0.00  0.00    +0.000 A 
ENDROOT
BRANCH   1   8
ATOM      6  O   UNL     1       1.614   8.701  19.364  0.00  0.00    +0.000 OA
ATOM      7  C   UNL     1       1.205   8.476  20.497  0.00  0.00    +0.000 C 
ATOM      8  N   UNL     1       1.286   7.285  21.175  0.00  0.00    +0.000 N 
ATOM      9  H   UNL     1       0.773   7.165  22.042  0.00  0.00    +0.000 HD
BRANCH   7  10
ATOM     10  C   UNL     1       0.464   9.522  21.226  0.00  0.00    +0.000 A 
ATOM     11  C   UNL     1       0.009  10.688  20.603  0.00  0.00    +0.000 A 
ATOM     12  C   UNL     1      -0.639  11.653  21.368  0.00  0.00    +0.000 A 
ATOM     13  C   UNL     1      -0.807  11.415  22.725  0.00  0.00    +0.000 A 
ATOM     14  N   UNL     1      -0.383  10.294  23.351  0.00  0.00    +0.000 NA
ATOM     15  C   UNL     1       0.237   9.363  22.585  0.00  0.00    +0.000 A 
ENDBRANCH   7  10
ENDBRANCH   1   8
BRANCH   4  16
ATOM     16  C   UNL     1       3.580   4.357  18.042  0.00  0.00    +0.000 C 
BRANCH  16  17
ATOM     17  C   UNL     1       5.133   4.346  18.172  0.00  0.00    +0.000 C 
ATOM     18  C   UNL     1       5.535   5.357  19.287  0.00  0.00    +0.000 C 
ATOM     19  C   UNL     1       7.034   5.585  19.451  0.00  0.00    +0.000 C 
ATOM     20  C   UNL     1       7.707   5.786  18.102  0.00  0.00    +0.000 C 
ATOM     21  C   UNL     1       7.411   4.581  17.223  0.00  0.00    +0.000 C 
ATOM     22  N   UNL     1       5.973   4.522  16.939  0.00  0.00    +0.000 N 
ATOM     23  C   UNL     1       5.463   4.198  15.669  0.00  0.00    +0.000 C 
ATOM     24  O   UNL     1       4.321   3.774  15.503  0.00  0.00    +0.000 OA
BRANCH  23  25
ATOM     25  C   UNL     1       6.248   4.377  14.422  0.00  0.00    +0.000 A 
ATOM     26  C   UNL     1       5.947   3.562  13.325  0.00  0.00    +0.000 A 
ATOM     27  C   UNL     1       6.670   3.689  12.142  0.00  0.00    +0.000 A 
ATOM     28  C   UNL     1       7.674   4.640  12.091  0.00  0.00    +0.000 A 
ATOM     29  N   UNL     1       7.947   5.495  13.102  0.00  0.00    +0.000 NA
ATOM     30  C   UNL     1       7.202   5.365  14.229  0.00  0.00    +0.000 A 
ENDBRANCH  23  25
ENDBRANCH  16  17
ENDBRANCH   4  16
TORSDOF 5
ENDMDL
MODEL 5
REMARK VINA RESULT:      -7.6      1.037      1.275
REMARK  Name = 
REMARK  5 active torsions:
REMARK  status: ('A' for Active; 'I' for Inactive)
REMARK    1  A    between atoms: C_2  and  C_24
REMARK    2  A    between atoms: N_3  and  C_4
REMARK    3  A    between atoms: N_7  and  C_8
REMARK    4  A    between atoms: C_8  and  C_9
REMARK    5  A    between atoms: C_15  and  C_17
REMARK                            x       y       z     vdW  Elec       q    Type
REMARK                         _______ _______ _______ _____ _____    ______ ____
ROOT
ATOM      1  C   UNL     1       0.635   9.655  20.372  0.00  0.00    +0.000 A 
ATOM      2  C   UNL     1       1.099   9.524  19.049  0.00  0.00    +0.000 A 
ATOM      3  N   UNL     1       1.829   8.415  18.874  0.00  0.00    +0.000 NA
ATOM      4  N   UNL     1       1.831   7.838  20.097  0.00  0.00    +0.000 N 
ATOM      5  C   UNL     1       1.179   8.586  21.034  0.00  0.00    +0.000 A 
ENDROOT
BRANCH   1   8
ATOM      6  O   UNL     1       0.346  10.072  23.205  0.00  0.00    +0.000 OA
ATOM      7  C   UNL     1      -0.279  10.704  22.362  0.00  0.00    +0.000 C 
ATOM      8  N   UNL     1      -0.196  10.556  20.999  0.00  0.00    +0.000 N 
ATOM      9  H   UNL     1      -0.636  11.240  20.393  0.00  0.00    +0.000 HD
BRANCH   7  10
ATOM     10  C   UNL     1      -1.160  11.809  22.784  0.00  0.00    +0.000 A 
ATOM     11  C   UNL     1      -2.417  11.587  23.353  0.00  0.00    +0.000 A 
ATOM     12  C   UNL     1      -3.214  12.681  23.680  0.00  0.00    +0.000 A 
ATOM     13  C   UNL     1      -2.722  13.953  23.425  0.00  0.00    +0.000 A 
ATOM     14  N   UNL     1      -1.508  14.197  22.881  0.00  0.00    +0.000 NA
ATOM     15  C   UNL     1      -0.745  13.117  22.580  0.00  0.00    +0.000 A 
ENDBRANCH   7  10
ENDBRANCH   1   8
BRANCH   4  16
ATOM     16  C   UNL     1       2.385   6.503  20.248  0.00  0.00    +0.000 C 
BRANCH  16  17
ATOM     17  C   UNL     1       2.005   5.463  19.152  0.00  0.00    +0.000 C 
ATOM     18  C   UNL     1       1.350   4.235  19.853  0.00  0.00    +0.000 C 
ATOM     19  C   UNL     1       1.046   3.049  18.943  0.00  0.00    +0.000 C 
ATOM     20  C   UNL     1       2.227   2.741  18.034  0.00  0.00    +0.000 C 
ATOM     21  C   UNL     1       2.573   3.990  17.240  0.00  0.00    +0.000 C 
ATOM     22  N   UNL     1       3.044   5.038  18.153  0.00  0.00    +0.000 N 
ATOM     23  C   UNL     1       4.136   5.871  17.853  0.00  0.00    +0.000 C 
ATOM     24  O   UNL     1       4.303   6.964  18.391  0.00  0.00    +0.000 OA
BRANCH  23  25
ATOM     25  C   UNL     1       5.198   5.483  16.891  0.00  0.00    +0.000 A 
ATOM     26  C   UNL     1       6.216   4.632  17.335  0.00  0.00    +0.000 A 
ATOM     27  C   UNL     1       7.239   4.257  16.468  0.00  0.00    +0.000 A 
ATOM     28  C   UNL     1       7.206   4.743  15.172  0.00  0.00    +0.000 A 
ATOM     29  N   UNL     1       6.204   5.508  14.686  0.00  0.00    +0.000 NA
ATOM     30  C   UNL     1       5.207   5.829  15.549  0.00  0.00    +0.000 A 
ENDBRANCH  23  25
ENDBRANCH  16  17
ENDBRANCH   4  16
TORSDOF 5
ENDMDL
MODEL 6
REMARK VINA RESULT:      -7.5      2.104      2.713
REMARK  Name = 
REMARK  5 active torsions:
REMARK  status: ('A' for Active; 'I' for Inactive)
REMARK    1  A    between atoms: C_2  and  C_24
REMARK    2  A    between atoms: N_3  and  C_4
REMARK    3  A    between atoms: N_7  and  C_8
REMARK    4  A    between atoms: C_8  and  C_9
REMARK    5  A    between atoms: C_15  and  C_17
REMARK                            x       y       z     vdW  Elec       q    Type
REMARK                         _______ _______ _______ _____ _____    ______ ____
ROOT
ATOM      1  C   UNL     1       0.951   9.376  20.215  0.00  0.00    +0.000 A 
ATOM      2  C   UNL     1       0.304   8.666  21.245  0.00  0.00    +0.000 A 
ATOM      3  N   UNL     1       0.727   7.398  21.331  0.00  0.00    +0.000 NA
ATOM      4  N   UNL     1       1.649   7.302  20.345  0.00  0.00    +0.000 N 
ATOM      5  C   UNL     1       1.763   8.450  19.616  0.00  0.00    +0.000 A 
ENDROOT
BRANCH   1   8
ATOM      6  O   UNL     1       0.558  11.702  21.865  0.00  0.00    +0.000 OA
ATOM      7  C   UNL     1       0.728  11.754  20.653  0.00  0.00    +0.000 C 
ATOM      8  N   UNL     1       0.915  10.691  19.805  0.00  0.00    +0.000 N 
ATOM      9  H   UNL     1       1.207  10.857  18.848  0.00  0.00    +0.000 HD
BRANCH   7  10
ATOM     10  C   UNL     1       0.839  13.067  19.988  0.00  0.00    +0.000 A 
ATOM     11  C   UNL     1      -0.282  13.832  19.652  0.00  0.00    +0.000 A 
ATOM     12  C   UNL     1      -0.099  15.037  18.980  0.00  0.00    +0.000 A 
ATOM     13  C   UNL     1       1.195  15.430  18.673  0.00  0.00    +0.000 A 
ATOM     14  N   UNL     1       2.296  14.713  18.991  0.00  0.00    +0.000 NA
ATOM     15  C   UNL     1       2.096  13.548  19.654  0.00  0.00    +0.000 A 
ENDBRANCH   7  10
ENDBRANCH   1   8
BRANCH   4  16
ATOM     16  C   UNL     1       2.462   6.102  20.254  0.00  0.00    +0.000 C 
BRANCH  16  17
ATOM     17  C   UNL     1       2.093   5.092  19.126  0.00  0.00    +0.000 C 
ATOM     18  C   UNL     1       1.428   3.848  19.786  0.00  0.00    +0.000 C 
ATOM     19  C   UNL     1       1.132   2.688  18.840  0.00  0.00    +0.000 C 
ATOM     20  C   UNL     1       2.322   2.402  17.936  0.00  0.00    +0.000 C 
ATOM     21  C   UNL     1       2.678   3.672  17.180  0.00  0.00    +0.000 C 
ATOM     22  N   UNL     1       3.141   4.693  18.127  0.00  0.00    +0.000 N 
ATOM     23  C   UNL     1       4.238   5.532  17.861  0.00  0.00    +0.000 C 
ATOM     24  O   UNL     1       4.400   6.610  18.431  0.00  0.00    +0.000 OA
BRANCH  23  25
ATOM     25  C   UNL     1       5.309   5.169  16.901  0.00  0.00    +0.000 A 
ATOM     26  C   UNL     1       5.090   5.408  15.540  0.00  0.00    +0.000 A 
ATOM     27  C   UNL     1       6.063   5.068  14.605  0.00  0.00    +0.000 A 
ATOM     28  C   UNL     1       7.240   4.501  15.066  0.00  0.00    +0.000 A 
ATOM     29  N   UNL     1       7.519   4.321  16.376  0.00  0.00    +0.000 NA
ATOM     30  C   UNL     1       6.561   4.692  17.262  0.00  0.00    +0.000 A 
ENDBRANCH  23  25
ENDBRANCH  16  17
ENDBRANCH   4  16
TORSDOF 5
ENDMDL
MODEL 7
REMARK VINA RESULT:      -7.5      1.611     10.346
REMARK  Name = 
REMARK  5 active torsions:
REMARK  status: ('A' for Active; 'I' for Inactive)
REMARK    1  A    between atoms: C_2  and  C_24
REMARK    2  A    between atoms: N_3  and  C_4
REMARK    3  A    between atoms: N_7  and  C_8
REMARK    4  A    between atoms: C_8  and  C_9
REMARK    5  A    between atoms: C_15  and  C_17
REMARK                            x       y       z     vdW  Elec       q    Type
REMARK                         _______ _______ _______ _____ _____    ______ ____
ROOT
ATOM      1  C   UNL     1       2.787   6.453  19.242  0.00  0.00    +0.000 A 
ATOM      2  C   UNL     1       1.957   5.690  20.085  0.00  0.00    +0.000 A 
ATOM      3  N   UNL     1       1.269   6.452  20.946  0.00  0.00    +0.000 NA
ATOM      4  N   UNL     1       1.668   7.710  20.647  0.00  0.00    +0.000 N 
ATOM      5  C   UNL     1       2.624   7.743  19.674  0.00  0.00    +0.000 A 
ENDROOT
BRANCH   1   8
ATOM      6  O   UNL     1       5.498   5.493  19.341  0.00  0.00    +0.000 OA
ATOM      7  C   UNL     1       4.885   5.679  18.297  0.00  0.00    +0.000 C 
ATOM      8  N   UNL     1       3.597   6.138  18.173  0.00  0.00    +0.000 N 
ATOM      9  H   UNL     1       3.135   6.100  17.271  0.00  0.00    +0.000 HD
BRANCH   7  10
ATOM     10  C   UNL     1       5.506   5.309  17.011  0.00  0.00    +0.000 A 
ATOM     11  C   UNL     1       4.907   4.413  16.121  0.00  0.00    +0.000 A 
ATOM     12  C   UNL     1       5.577   4.073  14.950  0.00  0.00    +0.000 A 
ATOM     13  C   UNL     1       6.821   4.642  14.715  0.00  0.00    +0.000 A 
ATOM     14  N   UNL     1       7.421   5.515  15.554  0.00  0.00    +0.000 NA
ATOM     15  C   UNL     1       6.745   5.840  16.684  0.00  0.00    +0.000 A 
ENDBRANCH   7  10
ENDBRANCH   1   8
BRANCH   4  16
ATOM     16  C   UNL     1       0.986   8.832  21.268  0.00  0.00    +0.000 C 
BRANCH  16  17
ATOM     17  C   UNL     1      -0.099   9.551  20.411  0.00  0.00    +0.000 C 
ATOM     18  C   UNL     1       0.498   9.823  18.998  0.00  0.00    +0.000 C 
ATOM     19  C   UNL     1      -0.379  10.654  18.068  0.00  0.00    +0.000 C 
ATOM     20  C   UNL     1      -0.949  11.866  18.791  0.00  0.00    +0.000 C 
ATOM     21  C   UNL     1      -1.714  11.389  20.016  0.00  0.00    +0.000 C 
ATOM     22  N   UNL     1      -0.784  10.767  20.965  0.00  0.00    +0.000 N 
ATOM     23  C   UNL     1      -0.861  10.980  22.353  0.00  0.00    +0.000 C 
ATOM     24  O   UNL     1      -0.371  10.203  23.170  0.00  0.00    +0.000 OA
BRANCH  23  25
ATOM     25  C   UNL     1      -1.506  12.179  22.944  0.00  0.00    +0.000 A 
ATOM     26  C   UNL     1      -2.798  12.048  23.466  0.00  0.00    +0.000 A 
ATOM     27  C   UNL     1      -3.444  13.151  24.015  0.00  0.00    +0.000 A 
ATOM     28  C   UNL     1      -2.769  14.360  24.033  0.00  0.00    +0.000 A 
ATOM     29  N   UNL     1      -1.496  14.511  23.606  0.00  0.00    +0.000 NA
ATOM     30  C   UNL     1      -0.884  13.408  23.104  0.00  0.00    +0.000 A 
ENDBRANCH  23  25
ENDBRANCH  16  17
ENDBRANCH   4  16
TORSDOF 5
ENDMDL
MODEL 8
REMARK VINA RESULT:      -7.4      0.845      1.134
REMARK  Name = 
REMARK  5 active torsions:
REMARK  status: ('A' for Active; 'I' for Inactive)
REMARK    1  A    between atoms: C_2  and  C_24
REMARK    2  A    between atoms: N_3  and  C_4
REMARK    3  A    between atoms: N_7  and  C_8
REMARK    4  A    between atoms: C_8  and  C_9
REMARK    5  A    between atoms: C_15  and  C_17
REMARK                            x       y       z     vdW  Elec       q    Type
REMARK                         _______ _______ _______ _____ _____    ______ ____
ROOT
ATOM      1  C   UNL     1      -0.038  10.062  19.732  0.00  0.00    +0.000 A 
ATOM      2  C   UNL     1       0.492   9.963  18.431  0.00  0.00    +0.000 A 
ATOM      3  N   UNL     1       1.473   9.055  18.351  0.00  0.00    +0.000 NA
ATOM      4  N   UNL     1       1.569   8.575  19.612  0.00  0.00    +0.000 N 
ATOM      5  C   UNL     1       0.721   9.200  20.479  0.00  0.00    +0.000 A 
ENDROOT
BRANCH   1   8
ATOM      6  O   UNL     1       0.004  11.659  22.126  0.00  0.00    +0.000 OA
ATOM      7  C   UNL     1      -0.990  11.520  21.425  0.00  0.00    +0.000 C 
ATOM      8  N   UNL     1      -1.085  10.772  20.277  0.00  0.00    +0.000 N 
ATOM      9  H   UNL     1      -1.907  10.857  19.689  0.00  0.00    +0.000 HD
BRANCH   7  10
ATOM     10  C   UNL     1      -2.217  12.274  21.742  0.00  0.00    +0.000 A 
ATOM     11  C   UNL     1      -2.708  12.389  23.046  0.00  0.00    +0.000 A 
ATOM     12  C   UNL     1      -3.900  13.075  23.260  0.00  0.00    +0.000 A 
ATOM     13  C   UNL     1      -4.554  13.618  22.164  0.00  0.00    +0.000 A 
ATOM     14  N   UNL     1      -4.099  13.527  20.894  0.00  0.00    +0.000 NA
ATOM     15  C   UNL     1      -2.931  12.864  20.709  0.00  0.00    +0.000 A 
ENDBRANCH   7  10
ENDBRANCH   1   8
BRANCH   4  16
ATOM     16  C   UNL     1       2.421   7.426  19.867  0.00  0.00    +0.000 C 
BRANCH  16  17
ATOM     17  C   UNL     1       2.076   6.116  19.098  0.00  0.00    +0.000 C 
ATOM     18  C   UNL     1       1.525   5.080  20.123  0.00  0.00    +0.000 C 
ATOM     19  C   UNL     1       1.272   3.683  19.567  0.00  0.00    +0.000 C 
ATOM     20  C   UNL     1       2.442   3.213  18.714  0.00  0.00    +0.000 C 
ATOM     21  C   UNL     1       2.679   4.229  17.607  0.00  0.00    +0.000 C 
ATOM     22  N   UNL     1       3.109   5.504  18.195  0.00  0.00    +0.000 N 
ATOM     23  C   UNL     1       4.134   6.288  17.638  0.00  0.00    +0.000 C 
ATOM     24  O   UNL     1       4.245   7.492  17.866  0.00  0.00    +0.000 OA
BRANCH  23  25
ATOM     25  C   UNL     1       5.188   5.722  16.760  0.00  0.00    +0.000 A 
ATOM     26  C   UNL     1       6.175   4.919  17.341  0.00  0.00    +0.000 A 
ATOM     27  C   UNL     1       7.190   4.381  16.555  0.00  0.00    +0.000 A 
ATOM     28  C   UNL     1       7.181   4.660  15.199  0.00  0.00    +0.000 A 
ATOM     29  N   UNL     1       6.208   5.371  14.588  0.00  0.00    +0.000 NA
ATOM     30  C   UNL     1       5.216   5.854  15.380  0.00  0.00    +0.000 A 
ENDBRANCH  23  25
ENDBRANCH  16  17
ENDBRANCH   4  16
TORSDOF 5
ENDMDL
MODEL 9
REMARK VINA RESULT:      -7.4      1.273      1.315
REMARK  Name = 
REMARK  5 active torsions:
REMARK  status: ('A' for Active; 'I' for Inactive)
REMARK    1  A    between atoms: C_2  and  C_24
REMARK    2  A    between atoms: N_3  and  C_4
REMARK    3  A    between atoms: N_7  and  C_8
REMARK    4  A    between atoms: C_8  and  C_9
REMARK    5  A    between atoms: C_15  and  C_17
REMARK                            x       y       z     vdW  Elec       q    Type
REMARK                         _______ _______ _______ _____ _____    ______ ____
ROOT
ATOM      1  C   UNL     1       0.327  10.011  19.282  0.00  0.00    +0.000 A 
ATOM      2  C   UNL     1       0.762   9.650  17.992  0.00  0.00    +0.000 A 
ATOM      3  N   UNL     1       1.636   8.636  18.016  0.00  0.00    +0.000 NA
ATOM      4  N   UNL     1       1.760   8.352  19.333  0.00  0.00    +0.000 N 
ATOM      5  C   UNL     1       1.038   9.198  20.124  0.00  0.00    +0.000 A 
ENDROOT
BRANCH   1   8
ATOM      6  O   UNL     1       0.672  12.848  19.619  0.00  0.00    +0.000 OA
ATOM      7  C   UNL     1      -0.369  12.259  19.880  0.00  0.00    +0.000 C 
ATOM      8  N   UNL     1      -0.603  10.913  19.749  0.00  0.00    +0.000 N 
ATOM      9  H   UNL     1      -1.549  10.557  19.839  0.00  0.00    +0.000 HD
BRANCH   7  10
ATOM     10  C   UNL     1      -1.557  13.028  20.298  0.00  0.00    +0.000 A 
ATOM     11  C   UNL     1      -2.838  12.471  20.320  0.00  0.00    +0.000 A 
ATOM     12  C   UNL     1      -3.918  13.273  20.678  0.00  0.00    +0.000 A 
ATOM     13  C   UNL     1      -3.673  14.601  20.999  0.00  0.00    +0.000 A 
ATOM     14  N   UNL     1      -2.444  15.164  20.991  0.00  0.00    +0.000 NA
ATOM     15  C   UNL     1      -1.406  14.361  20.650  0.00  0.00    +0.000 A 
ENDBRANCH   7  10
ENDBRANCH   1   8
BRANCH   4  16
ATOM     16  C   UNL     1       2.502   7.169  19.734  0.00  0.00    +0.000 C 
BRANCH  16  17
ATOM     17  C   UNL     1       2.190   5.854  18.961  0.00  0.00    +0.000 C 
ATOM     18  C   UNL     1       1.625   4.815  19.975  0.00  0.00    +0.000 C 
ATOM     19  C   UNL     1       1.399   3.414  19.417  0.00  0.00    +0.000 C 
ATOM     20  C   UNL     1       2.594   2.954  18.595  0.00  0.00    +0.000 C 
ATOM     21  C   UNL     1       2.848   3.968  17.491  0.00  0.00    +0.000 C 
ATOM     22  N   UNL     1       3.250   5.249  18.085  0.00  0.00    +0.000 N 
ATOM     23  C   UNL     1       4.280   6.043  17.550  0.00  0.00    +0.000 C 
ATOM     24  O   UNL     1       4.373   7.248  17.777  0.00  0.00    +0.000 OA
BRANCH  23  25
ATOM     25  C   UNL     1       5.361   5.485  16.700  0.00  0.00    +0.000 A 
ATOM     26  C   UNL     1       5.188   5.499  15.312  0.00  0.00    +0.000 A 
ATOM     27  C   UNL     1       6.172   4.972  14.480  0.00  0.00    +0.000 A 
ATOM     28  C   UNL     1       7.311   4.449  15.068  0.00  0.00    +0.000 A 
ATOM     29  N   UNL     1       7.548   4.481  16.398  0.00  0.00    +0.000 NA
ATOM     30  C   UNL     1       6.581   5.031  17.178  0.00  0.00    +0.000 A 
ENDBRANCH  23  25
ENDBRANCH  16  17
ENDBRANCH   4  16
TORSDOF 5
ENDMDL
