MODEL 1
REMARK VINA RESULT:      -8.3      0.000      0.000
REMARK  Name = 
REMARK  4 active torsions:
REMARK  status: ('A' for Active; 'I' for Inactive)
REMARK    1  A    between atoms: C_1  and  C_2
REMARK    2  A    between atoms: C_5  and  C_6
REMARK    3  A    between atoms: N_8  and  C_9
REMARK    4  A    between atoms: C_14  and  C_15
REMARK                            x       y       z     vdW  Elec       q    Type
REMARK                         _______ _______ _______ _____ _____    ______ ____
ROOT
ATOM      1  C   UNL     1       3.822   5.519  17.661  0.00  0.00    +0.000 A 
ATOM      2  C   UNL     1       3.812   4.721  18.815  0.00  0.00    +0.000 A 
ATOM      3  C   UNL     1       3.182   5.117  19.997  0.00  0.00    +0.000 A 
ATOM      4  C   UNL     1       2.570   6.361  19.980  0.00  0.00    +0.000 A 
ATOM      5  N   UNL     1       1.853   7.033  20.929  0.00  0.00    +0.000 N 
ATOM      6  C   UNL     1       1.470   8.250  20.419  0.00  0.00    +0.000 A 
ATOM      7  N   UNL     1       1.888   8.368  19.169  0.00  0.00    +0.000 NA
ATOM      8  C   UNL     1       2.582   7.210  18.883  0.00  0.00    +0.000 A 
ATOM      9  C   UNL     1       3.236   6.798  17.703  0.00  0.00    +0.000 A 
ATOM     10  H   UNL     1       1.619   6.678  21.844  0.00  0.00    +0.000 HD
ENDROOT
BRANCH   6  11
ATOM     11  C   UNL     1       0.689   9.216  21.188  0.00  0.00    +0.000 A 
ATOM     12  C   UNL     1      -0.085  10.209  20.576  0.00  0.00    +0.000 A 
ATOM     13  C   UNL     1      -0.808  11.111  21.355  0.00  0.00    +0.000 A 
ATOM     14  C   UNL     1      -0.731  10.996  22.733  0.00  0.00    +0.000 A 
ATOM     15  N   UNL     1       0.003  10.055  23.364  0.00  0.00    +0.000 NA
ATOM     16  C   UNL     1       0.688   9.185  22.578  0.00  0.00    +0.000 A 
ENDBRANCH   6  11
BRANCH   1  19
ATOM     17  C   UNL     1       5.516   5.639  15.847  0.00  0.00    +0.000 C 
ATOM     18  O   UNL     1       6.177   6.567  16.300  0.00  0.00    +0.000 OA
ATOM     19  N   UNL     1       4.396   5.069  16.441  0.00  0.00    +0.000 N 
ATOM     20  H   UNL     1       4.072   4.177  16.088  0.00  0.00    +0.000 HD
BRANCH  17  25
ATOM     21  C   UNL     1       7.281   2.868  11.086  0.00  0.00    +0.000 C 
ATOM     22  C   UNL     1       6.854   3.654  12.288  0.00  0.00    +0.000 A 
ATOM     23  C   UNL     1       7.733   4.511  12.966  0.00  0.00    +0.000 A 
ATOM     24  C   UNL     1       7.314   5.207  14.109  0.00  0.00    +0.000 A 
ATOM     25  C   UNL     1       6.006   5.045  14.579  0.00  0.00    +0.000 A 
ATOM     26  C   UNL     1       5.125   4.194  13.898  0.00  0.00    +0.000 A 
ATOM     27  C   UNL     1       5.551   3.514  12.767  0.00  0.00    +0.000 A 
ATOM     28  F   UNL     1       4.694   2.693  12.144  0.00  0.00    +0.000 F 
ENDBRANCH  17  25
ENDBRANCH   1  19
TORSDOF 3
ENDMDL
MODEL 2
REMARK VINA RESULT:      -8.3      1.277      1.691
REMARK  Name = 
REMARK  4 active torsions:
REMARK  status: ('A' for Active; 'I' for Inactive)
REMARK    1  A    between atoms: C_1  and  C_2
REMARK    2  A    between atoms: C_5  and  C_6
REMARK    3  A    between atoms: N_8  and  C_9
REMARK    4  A    between atoms: C_14  and  C_15
REMARK                            x       y       z     vdW  Elec       q    Type
REMARK                         _______ _______ _______ _____ _____    ______ ____
ROOT
ATOM      1  C   UNL     1       3.509   5.647  18.016  0.00  0.00    +0.000 A 
ATOM      2  C   UNL     1       3.330   4.819  19.135  0.00  0.00    +0.000 A 
ATOM      3  C   UNL     1       2.663   5.245  20.286  0.00  0.00    +0.000 A 
ATOM      4  C   UNL     1       2.191   6.549  20.275  0.00  0.00    +0.000 A 
ATOM      5  N   UNL     1       1.483   7.265  21.198  0.00  0.00    +0.000 N 
ATOM      6  C   UNL     1       1.271   8.533  20.710  0.00  0.00    +0.000 A 
ATOM      7  N   UNL     1       1.788   8.642  19.497  0.00  0.00    +0.000 NA
ATOM      8  C   UNL     1       2.373   7.425  19.215  0.00  0.00    +0.000 A 
ATOM      9  C   UNL     1       3.062   6.980  18.067  0.00  0.00    +0.000 A 
ATOM     10  H   UNL     1       1.147   6.911  22.080  0.00  0.00    +0.000 HD
ENDROOT
BRANCH   6  11
ATOM     11  C   UNL     1       0.545   9.554  21.460  0.00  0.00    +0.000 A 
ATOM     12  C   UNL     1      -0.301   9.237  22.530  0.00  0.00    +0.000 A 
ATOM     13  C   UNL     1      -0.977  10.248  23.211  0.00  0.00    +0.000 A 
ATOM     14  C   UNL     1      -0.789  11.556  22.797  0.00  0.00    +0.000 A 
ATOM     15  N   UNL     1       0.015  11.907  21.772  0.00  0.00    +0.000 NA
ATOM     16  C   UNL     1       0.667  10.900  21.134  0.00  0.00    +0.000 A 
ENDBRANCH   6  11
BRANCH   1  19
ATOM     17  C   UNL     1       5.427   5.454  16.449  0.00  0.00    +0.000 C 
ATOM     18  O   UNL     1       6.238   6.104  17.100  0.00  0.00    +0.000 OA
ATOM     19  N   UNL     1       4.118   5.174  16.821  0.00  0.00    +0.000 N 
ATOM     20  H   UNL     1       3.622   4.453  16.313  0.00  0.00    +0.000 HD
BRANCH  17  25
ATOM     21  C   UNL     1       7.384   3.665  11.307  0.00  0.00    +0.000 C 
ATOM     22  C   UNL     1       6.871   4.051  12.661  0.00  0.00    +0.000 A 
ATOM     23  C   UNL     1       5.710   3.482  13.205  0.00  0.00    +0.000 A 
ATOM     24  C   UNL     1       5.235   3.889  14.461  0.00  0.00    +0.000 A 
ATOM     25  C   UNL     1       5.924   4.873  15.177  0.00  0.00    +0.000 A 
ATOM     26  C   UNL     1       7.088   5.437  14.637  0.00  0.00    +0.000 A 
ATOM     27  C   UNL     1       7.548   5.024  13.396  0.00  0.00    +0.000 A 
ATOM     28  F   UNL     1       8.654   5.592  12.893  0.00  0.00    +0.000 F 
ENDBRANCH  17  25
ENDBRANCH   1  19
TORSDOF 3
ENDMDL
MODEL 3
REMARK VINA RESULT:      -8.2      4.165     10.485
REMARK  Name = 
REMARK  4 active torsions:
REMARK  status: ('A' for Active; 'I' for Inactive)
REMARK    1  A    between atoms: C_1  and  C_2
REMARK    2  A    between atoms: C_5  and  C_6
REMARK    3  A    between atoms: N_8  and  C_9
REMARK    4  A    between atoms: C_14  and  C_15
REMARK                            x       y       z     vdW  Elec       q    Type
REMARK                         _______ _______ _______ _____ _____    ______ ____
ROOT
ATOM      1  C   UNL     1       1.136   8.389  20.129  0.00  0.00    +0.000 A 
ATOM      2  C   UNL     1       1.179   7.171  20.825  0.00  0.00    +0.000 A 
ATOM      3  C   UNL     1       1.995   6.108  20.431  0.00  0.00    +0.000 A 
ATOM      4  C   UNL     1       2.761   6.311  19.292  0.00  0.00    +0.000 A 
ATOM      5  N   UNL     1       3.671   5.515  18.657  0.00  0.00    +0.000 N 
ATOM      6  C   UNL     1       4.148   6.179  17.552  0.00  0.00    +0.000 A 
ATOM      7  N   UNL     1       3.601   7.381  17.476  0.00  0.00    +0.000 NA
ATOM      8  C   UNL     1       2.730   7.477  18.541  0.00  0.00    +0.000 A 
ATOM      9  C   UNL     1       1.889   8.534  18.948  0.00  0.00    +0.000 A 
ATOM     10  H   UNL     1       3.964   4.601  18.967  0.00  0.00    +0.000 HD
ENDROOT
BRANCH   6  11
ATOM     11  C   UNL     1       5.138   5.595  16.650  0.00  0.00    +0.000 A 
ATOM     12  C   UNL     1       4.837   4.524  15.801  0.00  0.00    +0.000 A 
ATOM     13  C   UNL     1       5.819   3.998  14.963  0.00  0.00    +0.000 A 
ATOM     14  C   UNL     1       7.083   4.560  15.002  0.00  0.00    +0.000 A 
ATOM     15  N   UNL     1       7.418   5.592  15.805  0.00  0.00    +0.000 NA
ATOM     16  C   UNL     1       6.437   6.089  16.603  0.00  0.00    +0.000 A 
ENDBRANCH   6  11
BRANCH   1  19
ATOM     17  C   UNL     1       0.445  10.021  21.870  0.00  0.00    +0.000 C 
ATOM     18  O   UNL     1       1.205   9.647  22.757  0.00  0.00    +0.000 OA
ATOM     19  N   UNL     1       0.364   9.491  20.588  0.00  0.00    +0.000 N 
ATOM     20  H   UNL     1      -0.137  10.019  19.885  0.00  0.00    +0.000 HD
BRANCH  17  25
ATOM     21  C   UNL     1      -3.315  14.265  23.014  0.00  0.00    +0.000 C 
ATOM     22  C   UNL     1      -2.281  13.218  22.732  0.00  0.00    +0.000 A 
ATOM     23  C   UNL     1      -1.210  13.449  21.856  0.00  0.00    +0.000 A 
ATOM     24  C   UNL     1      -0.277  12.437  21.585  0.00  0.00    +0.000 A 
ATOM     25  C   UNL     1      -0.417  11.185  22.194  0.00  0.00    +0.000 A 
ATOM     26  C   UNL     1      -1.482  10.956  23.075  0.00  0.00    +0.000 A 
ATOM     27  C   UNL     1      -2.396  11.966  23.336  0.00  0.00    +0.000 A 
ATOM     28  F   UNL     1      -3.417  11.716  24.169  0.00  0.00    +0.000 F 
ENDBRANCH  17  25
ENDBRANCH   1  19
TORSDOF 3
ENDMDL
MODEL 4
REMARK VINA RESULT:      -7.9      4.000     10.448
REMARK  Name = 
REMARK  4 active torsions:
REMARK  status: ('A' for Active; 'I' for Inactive)
REMARK    1  A    between atoms: C_1  and  C_2
REMARK    2  A    between atoms: C_5  and  C_6
REMARK    3  A    between atoms: N_8  and  C_9
REMARK    4  A    between atoms: C_14  and  C_15
REMARK                            x       y       z     vdW  Elec       q    Type
REMARK                         _______ _______ _______ _____ _____    ______ ____
ROOT
ATOM      1  C   UNL     1       1.151   8.351  20.157  0.00  0.00    +0.000 A 
ATOM      2  C   UNL     1       1.231   7.144  20.868  0.00  0.00    +0.000 A 
ATOM      3  C   UNL     1       2.067   6.095  20.477  0.00  0.00    +0.000 A 
ATOM      4  C   UNL     1       2.815   6.303  19.328  0.00  0.00    +0.000 A 
ATOM      5  N   UNL     1       3.736   5.520  18.691  0.00  0.00    +0.000 N 
ATOM      6  C   UNL     1       4.185   6.181  17.573  0.00  0.00    +0.000 A 
ATOM      7  N   UNL     1       3.609   7.369  17.489  0.00  0.00    +0.000 NA
ATOM      8  C   UNL     1       2.747   7.458  18.563  0.00  0.00    +0.000 A 
ATOM      9  C   UNL     1       1.886   8.500  18.966  0.00  0.00    +0.000 A 
ATOM     10  H   UNL     1       4.055   4.617  19.009  0.00  0.00    +0.000 HD
ENDROOT
BRANCH   6  11
ATOM     11  C   UNL     1       5.178   5.610  16.667  0.00  0.00    +0.000 A 
ATOM     12  C   UNL     1       4.908   4.492  15.869  0.00  0.00    +0.000 A 
ATOM     13  C   UNL     1       5.892   3.981  15.024  0.00  0.00    +0.000 A 
ATOM     14  C   UNL     1       7.127   4.604  15.005  0.00  0.00    +0.000 A 
ATOM     15  N   UNL     1       7.432   5.682  15.758  0.00  0.00    +0.000 NA
ATOM     16  C   UNL     1       6.449   6.163  16.564  0.00  0.00    +0.000 A 
ENDBRANCH   6  11
BRANCH   1  19
ATOM     17  C   UNL     1       0.514  10.058  21.847  0.00  0.00    +0.000 C 
ATOM     18  O   UNL     1       1.364   9.783  22.687  0.00  0.00    +0.000 OA
ATOM     19  N   UNL     1       0.358   9.440  20.612  0.00  0.00    +0.000 N 
ATOM     20  H   UNL     1      -0.229   9.895  19.923  0.00  0.00    +0.000 HD
BRANCH  17  25
ATOM     21  C   UNL     1      -2.563  14.753  23.244  0.00  0.00    +0.000 C 
ATOM     22  C   UNL     1      -1.836  13.498  22.867  0.00  0.00    +0.000 A 
ATOM     23  C   UNL     1      -2.172  12.252  23.416  0.00  0.00    +0.000 A 
ATOM     24  C   UNL     1      -1.450  11.100  23.071  0.00  0.00    +0.000 A 
ATOM     25  C   UNL     1      -0.383  11.196  22.171  0.00  0.00    +0.000 A 
ATOM     26  C   UNL     1      -0.050  12.439  21.617  0.00  0.00    +0.000 A 
ATOM     27  C   UNL     1      -0.775  13.569  21.965  0.00  0.00    +0.000 A 
ATOM     28  F   UNL     1      -0.426  14.751  21.435  0.00  0.00    +0.000 F 
ENDBRANCH  17  25
ENDBRANCH   1  19
TORSDOF 3
ENDMDL
MODEL 5
REMARK VINA RESULT:      -7.9      4.284      6.360
REMARK  Name = 
REMARK  4 active torsions:
REMARK  status: ('A' for Active; 'I' for Inactive)
REMARK    1  A    between atoms: C_1  and  C_2
REMARK    2  A    between atoms: C_5  and  C_6
REMARK    3  A    between atoms: N_8  and  C_9
REMARK    4  A    between atoms: C_14  and  C_15
REMARK                            x       y       z     vdW  Elec       q    Type
REMARK                         _______ _______ _______ _____ _____    ______ ____
ROOT
ATOM      1  C   UNL     1       0.585   9.856  18.149  0.00  0.00    +0.000 A 
ATOM      2  C   UNL     1       0.921  11.048  18.808  0.00  0.00    +0.000 A 
ATOM      3  C   UNL     1      -0.034  12.001  19.172  0.00  0.00    +0.000 A 
ATOM      4  C   UNL     1      -1.348  11.713  18.834  0.00  0.00    +0.000 A 
ATOM      5  N   UNL     1      -2.512  12.392  19.060  0.00  0.00    +0.000 N 
ATOM      6  C   UNL     1      -3.553  11.685  18.506  0.00  0.00    +0.000 A 
ATOM      7  N   UNL     1      -3.102  10.566  17.964  0.00  0.00    +0.000 NA
ATOM      8  C   UNL     1      -1.734  10.571  18.149  0.00  0.00    +0.000 A 
ATOM      9  C   UNL     1      -0.753   9.628  17.777  0.00  0.00    +0.000 A 
ATOM     10  H   UNL     1      -2.594  13.255  19.574  0.00  0.00    +0.000 HD
ENDROOT
BRANCH   6  11
ATOM     11  C   UNL     1      -4.938  12.145  18.569  0.00  0.00    +0.000 A 
ATOM     12  C   UNL     1      -5.479  12.735  19.718  0.00  0.00    +0.000 A 
ATOM     13  C   UNL     1      -6.809  13.152  19.730  0.00  0.00    +0.000 A 
ATOM     14  C   UNL     1      -7.566  12.962  18.587  0.00  0.00    +0.000 A 
ATOM     15  N   UNL     1      -7.086  12.398  17.458  0.00  0.00    +0.000 NA
ATOM     16  C   UNL     1      -5.784  12.010  17.474  0.00  0.00    +0.000 A 
ENDBRANCH   6  11
BRANCH   1  19
ATOM     17  C   UNL     1       2.103   8.001  18.803  0.00  0.00    +0.000 C 
ATOM     18  O   UNL     1       1.806   7.957  19.992  0.00  0.00    +0.000 OA
ATOM     19  N   UNL     1       1.556   8.859  17.857  0.00  0.00    +0.000 N 
ATOM     20  H   UNL     1       1.717   8.655  16.879  0.00  0.00    +0.000 HD
BRANCH  17  25
ATOM     21  C   UNL     1       5.765   4.144  16.530  0.00  0.00    +0.000 C 
ATOM     22  C   UNL     1       4.850   5.128  17.192  0.00  0.00    +0.000 A 
ATOM     23  C   UNL     1       4.111   4.801  18.338  0.00  0.00    +0.000 A 
ATOM     24  C   UNL     1       3.235   5.733  18.914  0.00  0.00    +0.000 A 
ATOM     25  C   UNL     1       3.096   7.001  18.339  0.00  0.00    +0.000 A 
ATOM     26  C   UNL     1       3.839   7.330  17.198  0.00  0.00    +0.000 A 
ATOM     27  C   UNL     1       4.703   6.400  16.640  0.00  0.00    +0.000 A 
ATOM     28  F   UNL     1       5.389   6.735  15.537  0.00  0.00    +0.000 F 
ENDBRANCH  17  25
ENDBRANCH   1  19
TORSDOF 3
ENDMDL
MODEL 6
REMARK VINA RESULT:      -7.8      3.211      9.897
REMARK  Name = 
REMARK  4 active torsions:
REMARK  status: ('A' for Active; 'I' for Inactive)
REMARK    1  A    between atoms: C_1  and  C_2
REMARK    2  A    between atoms: C_5  and  C_6
REMARK    3  A    between atoms: N_8  and  C_9
REMARK    4  A    between atoms: C_14  and  C_15
REMARK                            x       y       z     vdW  Elec       q    Type
REMARK                         _______ _______ _______ _____ _____    ______ ____
ROOT
ATOM      1  C   UNL     1       2.738   6.368  19.540  0.00  0.00    +0.000 A 
ATOM      2  C   UNL     1       3.216   5.139  20.018  0.00  0.00    +0.000 A 
ATOM      3  C   UNL     1       4.080   4.329  19.277  0.00  0.00    +0.000 A 
ATOM      4  C   UNL     1       4.438   4.800  18.022  0.00  0.00    +0.000 A 
ATOM      5  N   UNL     1       5.270   4.291  17.066  0.00  0.00    +0.000 N 
ATOM      6  C   UNL     1       5.274   5.139  15.983  0.00  0.00    +0.000 A 
ATOM      7  N   UNL     1       4.502   6.186  16.226  0.00  0.00    +0.000 NA
ATOM      8  C   UNL     1       3.965   5.987  17.482  0.00  0.00    +0.000 A 
ATOM      9  C   UNL     1       3.082   6.783  18.240  0.00  0.00    +0.000 A 
ATOM     10  H   UNL     1       5.814   3.447  17.154  0.00  0.00    +0.000 HD
ENDROOT
BRANCH   6  11
ATOM     11  C   UNL     1       6.064   4.879  14.783  0.00  0.00    +0.000 A 
ATOM     12  C   UNL     1       5.669   3.948  13.814  0.00  0.00    +0.000 A 
ATOM     13  C   UNL     1       6.461   3.731  12.689  0.00  0.00    +0.000 A 
ATOM     14  C   UNL     1       7.636   4.452  12.565  0.00  0.00    +0.000 A 
ATOM     15  N   UNL     1       8.056   5.357  13.474  0.00  0.00    +0.000 NA
ATOM     16  C   UNL     1       7.258   5.554  14.555  0.00  0.00    +0.000 A 
ENDBRANCH   6  11
BRANCH   1  19
ATOM     17  C   UNL     1       1.446   8.457  19.922  0.00  0.00    +0.000 C 
ATOM     18  O   UNL     1       1.623   8.963  18.819  0.00  0.00    +0.000 OA
ATOM     19  N   UNL     1       1.924   7.220  20.338  0.00  0.00    +0.000 N 
ATOM     20  H   UNL     1       1.533   6.816  21.180  0.00  0.00    +0.000 HD
BRANCH  17  25
ATOM     21  C   UNL     1      -1.652  11.863  23.424  0.00  0.00    +0.000 C 
ATOM     22  C   UNL     1      -0.884  10.916  22.552  0.00  0.00    +0.000 A 
ATOM     23  C   UNL     1      -0.176   9.828  23.081  0.00  0.00    +0.000 A 
ATOM     24  C   UNL     1       0.563   8.979  22.243  0.00  0.00    +0.000 A 
ATOM     25  C   UNL     1       0.593   9.222  20.865  0.00  0.00    +0.000 A 
ATOM     26  C   UNL     1      -0.120  10.305  20.335  0.00  0.00    +0.000 A 
ATOM     27  C   UNL     1      -0.848  11.134  21.175  0.00  0.00    +0.000 A 
ATOM     28  F   UNL     1      -1.507  12.175  20.645  0.00  0.00    +0.000 F 
ENDBRANCH  17  25
ENDBRANCH   1  19
TORSDOF 3
ENDMDL
MODEL 7
REMARK VINA RESULT:      -7.7      2.970      5.414
REMARK  Name = 
REMARK  4 active torsions:
REMARK  status: ('A' for Active; 'I' for Inactive)
REMARK    1  A    between atoms: C_1  and  C_2
REMARK    2  A    between atoms: C_5  and  C_6
REMARK    3  A    between atoms: N_8  and  C_9
REMARK    4  A    between atoms: C_14  and  C_15
REMARK                            x       y       z     vdW  Elec       q    Type
REMARK                         _______ _______ _______ _____ _____    ______ ____
ROOT
ATOM      1  C   UNL     1       1.167   9.047  20.521  0.00  0.00    +0.000 A 
ATOM      2  C   UNL     1       1.238   8.718  21.883  0.00  0.00    +0.000 A 
ATOM      3  C   UNL     1       0.443   9.340  22.849  0.00  0.00    +0.000 A 
ATOM      4  C   UNL     1      -0.421  10.323  22.392  0.00  0.00    +0.000 A 
ATOM      5  N   UNL     1      -1.342  11.096  23.042  0.00  0.00    +0.000 N 
ATOM      6  C   UNL     1      -1.938  11.937  22.133  0.00  0.00    +0.000 A 
ATOM      7  N   UNL     1      -1.456  11.709  20.922  0.00  0.00    +0.000 NA
ATOM      8  C   UNL     1      -0.506  10.718  21.064  0.00  0.00    +0.000 A 
ATOM      9  C   UNL     1       0.315  10.088  20.107  0.00  0.00    +0.000 A 
ATOM     10  H   UNL     1      -1.566  11.036  24.023  0.00  0.00    +0.000 HD
ENDROOT
BRANCH   6  11
ATOM     11  C   UNL     1      -2.969  12.900  22.511  0.00  0.00    +0.000 A 
ATOM     12  C   UNL     1      -3.731  12.762  23.677  0.00  0.00    +0.000 A 
ATOM     13  C   UNL     1      -4.708  13.705  23.990  0.00  0.00    +0.000 A 
ATOM     14  C   UNL     1      -4.900  14.764  23.120  0.00  0.00    +0.000 A 
ATOM     15  N   UNL     1      -4.191  14.935  21.984  0.00  0.00    +0.000 NA
ATOM     16  C   UNL     1      -3.239  14.005  21.712  0.00  0.00    +0.000 A 
ENDBRANCH   6  11
BRANCH   1  19
ATOM     17  C   UNL     1       2.204   6.989  19.591  0.00  0.00    +0.000 C 
ATOM     18  O   UNL     1       1.818   6.207  20.453  0.00  0.00    +0.000 OA
ATOM     19  N   UNL     1       1.922   8.348  19.538  0.00  0.00    +0.000 N 
ATOM     20  H   UNL     1       2.106   8.840  18.673  0.00  0.00    +0.000 HD
BRANCH  17  25
ATOM     21  C   UNL     1       5.461   4.364  15.596  0.00  0.00    +0.000 C 
ATOM     22  C   UNL     1       4.595   5.098  16.574  0.00  0.00    +0.000 A 
ATOM     23  C   UNL     1       4.676   6.488  16.740  0.00  0.00    +0.000 A 
ATOM     24  C   UNL     1       3.877   7.143  17.690  0.00  0.00    +0.000 A 
ATOM     25  C   UNL     1       2.992   6.401  18.479  0.00  0.00    +0.000 A 
ATOM     26  C   UNL     1       2.905   5.013  18.308  0.00  0.00    +0.000 A 
ATOM     27  C   UNL     1       3.699   4.379  17.364  0.00  0.00    +0.000 A 
ATOM     28  F   UNL     1       3.610   3.048  17.233  0.00  0.00    +0.000 F 
ENDBRANCH  17  25
ENDBRANCH   1  19
TORSDOF 3
ENDMDL
MODEL 8
REMARK VINA RESULT:      -7.7      5.610     11.119
REMARK  Name = 
REMARK  4 active torsions:
REMARK  status: ('A' for Active; 'I' for Inactive)
REMARK    1  A    between atoms: C_1  and  C_2
REMARK    2  A    between atoms: C_5  and  C_6
REMARK    3  A    between atoms: N_8  and  C_9
REMARK    4  A    between atoms: C_14  and  C_15
REMARK                            x       y       z     vdW  Elec       q    Type
REMARK                         _______ _______ _______ _____ _____    ______ ____
ROOT
ATOM      1  C   UNL     1       0.429  10.244  20.422  0.00  0.00    +0.000 A 
ATOM      2  C   UNL     1       0.933  10.458  19.130  0.00  0.00    +0.000 A 
ATOM      3  C   UNL     1       1.660   9.487  18.436  0.00  0.00    +0.000 A 
ATOM      4  C   UNL     1       1.874   8.289  19.101  0.00  0.00    +0.000 A 
ATOM      5  N   UNL     1       2.503   7.139  18.717  0.00  0.00    +0.000 N 
ATOM      6  C   UNL     1       2.458   6.239  19.756  0.00  0.00    +0.000 A 
ATOM      7  N   UNL     1       1.795   6.761  20.776  0.00  0.00    +0.000 NA
ATOM      8  C   UNL     1       1.435   8.036  20.392  0.00  0.00    +0.000 A 
ATOM      9  C   UNL     1       0.715   9.034  21.081  0.00  0.00    +0.000 A 
ATOM     10  H   UNL     1       2.908   6.969  17.810  0.00  0.00    +0.000 HD
ENDROOT
BRANCH   6  11
ATOM     11  C   UNL     1       3.048   4.907  19.669  0.00  0.00    +0.000 A 
ATOM     12  C   UNL     1       2.297   3.741  19.860  0.00  0.00    +0.000 A 
ATOM     13  C   UNL     1       2.909   2.492  19.772  0.00  0.00    +0.000 A 
ATOM     14  C   UNL     1       4.265   2.444  19.499  0.00  0.00    +0.000 A 
ATOM     15  N   UNL     1       5.028   3.542  19.310  0.00  0.00    +0.000 NA
ATOM     16  C   UNL     1       4.401   4.744  19.391  0.00  0.00    +0.000 A 
ENDBRANCH   6  11
BRANCH   1  19
ATOM     17  C   UNL     1      -0.613  11.225  22.452  0.00  0.00    +0.000 C 
ATOM     18  O   UNL     1      -0.138  10.448  23.273  0.00  0.00    +0.000 OA
ATOM     19  N   UNL     1      -0.379  11.210  21.083  0.00  0.00    +0.000 N 
ATOM     20  H   UNL     1      -0.645  12.025  20.544  0.00  0.00    +0.000 HD
BRANCH  17  25
ATOM     21  C   UNL     1      -4.303  15.304  24.246  0.00  0.00    +0.000 C 
ATOM     22  C   UNL     1      -3.291  14.279  23.831  0.00  0.00    +0.000 A 
ATOM     23  C   UNL     1      -1.994  14.634  23.434  0.00  0.00    +0.000 A 
ATOM     24  C   UNL     1      -1.080  13.655  23.017  0.00  0.00    +0.000 A 
ATOM     25  C   UNL     1      -1.467  12.311  22.997  0.00  0.00    +0.000 A 
ATOM     26  C   UNL     1      -2.761  11.954  23.400  0.00  0.00    +0.000 A 
ATOM     27  C   UNL     1      -3.653  12.932  23.812  0.00  0.00    +0.000 A 
ATOM     28  F   UNL     1      -4.891  12.567  24.176  0.00  0.00    +0.000 F 
ENDBRANCH  17  25
ENDBRANCH   1  19
TORSDOF 3
ENDMDL
MODEL 9
REMARK VINA RESULT:      -7.7      2.854      5.328
REMARK  Name = 
REMARK  4 active torsions:
REMARK  status: ('A' for Active; 'I' for Inactive)
REMARK    1  A    between atoms: C_1  and  C_2
REMARK    2  A    between atoms: C_5  and  C_6
REMARK    3  A    between atoms: N_8  and  C_9
REMARK    4  A    between atoms: C_14  and  C_15
REMARK                            x       y       z     vdW  Elec       q    Type
REMARK                         _______ _______ _______ _____ _____    ______ ____
ROOT
ATOM      1  C   UNL     1       1.013   9.403  19.107  0.00  0.00    +0.000 A 
ATOM      2  C   UNL     1      -0.002   9.854  18.250  0.00  0.00    +0.000 A 
ATOM      3  C   UNL     1      -1.002  10.736  18.667  0.00  0.00    +0.000 A 
ATOM      4  C   UNL     1      -0.950  11.139  19.993  0.00  0.00    +0.000 A 
ATOM      5  N   UNL     1      -1.732  11.999  20.711  0.00  0.00    +0.000 N 
ATOM      6  C   UNL     1      -1.269  12.047  22.005  0.00  0.00    +0.000 A 
ATOM      7  N   UNL     1      -0.202  11.276  22.131  0.00  0.00    +0.000 NA
ATOM      8  C   UNL     1       0.005  10.696  20.897  0.00  0.00    +0.000 A 
ATOM      9  C   UNL     1       0.997   9.794  20.459  0.00  0.00    +0.000 A 
ATOM     10  H   UNL     1      -2.504  12.532  20.342  0.00  0.00    +0.000 HD
ENDROOT
BRANCH   6  11
ATOM     11  C   UNL     1      -1.893  12.874  23.033  0.00  0.00    +0.000 A 
ATOM     12  C   UNL     1      -3.173  12.608  23.534  0.00  0.00    +0.000 A 
ATOM     13  C   UNL     1      -3.727  13.432  24.512  0.00  0.00    +0.000 A 
ATOM     14  C   UNL     1      -2.983  14.509  24.961  0.00  0.00    +0.000 A 
ATOM     15  N   UNL     1      -1.747  14.804  24.506  0.00  0.00    +0.000 NA
ATOM     16  C   UNL     1      -1.230  13.977  23.561  0.00  0.00    +0.000 A 
ENDBRANCH   6  11
BRANCH   1  19
ATOM     17  C   UNL     1       2.423   7.361  19.234  0.00  0.00    +0.000 C 
ATOM     18  O   UNL     1       1.862   6.833  20.188  0.00  0.00    +0.000 OA
ATOM     19  N   UNL     1       2.070   8.570  18.648  0.00  0.00    +0.000 N 
ATOM     20  H   UNL     1       2.462   8.792  17.741  0.00  0.00    +0.000 HD
BRANCH  17  25
ATOM     21  C   UNL     1       6.481   4.307  16.465  0.00  0.00    +0.000 C 
ATOM     22  C   UNL     1       5.480   5.102  17.246  0.00  0.00    +0.000 A 
ATOM     23  C   UNL     1       5.115   4.757  18.555  0.00  0.00    +0.000 A 
ATOM     24  C   UNL     1       4.149   5.500  19.249  0.00  0.00    +0.000 A 
ATOM     25  C   UNL     1       3.542   6.597  18.628  0.00  0.00    +0.000 A 
ATOM     26  C   UNL     1       3.911   6.948  17.322  0.00  0.00    +0.000 A 
ATOM     27  C   UNL     1       4.869   6.205  16.649  0.00  0.00    +0.000 A 
ATOM     28  F   UNL     1       5.192   6.550  15.394  0.00  0.00    +0.000 F 
ENDBRANCH  17  25
ENDBRANCH   1  19
TORSDOF 3
ENDMDL
