MODEL 1
REMARK VINA RESULT:      -9.6      0.000      0.000
REMARK  Name = 
REMARK  5 active torsions:
REMARK  status: ('A' for Active; 'I' for Inactive)
REMARK    1  A    between atoms: C_1  and  C_2
REMARK    2  A    between atoms: N_14  and  C_15
REMARK    3  A    between atoms: C_18  and  O_19
REMARK    4  A    between atoms: O_19  and  C_20
REMARK    5  A    between atoms: C_25  and  C_26
REMARK                            x       y       z     vdW  Elec       q    Type
REMARK                         _______ _______ _______ _____ _____    ______ ____
ROOT
ATOM      1  C   UNL     1       0.819   9.525  19.505  0.00  0.00    +0.000 A 
ATOM      2  C   UNL     1       1.166   8.534  20.425  0.00  0.00    +0.000 A 
ATOM      3  C   UNL     1       2.057   7.521  20.074  0.00  0.00    +0.000 A 
ATOM      4  C   UNL     1       2.594   7.469  18.791  0.00  0.00    +0.000 A 
ATOM      5  C   UNL     1       2.223   8.430  17.848  0.00  0.00    +0.000 A 
ATOM      6  C   UNL     1       1.313   9.435  18.198  0.00  0.00    +0.000 A 
ENDROOT
BRANCH   1  20
ATOM      7  C   UNL     1      -0.747  13.898  22.970  0.00  0.00    +0.000 C 
ATOM      8  C   UNL     1      -1.462  12.597  22.588  0.00  0.00    +0.000 C 
ATOM      9  C   UNL     1      -2.971  12.724  22.751  0.00  0.00    +0.000 A 
ATOM     10  C   UNL     1      -3.519  12.766  24.045  0.00  0.00    +0.000 A 
ATOM     11  C   UNL     1      -4.895  12.877  24.231  0.00  0.00    +0.000 A 
ATOM     12  C   UNL     1      -5.742  12.947  23.128  0.00  0.00    +0.000 A 
ATOM     13  C   UNL     1      -5.214  12.894  21.839  0.00  0.00    +0.000 A 
ATOM     14  C   UNL     1      -3.832  12.784  21.639  0.00  0.00    +0.000 A 
ATOM     15  C   UNL     1      -3.296  12.639  20.235  0.00  0.00    +0.000 C 
ATOM     16  C   UNL     1      -1.792  12.886  20.155  0.00  0.00    +0.000 C 
ATOM     17  N   UNL     1      -1.092  12.174  21.225  0.00  0.00    +0.000 N 
ATOM     18  C   UNL     1      -0.220  11.101  21.112  0.00  0.00    +0.000 C 
ATOM     19  O   UNL     1       0.301  10.612  22.113  0.00  0.00    +0.000 OA
ATOM     20  N   UNL     1       0.016  10.641  19.836  0.00  0.00    +0.000 N 
ATOM     21  H   UNL     1      -0.155  11.282  19.082  0.00  0.00    +0.000 HD
ENDBRANCH   1  20
BRANCH   4  22
ATOM     22  O   UNL     1       3.543   6.494  18.607  0.00  0.00    +0.000 OA
BRANCH  22  23
ATOM     23  C   UNL     1       3.192   5.224  18.216  0.00  0.00    +0.000 A 
ATOM     24  C   UNL     1       1.847   4.831  18.146  0.00  0.00    +0.000 A 
ATOM     25  C   UNL     1       1.508   3.520  17.819  0.00  0.00    +0.000 A 
ATOM     26  C   UNL     1       2.509   2.579  17.599  0.00  0.00    +0.000 A 
ATOM     27  C   UNL     1       3.849   2.953  17.701  0.00  0.00    +0.000 A 
ATOM     28  C   UNL     1       4.211   4.276  18.007  0.00  0.00    +0.000 A 
BRANCH  28  29
ATOM     29  C   UNL     1       5.676   4.560  18.096  0.00  0.00    +0.000 C 
ATOM     30  N   UNL     1       6.224   4.858  19.307  0.00  0.00    +0.000 N 
ATOM     31  O   UNL     1       6.395   4.537  17.099  0.00  0.00    +0.000 OA
ATOM     32  H   UNL     1       5.690   4.872  20.167  0.00  0.00    +0.000 HD
ATOM     33  H   UNL     1       7.220   5.034  19.352  0.00  0.00    +0.000 HD
ENDBRANCH  28  29
ENDBRANCH  22  23
ENDBRANCH   4  22
TORSDOF 4
ENDMDL
MODEL 2
REMARK VINA RESULT:      -9.4      1.242      1.805
REMARK  Name = 
REMARK  5 active torsions:
REMARK  status: ('A' for Active; 'I' for Inactive)
REMARK    1  A    between atoms: C_1  and  C_2
REMARK    2  A    between atoms: N_14  and  C_15
REMARK    3  A    between atoms: C_18  and  O_19
REMARK    4  A    between atoms: O_19  and  C_20
REMARK    5  A    between atoms: C_25  and  C_26
REMARK                            x       y       z     vdW  Elec       q    Type
REMARK                         _______ _______ _______ _____ _____    ______ ____
ROOT
ATOM      1  C   UNL     1       0.512   9.459  20.197  0.00  0.00    +0.000 A 
ATOM      2  C   UNL     1       0.759   8.451  21.130  0.00  0.00    +0.000 A 
ATOM      3  C   UNL     1       1.660   7.425  20.845  0.00  0.00    +0.000 A 
ATOM      4  C   UNL     1       2.306   7.379  19.613  0.00  0.00    +0.000 A 
ATOM      5  C   UNL     1       2.036   8.358  18.655  0.00  0.00    +0.000 A 
ATOM      6  C   UNL     1       1.118   9.376  18.937  0.00  0.00    +0.000 A 
ENDROOT
BRANCH   1  20
ATOM      7  C   UNL     1      -0.284  15.123  21.130  0.00  0.00    +0.000 C 
ATOM      8  C   UNL     1      -0.416  13.911  22.059  0.00  0.00    +0.000 C 
ATOM      9  C   UNL     1      -1.355  14.202  23.222  0.00  0.00    +0.000 A 
ATOM     10  C   UNL     1      -0.930  15.069  24.244  0.00  0.00    +0.000 A 
ATOM     11  C   UNL     1      -1.761  15.354  25.325  0.00  0.00    +0.000 A 
ATOM     12  C   UNL     1      -3.026  14.777  25.400  0.00  0.00    +0.000 A 
ATOM     13  C   UNL     1      -3.456  13.906  24.401  0.00  0.00    +0.000 A 
ATOM     14  C   UNL     1      -2.631  13.613  23.308  0.00  0.00    +0.000 A 
ATOM     15  C   UNL     1      -3.085  12.598  22.287  0.00  0.00    +0.000 C 
ATOM     16  C   UNL     1      -2.262  12.651  21.003  0.00  0.00    +0.000 C 
ATOM     17  N   UNL     1      -0.832  12.714  21.306  0.00  0.00    +0.000 N 
ATOM     18  C   UNL     1       0.137  11.751  21.065  0.00  0.00    +0.000 C 
ATOM     19  O   UNL     1       1.310  11.957  21.371  0.00  0.00    +0.000 OA
ATOM     20  N   UNL     1      -0.296  10.586  20.471  0.00  0.00    +0.000 N 
ATOM     21  H   UNL     1      -1.155  10.632  19.953  0.00  0.00    +0.000 HD
ENDBRANCH   1  20
BRANCH   4  22
ATOM     22  O   UNL     1       3.250   6.388  19.500  0.00  0.00    +0.000 OA
BRANCH  22  23
ATOM     23  C   UNL     1       3.006   5.253  18.765  0.00  0.00    +0.000 A 
ATOM     24  C   UNL     1       1.721   4.693  18.699  0.00  0.00    +0.000 A 
ATOM     25  C   UNL     1       1.501   3.502  18.011  0.00  0.00    +0.000 A 
ATOM     26  C   UNL     1       2.570   2.836  17.418  0.00  0.00    +0.000 A 
ATOM     27  C   UNL     1       3.856   3.368  17.509  0.00  0.00    +0.000 A 
ATOM     28  C   UNL     1       4.094   4.580  18.179  0.00  0.00    +0.000 A 
BRANCH  28  29
ATOM     29  C   UNL     1       5.513   5.051  18.219  0.00  0.00    +0.000 C 
ATOM     30  N   UNL     1       5.825   6.268  17.693  0.00  0.00    +0.000 N 
ATOM     31  O   UNL     1       6.403   4.360  18.711  0.00  0.00    +0.000 OA
ATOM     32  H   UNL     1       5.135   6.891  17.295  0.00  0.00    +0.000 HD
ATOM     33  H   UNL     1       6.789   6.577  17.741  0.00  0.00    +0.000 HD
ENDBRANCH  28  29
ENDBRANCH  22  23
ENDBRANCH   4  22
TORSDOF 4
ENDMDL
MODEL 3
REMARK VINA RESULT:      -9.3      1.315      1.654
REMARK  Name = 
REMARK  5 active torsions:
REMARK  status: ('A' for Active; 'I' for Inactive)
REMARK    1  A    between atoms: C_1  and  C_2
REMARK    2  A    between atoms: N_14  and  C_15
REMARK    3  A    between atoms: C_18  and  O_19
REMARK    4  A    between atoms: O_19  and  C_20
REMARK    5  A    between atoms: C_25  and  C_26
REMARK                            x       y       z     vdW  Elec       q    Type
REMARK                         _______ _______ _______ _____ _____    ______ ____
ROOT
ATOM      1  C   UNL     1       1.485   9.047  19.305  0.00  0.00    +0.000 A 
ATOM      2  C   UNL     1       2.185   8.783  18.126  0.00  0.00    +0.000 A 
ATOM      3  C   UNL     1       2.857   7.573  17.956  0.00  0.00    +0.000 A 
ATOM      4  C   UNL     1       2.860   6.621  18.971  0.00  0.00    +0.000 A 
ATOM      5  C   UNL     1       2.199   6.889  20.171  0.00  0.00    +0.000 A 
ATOM      6  C   UNL     1       1.540   8.112  20.347  0.00  0.00    +0.000 A 
ENDROOT
BRANCH   1  20
ATOM      7  C   UNL     1       0.120  13.983  22.016  0.00  0.00    +0.000 C 
ATOM      8  C   UNL     1      -0.595  12.629  21.948  0.00  0.00    +0.000 C 
ATOM      9  C   UNL     1      -2.088  12.775  22.216  0.00  0.00    +0.000 A 
ATOM     10  C   UNL     1      -2.525  13.056  23.522  0.00  0.00    +0.000 A 
ATOM     11  C   UNL     1      -3.882  13.192  23.803  0.00  0.00    +0.000 A 
ATOM     12  C   UNL     1      -4.821  13.048  22.785  0.00  0.00    +0.000 A 
ATOM     13  C   UNL     1      -4.403  12.757  21.487  0.00  0.00    +0.000 A 
ATOM     14  C   UNL     1      -3.041  12.620  21.191  0.00  0.00    +0.000 A 
ATOM     15  C   UNL     1      -2.622  12.217  19.798  0.00  0.00    +0.000 C 
ATOM     16  C   UNL     1      -1.137  12.453  19.542  0.00  0.00    +0.000 C 
ATOM     17  N   UNL     1      -0.333  11.960  20.661  0.00  0.00    +0.000 N 
ATOM     18  C   UNL     1       0.550  10.891  20.674  0.00  0.00    +0.000 C 
ATOM     19  O   UNL     1       1.165  10.602  21.700  0.00  0.00    +0.000 OA
ATOM     20  N   UNL     1       0.688  10.200  19.491  0.00  0.00    +0.000 N 
ATOM     21  H   UNL     1       0.439  10.687  18.649  0.00  0.00    +0.000 HD
ENDBRANCH   1  20
BRANCH   4  22
ATOM     22  O   UNL     1       3.457   5.431  18.636  0.00  0.00    +0.000 OA
BRANCH  22  23
ATOM     23  C   UNL     1       2.747   4.254  18.633  0.00  0.00    +0.000 A 
ATOM     24  C   UNL     1       1.384   4.229  18.302  0.00  0.00    +0.000 A 
ATOM     25  C   UNL     1       0.659   3.042  18.375  0.00  0.00    +0.000 A 
ATOM     26  C   UNL     1       1.278   1.877  18.819  0.00  0.00    +0.000 A 
ATOM     27  C   UNL     1       2.623   1.901  19.183  0.00  0.00    +0.000 A 
ATOM     28  C   UNL     1       3.378   3.084  19.095  0.00  0.00    +0.000 A 
BRANCH  28  29
ATOM     29  C   UNL     1       4.809   2.993  19.518  0.00  0.00    +0.000 C 
ATOM     30  N   UNL     1       5.731   3.801  18.925  0.00  0.00    +0.000 N 
ATOM     31  O   UNL     1       5.171   2.201  20.386  0.00  0.00    +0.000 OA
ATOM     32  H   UNL     1       5.492   4.487  18.221  0.00  0.00    +0.000 HD
ATOM     33  H   UNL     1       6.694   3.736  19.234  0.00  0.00    +0.000 HD
ENDBRANCH  28  29
ENDBRANCH  22  23
ENDBRANCH   4  22
TORSDOF 4
ENDMDL
MODEL 4
REMARK VINA RESULT:      -9.3      0.998      1.327
REMARK  Name = 
REMARK  5 active torsions:
REMARK  status: ('A' for Active; 'I' for Inactive)
REMARK    1  A    between atoms: C_1  and  C_2
REMARK    2  A    between atoms: N_14  and  C_15
REMARK    3  A    between atoms: C_18  and  O_19
REMARK    4  A    between atoms: O_19  and  C_20
REMARK    5  A    between atoms: C_25  and  C_26
REMARK                            x       y       z     vdW  Elec       q    Type
REMARK                         _______ _______ _______ _____ _____    ______ ____
ROOT
ATOM      1  C   UNL     1       1.231   9.594  19.091  0.00  0.00    +0.000 A 
ATOM      2  C   UNL     1       1.877   9.486  17.858  0.00  0.00    +0.000 A 
ATOM      3  C   UNL     1       2.585   8.332  17.526  0.00  0.00    +0.000 A 
ATOM      4  C   UNL     1       2.677   7.279  18.433  0.00  0.00    +0.000 A 
ATOM      5  C   UNL     1       2.071   7.391  19.685  0.00  0.00    +0.000 A 
ATOM      6  C   UNL     1       1.377   8.559  20.022  0.00  0.00    +0.000 A 
ENDROOT
BRANCH   1  20
ATOM      7  C   UNL     1      -0.251  14.072  22.458  0.00  0.00    +0.000 C 
ATOM      8  C   UNL     1      -0.926  12.718  22.211  0.00  0.00    +0.000 C 
ATOM      9  C   UNL     1      -2.419  12.779  22.507  0.00  0.00    +0.000 A 
ATOM     10  C   UNL     1      -2.849  12.866  23.843  0.00  0.00    +0.000 A 
ATOM     11  C   UNL     1      -4.207  12.920  24.150  0.00  0.00    +0.000 A 
ATOM     12  C   UNL     1      -5.152  12.885  23.128  0.00  0.00    +0.000 A 
ATOM     13  C   UNL     1      -4.741  12.786  21.800  0.00  0.00    +0.000 A 
ATOM     14  C   UNL     1      -3.379  12.734  21.478  0.00  0.00    +0.000 A 
ATOM     15  C   UNL     1      -2.964  12.537  20.040  0.00  0.00    +0.000 C 
ATOM     16  C   UNL     1      -1.490  12.853  19.808  0.00  0.00    +0.000 C 
ATOM     17  N   UNL     1      -0.658  12.238  20.844  0.00  0.00    +0.000 N 
ATOM     18  C   UNL     1       0.257  11.205  20.705  0.00  0.00    +0.000 C 
ATOM     19  O   UNL     1       0.892  10.800  21.677  0.00  0.00    +0.000 OA
ATOM     20  N   UNL     1       0.402  10.686  19.437  0.00  0.00    +0.000 N 
ATOM     21  H   UNL     1       0.129  11.274  18.671  0.00  0.00    +0.000 HD
ENDBRANCH   1  20
BRANCH   4  22
ATOM     22  O   UNL     1       3.302   6.158  17.944  0.00  0.00    +0.000 OA
BRANCH  22  23
ATOM     23  C   UNL     1       3.020   4.910  18.447  0.00  0.00    +0.000 A 
ATOM     24  C   UNL     1       1.700   4.443  18.534  0.00  0.00    +0.000 A 
ATOM     25  C   UNL     1       1.422   3.207  19.114  0.00  0.00    +0.000 A 
ATOM     26  C   UNL     1       2.455   2.445  19.650  0.00  0.00    +0.000 A 
ATOM     27  C   UNL     1       3.766   2.917  19.599  0.00  0.00    +0.000 A 
ATOM     28  C   UNL     1       4.069   4.151  18.998  0.00  0.00    +0.000 A 
BRANCH  28  29
ATOM     29  C   UNL     1       5.508   4.560  19.007  0.00  0.00    +0.000 C 
ATOM     30  N   UNL     1       6.359   4.018  18.093  0.00  0.00    +0.000 N 
ATOM     31  O   UNL     1       5.937   5.370  19.826  0.00  0.00    +0.000 OA
ATOM     32  H   UNL     1       6.061   3.364  17.381  0.00  0.00    +0.000 HD
ATOM     33  H   UNL     1       7.327   4.317  18.105  0.00  0.00    +0.000 HD
ENDBRANCH  28  29
ENDBRANCH  22  23
ENDBRANCH   4  22
TORSDOF 4
ENDMDL
MODEL 5
REMARK VINA RESULT:      -9.3      1.640      2.317
REMARK  Name = 
REMARK  5 active torsions:
REMARK  status: ('A' for Active; 'I' for Inactive)
REMARK    1  A    between atoms: C_1  and  C_2
REMARK    2  A    between atoms: N_14  and  C_15
REMARK    3  A    between atoms: C_18  and  O_19
REMARK    4  A    between atoms: O_19  and  C_20
REMARK    5  A    between atoms: C_25  and  C_26
REMARK                            x       y       z     vdW  Elec       q    Type
REMARK                         _______ _______ _______ _____ _____    ______ ____
ROOT
ATOM      1  C   UNL     1       1.803   8.647  18.911  0.00  0.00    +0.000 A 
ATOM      2  C   UNL     1       1.789   7.633  19.872  0.00  0.00    +0.000 A 
ATOM      3  C   UNL     1       2.644   6.537  19.759  0.00  0.00    +0.000 A 
ATOM      4  C   UNL     1       3.506   6.426  18.671  0.00  0.00    +0.000 A 
ATOM      5  C   UNL     1       3.499   7.411  17.682  0.00  0.00    +0.000 A 
ATOM      6  C   UNL     1       2.627   8.501  17.788  0.00  0.00    +0.000 A 
ENDROOT
BRANCH   1  20
ATOM      7  C   UNL     1       0.190  13.465  21.697  0.00  0.00    +0.000 C 
ATOM      8  C   UNL     1      -0.569  12.172  21.380  0.00  0.00    +0.000 C 
ATOM      9  C   UNL     1      -2.074  12.401  21.361  0.00  0.00    +0.000 A 
ATOM     10  C   UNL     1      -2.748  12.621  22.575  0.00  0.00    +0.000 A 
ATOM     11  C   UNL     1      -4.126  12.830  22.596  0.00  0.00    +0.000 A 
ATOM     12  C   UNL     1      -4.848  12.822  21.405  0.00  0.00    +0.000 A 
ATOM     13  C   UNL     1      -4.194  12.593  20.195  0.00  0.00    +0.000 A 
ATOM     14  C   UNL     1      -2.810  12.384  20.161  0.00  0.00    +0.000 A 
ATOM     15  C   UNL     1      -2.143  12.051  18.848  0.00  0.00    +0.000 C 
ATOM     16  C   UNL     1      -0.626  12.201  18.908  0.00  0.00    +0.000 C 
ATOM     17  N   UNL     1      -0.090  11.577  20.119  0.00  0.00    +0.000 N 
ATOM     18  C   UNL     1       0.714  10.451  20.217  0.00  0.00    +0.000 C 
ATOM     19  O   UNL     1       1.094  10.050  21.316  0.00  0.00    +0.000 OA
ATOM     20  N   UNL     1       1.049   9.837  19.031  0.00  0.00    +0.000 N 
ATOM     21  H   UNL     1       1.000  10.397  18.199  0.00  0.00    +0.000 HD
ENDBRANCH   1  20
BRANCH   4  22
ATOM     22  O   UNL     1       4.373   5.364  18.736  0.00  0.00    +0.000 OA
BRANCH  22  23
ATOM     23  C   UNL     1       5.162   5.023  17.664  0.00  0.00    +0.000 A 
ATOM     24  C   UNL     1       4.613   4.429  16.518  0.00  0.00    +0.000 A 
ATOM     25  C   UNL     1       5.433   4.021  15.468  0.00  0.00    +0.000 A 
ATOM     26  C   UNL     1       6.814   4.164  15.571  0.00  0.00    +0.000 A 
ATOM     27  C   UNL     1       7.370   4.722  16.722  0.00  0.00    +0.000 A 
ATOM     28  C   UNL     1       6.558   5.160  17.781  0.00  0.00    +0.000 A 
BRANCH  28  29
ATOM     29  C   UNL     1       7.264   5.736  18.967  0.00  0.00    +0.000 C 
ATOM     30  N   UNL     1       8.080   6.813  18.797  0.00  0.00    +0.000 N 
ATOM     31  O   UNL     1       7.128   5.253  20.090  0.00  0.00    +0.000 OA
ATOM     32  H   UNL     1       8.216   7.267  17.904  0.00  0.00    +0.000 HD
ATOM     33  H   UNL     1       8.540   7.198  19.614  0.00  0.00    +0.000 HD
ENDBRANCH  28  29
ENDBRANCH  22  23
ENDBRANCH   4  22
TORSDOF 4
ENDMDL
MODEL 6
REMARK VINA RESULT:      -9.2      1.208      1.612
REMARK  Name = 
REMARK  5 active torsions:
REMARK  status: ('A' for Active; 'I' for Inactive)
REMARK    1  A    between atoms: C_1  and  C_2
REMARK    2  A    between atoms: N_14  and  C_15
REMARK    3  A    between atoms: C_18  and  O_19
REMARK    4  A    between atoms: O_19  and  C_20
REMARK    5  A    between atoms: C_25  and  C_26
REMARK                            x       y       z     vdW  Elec       q    Type
REMARK                         _______ _______ _______ _____ _____    ______ ____
ROOT
ATOM      1  C   UNL     1       0.689   9.678  20.295  0.00  0.00    +0.000 A 
ATOM      2  C   UNL     1       1.313   9.454  19.066  0.00  0.00    +0.000 A 
ATOM      3  C   UNL     1       2.080   8.308  18.858  0.00  0.00    +0.000 A 
ATOM      4  C   UNL     1       2.254   7.383  19.884  0.00  0.00    +0.000 A 
ATOM      5  C   UNL     1       1.670   7.615  21.130  0.00  0.00    +0.000 A 
ATOM      6  C   UNL     1       0.916   8.776  21.342  0.00  0.00    +0.000 A 
ENDROOT
BRANCH   1  20
ATOM      7  C   UNL     1      -1.456  13.969  23.546  0.00  0.00    +0.000 C 
ATOM      8  C   UNL     1      -2.064  12.638  23.088  0.00  0.00    +0.000 C 
ATOM      9  C   UNL     1      -3.586  12.697  23.077  0.00  0.00    +0.000 A 
ATOM     10  C   UNL     1      -4.280  12.712  24.299  0.00  0.00    +0.000 A 
ATOM     11  C   UNL     1      -5.672  12.762  24.326  0.00  0.00    +0.000 A 
ATOM     12  C   UNL     1      -6.390  12.796  23.133  0.00  0.00    +0.000 A 
ATOM     13  C   UNL     1      -5.715  12.770  21.913  0.00  0.00    +0.000 A 
ATOM     14  C   UNL     1      -4.316  12.722  21.873  0.00  0.00    +0.000 A 
ATOM     15  C   UNL     1      -3.617  12.604  20.541  0.00  0.00    +0.000 C 
ATOM     16  C   UNL     1      -2.126  12.917  20.632  0.00  0.00    +0.000 C 
ATOM     17  N   UNL     1      -1.523  12.235  21.778  0.00  0.00    +0.000 N 
ATOM     18  C   UNL     1      -0.596  11.203  21.768  0.00  0.00    +0.000 C 
ATOM     19  O   UNL     1      -0.172  10.735  22.824  0.00  0.00    +0.000 OA
ATOM     20  N   UNL     1      -0.195  10.756  20.529  0.00  0.00    +0.000 N 
ATOM     21  H   UNL     1      -0.307  11.391  19.759  0.00  0.00    +0.000 HD
ENDBRANCH   1  20
BRANCH   4  22
ATOM     22  O   UNL     1       2.932   6.246  19.518  0.00  0.00    +0.000 OA
BRANCH  22  23
ATOM     23  C   UNL     1       2.268   5.066  19.282  0.00  0.00    +0.000 A 
ATOM     24  C   UNL     1       1.261   4.614  20.149  0.00  0.00    +0.000 A 
ATOM     25  C   UNL     1       0.647   3.381  19.939  0.00  0.00    +0.000 A 
ATOM     26  C   UNL     1       1.061   2.570  18.887  0.00  0.00    +0.000 A 
ATOM     27  C   UNL     1       2.085   2.997  18.042  0.00  0.00    +0.000 A 
ATOM     28  C   UNL     1       2.701   4.247  18.224  0.00  0.00    +0.000 A 
BRANCH  28  29
ATOM     29  C   UNL     1       3.792   4.597  17.262  0.00  0.00    +0.000 C 
ATOM     30  N   UNL     1       4.123   5.905  17.080  0.00  0.00    +0.000 N 
ATOM     31  O   UNL     1       4.390   3.729  16.629  0.00  0.00    +0.000 OA
ATOM     32  H   UNL     1       3.684   6.662  17.587  0.00  0.00    +0.000 HD
ATOM     33  H   UNL     1       4.874   6.123  16.435  0.00  0.00    +0.000 HD
ENDBRANCH  28  29
ENDBRANCH  22  23
ENDBRANCH   4  22
TORSDOF 4
ENDMDL
MODEL 7
REMARK VINA RESULT:      -9.1      1.504      2.247
REMARK  Name = 
REMARK  5 active torsions:
REMARK  status: ('A' for Active; 'I' for Inactive)
REMARK    1  A    between atoms: C_1  and  C_2
REMARK    2  A    between atoms: N_14  and  C_15
REMARK    3  A    between atoms: C_18  and  O_19
REMARK    4  A    between atoms: O_19  and  C_20
REMARK    5  A    between atoms: C_25  and  C_26
REMARK                            x       y       z     vdW  Elec       q    Type
REMARK                         _______ _______ _______ _____ _____    ______ ____
ROOT
ATOM      1  C   UNL     1       0.745   9.473  20.269  0.00  0.00    +0.000 A 
ATOM      2  C   UNL     1       1.353   9.254  19.031  0.00  0.00    +0.000 A 
ATOM      3  C   UNL     1       2.125   8.114  18.812  0.00  0.00    +0.000 A 
ATOM      4  C   UNL     1       2.322   7.190  19.835  0.00  0.00    +0.000 A 
ATOM      5  C   UNL     1       1.754   7.418  21.090  0.00  0.00    +0.000 A 
ATOM      6  C   UNL     1       0.994   8.573  21.312  0.00  0.00    +0.000 A 
ENDROOT
BRANCH   1  20
ATOM      7  C   UNL     1      -0.488  15.099  20.910  0.00  0.00    +0.000 C 
ATOM      8  C   UNL     1      -0.478  13.939  21.913  0.00  0.00    +0.000 C 
ATOM      9  C   UNL     1      -1.389  14.223  23.100  0.00  0.00    +0.000 A 
ATOM     10  C   UNL     1      -0.998  15.183  24.049  0.00  0.00    +0.000 A 
ATOM     11  C   UNL     1      -1.805  15.465  25.150  0.00  0.00    +0.000 A 
ATOM     12  C   UNL     1      -3.012  14.792  25.317  0.00  0.00    +0.000 A 
ATOM     13  C   UNL     1      -3.407  13.828  24.390  0.00  0.00    +0.000 A 
ATOM     14  C   UNL     1      -2.606  13.538  23.278  0.00  0.00    +0.000 A 
ATOM     15  C   UNL     1      -3.015  12.428  22.340  0.00  0.00    +0.000 C 
ATOM     16  C   UNL     1      -2.254  12.470  21.018  0.00  0.00    +0.000 C 
ATOM     17  N   UNL     1      -0.822  12.668  21.250  0.00  0.00    +0.000 N 
ATOM     18  C   UNL     1       0.214  11.775  21.020  0.00  0.00    +0.000 C 
ATOM     19  O   UNL     1       1.377  12.095  21.259  0.00  0.00    +0.000 OA
ATOM     20  N   UNL     1      -0.144  10.545  20.515  0.00  0.00    +0.000 N 
ATOM     21  H   UNL     1      -1.024  10.488  20.036  0.00  0.00    +0.000 HD
ENDBRANCH   1  20
BRANCH   4  22
ATOM     22  O   UNL     1       3.003   6.059  19.460  0.00  0.00    +0.000 OA
BRANCH  22  23
ATOM     23  C   UNL     1       2.339   4.888  19.182  0.00  0.00    +0.000 A 
ATOM     24  C   UNL     1       1.284   4.441  19.992  0.00  0.00    +0.000 A 
ATOM     25  C   UNL     1       0.669   3.216  19.742  0.00  0.00    +0.000 A 
ATOM     26  C   UNL     1       1.128   2.407  18.707  0.00  0.00    +0.000 A 
ATOM     27  C   UNL     1       2.198   2.829  17.919  0.00  0.00    +0.000 A 
ATOM     28  C   UNL     1       2.817   4.071  18.140  0.00  0.00    +0.000 A 
BRANCH  28  29
ATOM     29  C   UNL     1       3.959   4.415  17.238  0.00  0.00    +0.000 C 
ATOM     30  N   UNL     1       4.208   5.722  16.949  0.00  0.00    +0.000 N 
ATOM     31  O   UNL     1       4.674   3.543  16.749  0.00  0.00    +0.000 OA
ATOM     32  H   UNL     1       3.670   6.486  17.338  0.00  0.00    +0.000 HD
ATOM     33  H   UNL     1       4.994   5.938  16.348  0.00  0.00    +0.000 HD
ENDBRANCH  28  29
ENDBRANCH  22  23
ENDBRANCH   4  22
TORSDOF 4
ENDMDL
MODEL 8
REMARK VINA RESULT:      -9.1      1.291      1.830
REMARK  Name = 
REMARK  5 active torsions:
REMARK  status: ('A' for Active; 'I' for Inactive)
REMARK    1  A    between atoms: C_1  and  C_2
REMARK    2  A    between atoms: N_14  and  C_15
REMARK    3  A    between atoms: C_18  and  O_19
REMARK    4  A    between atoms: O_19  and  C_20
REMARK    5  A    between atoms: C_25  and  C_26
REMARK                            x       y       z     vdW  Elec       q    Type
REMARK                         _______ _______ _______ _____ _____    ______ ____
ROOT
ATOM      1  C   UNL     1       1.113   9.071  18.973  0.00  0.00    +0.000 A 
ATOM      2  C   UNL     1       1.908   8.587  17.931  0.00  0.00    +0.000 A 
ATOM      3  C   UNL     1       2.736   7.482  18.125  0.00  0.00    +0.000 A 
ATOM      4  C   UNL     1       2.800   6.861  19.369  0.00  0.00    +0.000 A 
ATOM      5  C   UNL     1       2.043   7.360  20.430  0.00  0.00    +0.000 A 
ATOM      6  C   UNL     1       1.227   8.481  20.238  0.00  0.00    +0.000 A 
ENDROOT
BRANCH   1  20
ATOM      7  C   UNL     1      -1.247  14.165  20.407  0.00  0.00    +0.000 C 
ATOM      8  C   UNL     1      -1.778  12.731  20.516  0.00  0.00    +0.000 C 
ATOM      9  C   UNL     1      -3.301  12.703  20.537  0.00  0.00    +0.000 A 
ATOM     10  C   UNL     1      -3.978  13.151  21.685  0.00  0.00    +0.000 A 
ATOM     11  C   UNL     1      -5.370  13.136  21.741  0.00  0.00    +0.000 A 
ATOM     12  C   UNL     1      -6.104  12.672  20.652  0.00  0.00    +0.000 A 
ATOM     13  C   UNL     1      -5.446  12.213  19.512  0.00  0.00    +0.000 A 
ATOM     14  C   UNL     1      -4.047  12.226  19.443  0.00  0.00    +0.000 A 
ATOM     15  C   UNL     1      -3.359  11.641  18.233  0.00  0.00    +0.000 C 
ATOM     16  C   UNL     1      -1.890  12.042  18.145  0.00  0.00    +0.000 C 
ATOM     17  N   UNL     1      -1.230  11.884  19.442  0.00  0.00    +0.000 N 
ATOM     18  C   UNL     1      -0.243  10.976  19.795  0.00  0.00    +0.000 C 
ATOM     19  O   UNL     1       0.223  10.973  20.933  0.00  0.00    +0.000 OA
ATOM     20  N   UNL     1       0.168  10.109  18.807  0.00  0.00    +0.000 N 
ATOM     21  H   UNL     1       0.007  10.392  17.857  0.00  0.00    +0.000 HD
ENDBRANCH   1  20
BRANCH   4  22
ATOM     22  O   UNL     1       3.562   5.718  19.398  0.00  0.00    +0.000 OA
BRANCH  22  23
ATOM     23  C   UNL     1       3.066   4.521  18.939  0.00  0.00    +0.000 A 
ATOM     24  C   UNL     1       1.833   4.026  19.388  0.00  0.00    +0.000 A 
ATOM     25  C   UNL     1       1.377   2.777  18.971  0.00  0.00    +0.000 A 
ATOM     26  C   UNL     1       2.167   1.993  18.136  0.00  0.00    +0.000 A 
ATOM     27  C   UNL     1       3.410   2.463  17.713  0.00  0.00    +0.000 A 
ATOM     28  C   UNL     1       3.877   3.730  18.104  0.00  0.00    +0.000 A 
BRANCH  28  29
ATOM     29  C   UNL     1       5.226   4.127  17.596  0.00  0.00    +0.000 C 
ATOM     30  N   UNL     1       6.281   4.150  18.457  0.00  0.00    +0.000 N 
ATOM     31  O   UNL     1       5.401   4.438  16.420  0.00  0.00    +0.000 OA
ATOM     32  H   UNL     1       6.206   3.884  19.430  0.00  0.00    +0.000 HD
ATOM     33  H   UNL     1       7.191   4.408  18.093  0.00  0.00    +0.000 HD
ENDBRANCH  28  29
ENDBRANCH  22  23
ENDBRANCH   4  22
TORSDOF 4
ENDMDL
MODEL 9
REMARK VINA RESULT:      -9.1      1.341      1.733
REMARK  Name = 
REMARK  5 active torsions:
REMARK  status: ('A' for Active; 'I' for Inactive)
REMARK    1  A    between atoms: C_1  and  C_2
REMARK    2  A    between atoms: N_14  and  C_15
REMARK    3  A    between atoms: C_18  and  O_19
REMARK    4  A    between atoms: O_19  and  C_20
REMARK    5  A    between atoms: C_25  and  C_26
REMARK                            x       y       z     vdW  Elec       q    Type
REMARK                         _______ _______ _______ _____ _____    ______ ____
ROOT
ATOM      1  C   UNL     1       1.113   9.190  19.485  0.00  0.00    +0.000 A 
ATOM      2  C   UNL     1       1.853   8.719  18.399  0.00  0.00    +0.000 A 
ATOM      3  C   UNL     1       2.572   7.527  18.493  0.00  0.00    +0.000 A 
ATOM      4  C   UNL     1       2.580   6.804  19.682  0.00  0.00    +0.000 A 
ATOM      5  C   UNL     1       1.879   7.285  20.788  0.00  0.00    +0.000 A 
ATOM      6  C   UNL     1       1.174   8.491  20.697  0.00  0.00    +0.000 A 
ENDROOT
BRANCH   1  20
ATOM      7  C   UNL     1      -0.104  14.770  20.469  0.00  0.00    +0.000 C 
ATOM      8  C   UNL     1      -0.696  13.481  21.052  0.00  0.00    +0.000 C 
ATOM      9  C   UNL     1      -2.110  13.705  21.572  0.00  0.00    +0.000 A 
ATOM     10  C   UNL     1      -2.297  14.447  22.751  0.00  0.00    +0.000 A 
ATOM     11  C   UNL     1      -3.576  14.667  23.258  0.00  0.00    +0.000 A 
ATOM     12  C   UNL     1      -4.685  14.150  22.593  0.00  0.00    +0.000 A 
ATOM     13  C   UNL     1      -4.515  13.402  21.429  0.00  0.00    +0.000 A 
ATOM     14  C   UNL     1      -3.234  13.175  20.909  0.00  0.00    +0.000 A 
ATOM     15  C   UNL     1      -3.072  12.288  19.699  0.00  0.00    +0.000 C 
ATOM     16  C   UNL     1      -1.696  12.423  19.054  0.00  0.00    +0.000 C 
ATOM     17  N   UNL     1      -0.642  12.385  20.068  0.00  0.00    +0.000 N 
ATOM     18  C   UNL     1       0.316  11.403  20.269  0.00  0.00    +0.000 C 
ATOM     19  O   UNL     1       1.149  11.519  21.167  0.00  0.00    +0.000 OA
ATOM     20  N   UNL     1       0.272  10.324  19.414  0.00  0.00    +0.000 N 
ATOM     21  H   UNL     1      -0.184  10.463  18.531  0.00  0.00    +0.000 HD
ENDBRANCH   1  20
BRANCH   4  22
ATOM     22  O   UNL     1       3.228   5.595  19.610  0.00  0.00    +0.000 OA
BRANCH  22  23
ATOM     23  C   UNL     1       2.562   4.452  19.237  0.00  0.00    +0.000 A 
ATOM     24  C   UNL     1       1.328   4.110  19.810  0.00  0.00    +0.000 A 
ATOM     25  C   UNL     1       0.700   2.912  19.477  0.00  0.00    +0.000 A 
ATOM     26  C   UNL     1       1.317   2.025  18.600  0.00  0.00    +0.000 A 
ATOM     27  C   UNL     1       2.560   2.342  18.052  0.00  0.00    +0.000 A 
ATOM     28  C   UNL     1       3.199   3.556  18.358  0.00  0.00    +0.000 A 
BRANCH  28  29
ATOM     29  C   UNL     1       4.531   3.786  17.718  0.00  0.00    +0.000 C 
ATOM     30  N   UNL     1       5.647   3.814  18.497  0.00  0.00    +0.000 N 
ATOM     31  O   UNL     1       4.637   3.955  16.505  0.00  0.00    +0.000 OA
ATOM     32  H   UNL     1       5.627   3.660  19.497  0.00  0.00    +0.000 HD
ATOM     33  H   UNL     1       6.543   3.957  18.045  0.00  0.00    +0.000 HD
ENDBRANCH  28  29
ENDBRANCH  22  23
ENDBRANCH   4  22
TORSDOF 4
ENDMDL
