MODEL 1
REMARK VINA RESULT:      -7.6      0.000      0.000
REMARK  Name = 
REMARK  5 active torsions:
REMARK  status: ('A' for Active; 'I' for Inactive)
REMARK    1  A    between atoms: N_3  and  C_4
REMARK    2  A    between atoms: C_4  and  C_5
REMARK    3  A    between atoms: N_7  and  C_8
REMARK    4  A    between atoms: C_15  and  C_16
REMARK    5  A    between atoms: N_23  and  C_24
REMARK                            x       y       z     vdW  Elec       q    Type
REMARK                         _______ _______ _______ _____ _____    ______ ____
ROOT
ATOM      1  C   UNL     1       2.432   7.736  18.347  0.00  0.00    +0.000 A 
ATOM      2  C   UNL     1       1.892   8.865  18.938  0.00  0.00    +0.000 A 
ATOM      3  N   UNL     1       1.425   8.504  20.180  0.00  0.00    +0.000 N 
ATOM      4  N   UNL     1       1.750   7.226  20.463  0.00  0.00    +0.000 NA
ATOM      5  C   UNL     1       2.269   6.715  19.335  0.00  0.00    +0.000 A 
ENDROOT
BRANCH   5   6
ATOM      6  C   UNL     1       2.551   5.275  19.280  0.00  0.00    +0.000 A 
ATOM      7  C   UNL     1       3.786   4.758  19.695  0.00  0.00    +0.000 A 
ATOM      8  C   UNL     1       4.078   3.400  19.537  0.00  0.00    +0.000 A 
ATOM      9  C   UNL     1       3.140   2.556  18.958  0.00  0.00    +0.000 A 
ATOM     10  F   UNL     1       3.436   1.263  18.782  0.00  0.00    +0.000 F 
ATOM     11  C   UNL     1       1.908   3.041  18.540  0.00  0.00    +0.000 A 
ATOM     12  C   UNL     1       1.615   4.399  18.700  0.00  0.00    +0.000 A 
ENDBRANCH   5   6
BRANCH   3  13
ATOM     13  C   UNL     1       0.661   9.281  21.096  0.00  0.00    +0.000 A 
ATOM     14  C   UNL     1      -0.046  10.415  20.676  0.00  0.00    +0.000 A 
ATOM     15  C   UNL     1      -0.835  11.127  21.586  0.00  0.00    +0.000 A 
ATOM     16  C   UNL     1      -0.917  10.718  22.916  0.00  0.00    +0.000 A 
ATOM     17  C   UNL     1      -0.207   9.598  23.345  0.00  0.00    +0.000 A 
ATOM     18  C   UNL     1       0.579   8.881  22.440  0.00  0.00    +0.000 A 
ENDBRANCH   3  13
BRANCH   1  19
ATOM     19  C   UNL     1       2.999   7.672  16.970  0.00  0.00    +0.000 C 
BRANCH  19  22
ATOM     20  O   UNL     1       4.575   7.230  14.755  0.00  0.00    +0.000 OA
ATOM     21  C   UNL     1       5.036   6.962  15.862  0.00  0.00    +0.000 C 
ATOM     22  N   UNL     1       4.336   7.135  17.018  0.00  0.00    +0.000 N 
ATOM     23  N   UNL     1       6.327   6.529  15.970  0.00  0.00    +0.000 N 
ATOM     24  H   UNL     1       4.903   7.439  17.797  0.00  0.00    +0.000 HD
ATOM     25  H   UNL     1       6.831   6.639  15.097  0.00  0.00    +0.000 HD
BRANCH  23  26
ATOM     26  C   UNL     1       7.037   5.991  17.060  0.00  0.00    +0.000 A 
ATOM     27  C   UNL     1       7.312   6.686  18.236  0.00  0.00    +0.000 A 
ATOM     28  C   UNL     1       8.088   6.099  19.231  0.00  0.00    +0.000 A 
ATOM     29  C   UNL     1       8.533   4.801  19.035  0.00  0.00    +0.000 A 
ATOM     30  N   UNL     1       8.233   4.066  17.945  0.00  0.00    +0.000 NA
ATOM     31  C   UNL     1       7.483   4.673  16.992  0.00  0.00    +0.000 A 
ENDBRANCH  23  26
ENDBRANCH  19  22
ENDBRANCH   1  19
TORSDOF 5
ENDMDL
MODEL 2
REMARK VINA RESULT:      -7.5      5.146     10.225
REMARK  Name = 
REMARK  5 active torsions:
REMARK  status: ('A' for Active; 'I' for Inactive)
REMARK    1  A    between atoms: N_3  and  C_4
REMARK    2  A    between atoms: C_4  and  C_5
REMARK    3  A    between atoms: N_7  and  C_8
REMARK    4  A    between atoms: C_15  and  C_16
REMARK    5  A    between atoms: N_23  and  C_24
REMARK                            x       y       z     vdW  Elec       q    Type
REMARK                         _______ _______ _______ _____ _____    ______ ____
ROOT
ATOM      1  C   UNL     1      -0.392  11.254  18.750  0.00  0.00    +0.000 A 
ATOM      2  C   UNL     1       0.269  10.191  18.159  0.00  0.00    +0.000 A 
ATOM      3  N   UNL     1       0.869   9.463  19.159  0.00  0.00    +0.000 N 
ATOM      4  N   UNL     1       0.523   9.938  20.373  0.00  0.00    +0.000 NA
ATOM      5  C   UNL     1      -0.155  11.075  20.150  0.00  0.00    +0.000 A 
ENDROOT
BRANCH   5   6
ATOM      6  C   UNL     1      -0.506  11.922  21.296  0.00  0.00    +0.000 A 
ATOM      7  C   UNL     1      -1.507  11.542  22.202  0.00  0.00    +0.000 A 
ATOM      8  C   UNL     1      -1.904  12.406  23.227  0.00  0.00    +0.000 A 
ATOM      9  C   UNL     1      -1.308  13.654  23.345  0.00  0.00    +0.000 A 
ATOM     10  F   UNL     1      -1.713  14.490  24.309  0.00  0.00    +0.000 F 
ATOM     11  C   UNL     1      -0.314  14.055  22.463  0.00  0.00    +0.000 A 
ATOM     12  C   UNL     1       0.085  13.190  21.439  0.00  0.00    +0.000 A 
ENDBRANCH   5   6
BRANCH   3  13
ATOM     13  C   UNL     1       1.776   8.371  19.035  0.00  0.00    +0.000 A 
ATOM     14  C   UNL     1       1.849   7.371  20.013  0.00  0.00    +0.000 A 
ATOM     15  C   UNL     1       2.708   6.281  19.837  0.00  0.00    +0.000 A 
ATOM     16  C   UNL     1       3.500   6.186  18.694  0.00  0.00    +0.000 A 
ATOM     17  C   UNL     1       3.441   7.183  17.722  0.00  0.00    +0.000 A 
ATOM     18  C   UNL     1       2.584   8.272  17.890  0.00  0.00    +0.000 A 
ENDBRANCH   3  13
BRANCH   1  19
ATOM     19  C   UNL     1      -1.128  12.324  18.020  0.00  0.00    +0.000 C 
BRANCH  19  22
ATOM     20  O   UNL     1      -2.305  11.029  15.893  0.00  0.00    +0.000 OA
ATOM     21  C   UNL     1      -3.010  11.340  16.850  0.00  0.00    +0.000 C 
ATOM     22  N   UNL     1      -2.528  11.990  17.946  0.00  0.00    +0.000 N 
ATOM     23  N   UNL     1      -4.326  10.974  16.868  0.00  0.00    +0.000 N 
ATOM     24  H   UNL     1      -2.956  11.700  18.814  0.00  0.00    +0.000 HD
ATOM     25  H   UNL     1      -4.539  10.315  16.127  0.00  0.00    +0.000 HD
BRANCH  23  26
ATOM     26  C   UNL     1      -5.380  11.342  17.725  0.00  0.00    +0.000 A 
ATOM     27  C   UNL     1      -5.828  10.568  18.794  0.00  0.00    +0.000 A 
ATOM     28  C   UNL     1      -6.929  10.977  19.540  0.00  0.00    +0.000 A 
ATOM     29  C   UNL     1      -7.527  12.185  19.219  0.00  0.00    +0.000 A 
ATOM     30  N   UNL     1      -7.086  12.999  18.239  0.00  0.00    +0.000 NA
ATOM     31  C   UNL     1      -6.017  12.565  17.525  0.00  0.00    +0.000 A 
ENDBRANCH  23  26
ENDBRANCH  19  22
ENDBRANCH   1  19
TORSDOF 5
ENDMDL
MODEL 3
REMARK VINA RESULT:      -7.5      5.189     10.235
REMARK  Name = 
REMARK  5 active torsions:
REMARK  status: ('A' for Active; 'I' for Inactive)
REMARK    1  A    between atoms: N_3  and  C_4
REMARK    2  A    between atoms: C_4  and  C_5
REMARK    3  A    between atoms: N_7  and  C_8
REMARK    4  A    between atoms: C_15  and  C_16
REMARK    5  A    between atoms: N_23  and  C_24
REMARK                            x       y       z     vdW  Elec       q    Type
REMARK                         _______ _______ _______ _____ _____    ______ ____
ROOT
ATOM      1  C   UNL     1      -0.541  11.346  18.707  0.00  0.00    +0.000 A 
ATOM      2  C   UNL     1       0.106  10.241  18.182  0.00  0.00    +0.000 A 
ATOM      3  N   UNL     1       0.693   9.564  19.226  0.00  0.00    +0.000 N 
ATOM      4  N   UNL     1       0.349  10.114  20.408  0.00  0.00    +0.000 NA
ATOM      5  C   UNL     1      -0.311  11.246  20.115  0.00  0.00    +0.000 A 
ENDROOT
BRANCH   5   6
ATOM      6  C   UNL     1      -0.655  12.163  21.209  0.00  0.00    +0.000 A 
ATOM      7  C   UNL     1      -0.013  13.401  21.349  0.00  0.00    +0.000 A 
ATOM      8  C   UNL     1      -0.275  14.217  22.454  0.00  0.00    +0.000 A 
ATOM      9  C   UNL     1      -1.173  13.796  23.424  0.00  0.00    +0.000 A 
ATOM     10  F   UNL     1      -1.399  14.567  24.495  0.00  0.00    +0.000 F 
ATOM     11  C   UNL     1      -1.825  12.575  23.309  0.00  0.00    +0.000 A 
ATOM     12  C   UNL     1      -1.565  11.760  22.203  0.00  0.00    +0.000 A 
ENDBRANCH   5   6
BRANCH   3  13
ATOM     13  C   UNL     1       1.584   8.454  19.170  0.00  0.00    +0.000 A 
ATOM     14  C   UNL     1       1.697   7.558  20.240  0.00  0.00    +0.000 A 
ATOM     15  C   UNL     1       2.538   6.444  20.135  0.00  0.00    +0.000 A 
ATOM     16  C   UNL     1       3.272   6.224  18.970  0.00  0.00    +0.000 A 
ATOM     17  C   UNL     1       3.173   7.118  17.906  0.00  0.00    +0.000 A 
ATOM     18  C   UNL     1       2.333   8.230  18.003  0.00  0.00    +0.000 A 
ENDBRANCH   3  13
BRANCH   1  19
ATOM     19  C   UNL     1      -1.258  12.382  17.912  0.00  0.00    +0.000 C 
BRANCH  19  22
ATOM     20  O   UNL     1      -2.416  11.027  15.812  0.00  0.00    +0.000 OA
ATOM     21  C   UNL     1      -3.131  11.371  16.750  0.00  0.00    +0.000 C 
ATOM     22  N   UNL     1      -2.659  12.052  17.831  0.00  0.00    +0.000 N 
ATOM     23  N   UNL     1      -4.449  11.011  16.763  0.00  0.00    +0.000 N 
ATOM     24  H   UNL     1      -3.099  11.791  18.702  0.00  0.00    +0.000 HD
ATOM     25  H   UNL     1      -4.656  10.331  16.041  0.00  0.00    +0.000 HD
BRANCH  23  26
ATOM     26  C   UNL     1      -5.511  11.410  17.595  0.00  0.00    +0.000 A 
ATOM     27  C   UNL     1      -6.255  12.574  17.413  0.00  0.00    +0.000 A 
ATOM     28  C   UNL     1      -7.238  12.928  18.332  0.00  0.00    +0.000 A 
ATOM     29  C   UNL     1      -7.481  12.071  19.395  0.00  0.00    +0.000 A 
ATOM     30  N   UNL     1      -6.834  10.902  19.573  0.00  0.00    +0.000 NA
ATOM     31  C   UNL     1      -5.876  10.593  18.664  0.00  0.00    +0.000 A 
ENDBRANCH  23  26
ENDBRANCH  19  22
ENDBRANCH   1  19
TORSDOF 5
ENDMDL
MODEL 4
REMARK VINA RESULT:      -7.5      5.156      9.301
REMARK  Name = 
REMARK  5 active torsions:
REMARK  status: ('A' for Active; 'I' for Inactive)
REMARK    1  A    between atoms: N_3  and  C_4
REMARK    2  A    between atoms: C_4  and  C_5
REMARK    3  A    between atoms: N_7  and  C_8
REMARK    4  A    between atoms: C_15  and  C_16
REMARK    5  A    between atoms: N_23  and  C_24
REMARK                            x       y       z     vdW  Elec       q    Type
REMARK                         _______ _______ _______ _____ _____    ______ ____
ROOT
ATOM      1  C   UNL     1      -0.987  11.038  18.078  0.00  0.00    +0.000 A 
ATOM      2  C   UNL     1      -1.208  12.403  18.151  0.00  0.00    +0.000 A 
ATOM      3  N   UNL     1      -0.111  12.972  18.754  0.00  0.00    +0.000 N 
ATOM      4  N   UNL     1       0.855  12.054  18.960  0.00  0.00    +0.000 NA
ATOM      5  C   UNL     1       0.312  10.866  18.653  0.00  0.00    +0.000 A 
ENDROOT
BRANCH   5   6
ATOM      6  C   UNL     1       1.070   9.646  18.954  0.00  0.00    +0.000 A 
ATOM      7  C   UNL     1       1.770   8.958  17.952  0.00  0.00    +0.000 A 
ATOM      8  C   UNL     1       2.400   7.741  18.232  0.00  0.00    +0.000 A 
ATOM      9  C   UNL     1       2.326   7.205  19.510  0.00  0.00    +0.000 A 
ATOM     10  F   UNL     1       2.905   6.026  19.766  0.00  0.00    +0.000 F 
ATOM     11  C   UNL     1       1.641   7.866  20.521  0.00  0.00    +0.000 A 
ATOM     12  C   UNL     1       1.013   9.084  20.242  0.00  0.00    +0.000 A 
ENDBRANCH   5   6
BRANCH   3  13
ATOM     13  C   UNL     1       0.063  14.321  19.178  0.00  0.00    +0.000 A 
ATOM     14  C   UNL     1      -0.892  14.961  19.979  0.00  0.00    +0.000 A 
ATOM     15  C   UNL     1      -0.667  16.267  20.428  0.00  0.00    +0.000 A 
ATOM     16  C   UNL     1       0.501  16.941  20.077  0.00  0.00    +0.000 A 
ATOM     17  C   UNL     1       1.449  16.316  19.270  0.00  0.00    +0.000 A 
ATOM     18  C   UNL     1       1.234  15.011  18.821  0.00  0.00    +0.000 A 
ENDBRANCH   3  13
BRANCH   1  19
ATOM     19  C   UNL     1      -1.953  10.037  17.546  0.00  0.00    +0.000 C 
BRANCH  19  22
ATOM     20  O   UNL     1      -3.664  11.037  15.633  0.00  0.00    +0.000 OA
ATOM     21  C   UNL     1      -4.071  10.945  16.788  0.00  0.00    +0.000 C 
ATOM     22  N   UNL     1      -3.302  10.472  17.809  0.00  0.00    +0.000 N 
ATOM     23  N   UNL     1      -5.367  11.265  17.077  0.00  0.00    +0.000 N 
ATOM     24  H   UNL     1      -3.815   9.926  18.487  0.00  0.00    +0.000 HD
ATOM     25  H   UNL     1      -5.915  11.393  16.234  0.00  0.00    +0.000 HD
BRANCH  23  26
ATOM     26  C   UNL     1      -6.031  11.424  18.307  0.00  0.00    +0.000 A 
ATOM     27  C   UNL     1      -6.721  10.406  18.963  0.00  0.00    +0.000 A 
ATOM     28  C   UNL     1      -7.414  10.675  20.139  0.00  0.00    +0.000 A 
ATOM     29  C   UNL     1      -7.358  11.961  20.654  0.00  0.00    +0.000 A 
ATOM     30  N   UNL     1      -6.648  12.959  20.092  0.00  0.00    +0.000 NA
ATOM     31  C   UNL     1      -5.992  12.665  18.941  0.00  0.00    +0.000 A 
ENDBRANCH  23  26
ENDBRANCH  19  22
ENDBRANCH   1  19
TORSDOF 5
ENDMDL
MODEL 5
REMARK VINA RESULT:      -7.5      3.532      8.619
REMARK  Name = 
REMARK  5 active torsions:
REMARK  status: ('A' for Active; 'I' for Inactive)
REMARK    1  A    between atoms: N_3  and  C_4
REMARK    2  A    between atoms: C_4  and  C_5
REMARK    3  A    between atoms: N_7  and  C_8
REMARK    4  A    between atoms: C_15  and  C_16
REMARK    5  A    between atoms: N_23  and  C_24
REMARK                            x       y       z     vdW  Elec       q    Type
REMARK                         _______ _______ _______ _____ _____    ______ ____
ROOT
ATOM      1  C   UNL     1       6.331   5.239  17.672  0.00  0.00    +0.000 A 
ATOM      2  C   UNL     1       6.096   4.402  16.595  0.00  0.00    +0.000 A 
ATOM      3  N   UNL     1       6.698   4.959  15.492  0.00  0.00    +0.000 N 
ATOM      4  N   UNL     1       7.413   6.050  15.835  0.00  0.00    +0.000 NA
ATOM      5  C   UNL     1       7.126   6.295  17.123  0.00  0.00    +0.000 A 
ENDROOT
BRANCH   5   6
ATOM      6  C   UNL     1       7.617   7.538  17.730  0.00  0.00    +0.000 A 
ATOM      7  C   UNL     1       7.331   8.787  17.163  0.00  0.00    +0.000 A 
ATOM      8  C   UNL     1       7.893   9.954  17.690  0.00  0.00    +0.000 A 
ATOM      9  C   UNL     1       8.748   9.874  18.781  0.00  0.00    +0.000 A 
ATOM     10  F   UNL     1       9.307  10.990  19.265  0.00  0.00    +0.000 F 
ATOM     11  C   UNL     1       9.047   8.650  19.364  0.00  0.00    +0.000 A 
ATOM     12  C   UNL     1       8.483   7.484  18.837  0.00  0.00    +0.000 A 
ENDBRANCH   5   6
BRANCH   3  13
ATOM     13  C   UNL     1       6.610   4.543  14.132  0.00  0.00    +0.000 A 
ATOM     14  C   UNL     1       7.562   4.943  13.186  0.00  0.00    +0.000 A 
ATOM     15  C   UNL     1       7.482   4.472  11.870  0.00  0.00    +0.000 A 
ATOM     16  C   UNL     1       6.454   3.610  11.492  0.00  0.00    +0.000 A 
ATOM     17  C   UNL     1       5.497   3.217  12.425  0.00  0.00    +0.000 A 
ATOM     18  C   UNL     1       5.572   3.680  13.741  0.00  0.00    +0.000 A 
ENDBRANCH   3  13
BRANCH   1  19
ATOM     19  C   UNL     1       5.804   5.038  19.051  0.00  0.00    +0.000 C 
BRANCH  19  22
ATOM     20  O   UNL     1       3.519   4.055  20.232  0.00  0.00    +0.000 OA
ATOM     21  C   UNL     1       3.514   5.215  19.829  0.00  0.00    +0.000 C 
ATOM     22  N   UNL     1       4.589   5.794  19.224  0.00  0.00    +0.000 N 
ATOM     23  N   UNL     1       2.418   6.001  20.043  0.00  0.00    +0.000 N 
ATOM     24  H   UNL     1       4.709   6.771  19.451  0.00  0.00    +0.000 HD
ATOM     25  H   UNL     1       1.765   5.563  20.682  0.00  0.00    +0.000 HD
BRANCH  23  26
ATOM     26  C   UNL     1       2.076   7.273  19.545  0.00  0.00    +0.000 A 
ATOM     27  C   UNL     1       2.286   7.682  18.229  0.00  0.00    +0.000 A 
ATOM     28  C   UNL     1       1.988   8.986  17.845  0.00  0.00    +0.000 A 
ATOM     29  C   UNL     1       1.438   9.838  18.790  0.00  0.00    +0.000 A 
ATOM     30  N   UNL     1       1.153   9.466  20.055  0.00  0.00    +0.000 NA
ATOM     31  C   UNL     1       1.466   8.191  20.397  0.00  0.00    +0.000 A 
ENDBRANCH  23  26
ENDBRANCH  19  22
ENDBRANCH   1  19
TORSDOF 5
ENDMDL
MODEL 6
REMARK VINA RESULT:      -7.5      5.117      9.278
REMARK  Name = 
REMARK  5 active torsions:
REMARK  status: ('A' for Active; 'I' for Inactive)
REMARK    1  A    between atoms: N_3  and  C_4
REMARK    2  A    between atoms: C_4  and  C_5
REMARK    3  A    between atoms: N_7  and  C_8
REMARK    4  A    between atoms: C_15  and  C_16
REMARK    5  A    between atoms: N_23  and  C_24
REMARK                            x       y       z     vdW  Elec       q    Type
REMARK                         _______ _______ _______ _____ _____    ______ ____
ROOT
ATOM      1  C   UNL     1      -1.023  11.003  18.127  0.00  0.00    +0.000 A 
ATOM      2  C   UNL     1      -1.210  12.362  18.314  0.00  0.00    +0.000 A 
ATOM      3  N   UNL     1      -0.128  12.841  19.015  0.00  0.00    +0.000 N 
ATOM      4  N   UNL     1       0.803  11.878  19.178  0.00  0.00    +0.000 NA
ATOM      5  C   UNL     1       0.243  10.740  18.740  0.00  0.00    +0.000 A 
ENDROOT
BRANCH   5   6
ATOM      6  C   UNL     1       0.955   9.475  18.961  0.00  0.00    +0.000 A 
ATOM      7  C   UNL     1       1.012   8.885  20.231  0.00  0.00    +0.000 A 
ATOM      8  C   UNL     1       1.781   7.737  20.448  0.00  0.00    +0.000 A 
ATOM      9  C   UNL     1       2.500   7.181  19.399  0.00  0.00    +0.000 A 
ATOM     10  F   UNL     1       3.258   6.100  19.619  0.00  0.00    +0.000 F 
ATOM     11  C   UNL     1       2.460   7.744  18.130  0.00  0.00    +0.000 A 
ATOM     12  C   UNL     1       1.689   8.890  17.913  0.00  0.00    +0.000 A 
ENDBRANCH   5   6
BRANCH   3  13
ATOM     13  C   UNL     1       0.062  14.140  19.568  0.00  0.00    +0.000 A 
ATOM     14  C   UNL     1       0.485  14.312  20.892  0.00  0.00    +0.000 A 
ATOM     15  C   UNL     1       0.718  15.598  21.391  0.00  0.00    +0.000 A 
ATOM     16  C   UNL     1       0.525  16.714  20.578  0.00  0.00    +0.000 A 
ATOM     17  C   UNL     1       0.093  16.551  19.264  0.00  0.00    +0.000 A 
ATOM     18  C   UNL     1      -0.138  15.270  18.758  0.00  0.00    +0.000 A 
ENDBRANCH   3  13
BRANCH   1  19
ATOM     19  C   UNL     1      -1.989  10.084  17.463  0.00  0.00    +0.000 C 
BRANCH  19  22
ATOM     20  O   UNL     1      -3.676  11.070  15.522  0.00  0.00    +0.000 OA
ATOM     21  C   UNL     1      -4.094  10.996  16.675  0.00  0.00    +0.000 C 
ATOM     22  N   UNL     1      -3.336  10.532  17.709  0.00  0.00    +0.000 N 
ATOM     23  N   UNL     1      -5.389  11.330  16.948  0.00  0.00    +0.000 N 
ATOM     24  H   UNL     1      -3.859   9.999  18.390  0.00  0.00    +0.000 HD
ATOM     25  H   UNL     1      -5.930  11.450  16.099  0.00  0.00    +0.000 HD
BRANCH  23  26
ATOM     26  C   UNL     1      -6.063  11.510  18.171  0.00  0.00    +0.000 A 
ATOM     27  C   UNL     1      -6.705  10.490  18.870  0.00  0.00    +0.000 A 
ATOM     28  C   UNL     1      -7.412  10.777  20.034  0.00  0.00    +0.000 A 
ATOM     29  C   UNL     1      -7.418  12.085  20.493  0.00  0.00    +0.000 A 
ATOM     30  N   UNL     1      -6.754  13.090  19.888  0.00  0.00    +0.000 NA
ATOM     31  C   UNL     1      -6.083  12.777  18.751  0.00  0.00    +0.000 A 
ENDBRANCH  23  26
ENDBRANCH  19  22
ENDBRANCH   1  19
TORSDOF 5
ENDMDL
MODEL 7
REMARK VINA RESULT:      -7.5      4.741     10.127
REMARK  Name = 
REMARK  5 active torsions:
REMARK  status: ('A' for Active; 'I' for Inactive)
REMARK    1  A    between atoms: N_3  and  C_4
REMARK    2  A    between atoms: C_4  and  C_5
REMARK    3  A    between atoms: N_7  and  C_8
REMARK    4  A    between atoms: C_15  and  C_16
REMARK    5  A    between atoms: N_23  and  C_24
REMARK                            x       y       z     vdW  Elec       q    Type
REMARK                         _______ _______ _______ _____ _____    ______ ____
ROOT
ATOM      1  C   UNL     1       0.395   9.772  21.808  0.00  0.00    +0.000 A 
ATOM      2  C   UNL     1       0.887   8.481  21.730  0.00  0.00    +0.000 A 
ATOM      3  N   UNL     1       1.444   8.319  20.483  0.00  0.00    +0.000 N 
ATOM      4  N   UNL     1       1.443   9.483  19.802  0.00  0.00    +0.000 NA
ATOM      5  C   UNL     1       0.728  10.347  20.541  0.00  0.00    +0.000 A 
ENDROOT
BRANCH   5   6
ATOM      6  C   UNL     1       0.395  11.656  19.966  0.00  0.00    +0.000 A 
ATOM      7  C   UNL     1      -0.542  11.780  18.931  0.00  0.00    +0.000 A 
ATOM      8  C   UNL     1      -0.771  13.018  18.323  0.00  0.00    +0.000 A 
ATOM      9  C   UNL     1      -0.060  14.134  18.742  0.00  0.00    +0.000 A 
ATOM     10  F   UNL     1      -0.261  15.310  18.137  0.00  0.00    +0.000 F 
ATOM     11  C   UNL     1       0.873  14.040  19.766  0.00  0.00    +0.000 A 
ATOM     12  C   UNL     1       1.100  12.802  20.376  0.00  0.00    +0.000 A 
ENDBRANCH   5   6
BRANCH   3  13
ATOM     13  C   UNL     1       1.943   7.126  19.887  0.00  0.00    +0.000 A 
ATOM     14  C   UNL     1       1.804   5.883  20.519  0.00  0.00    +0.000 A 
ATOM     15  C   UNL     1       2.253   4.720  19.883  0.00  0.00    +0.000 A 
ATOM     16  C   UNL     1       2.845   4.791  18.623  0.00  0.00    +0.000 A 
ATOM     17  C   UNL     1       2.997   6.024  17.994  0.00  0.00    +0.000 A 
ATOM     18  C   UNL     1       2.548   7.189  18.621  0.00  0.00    +0.000 A 
ENDBRANCH   3  13
BRANCH   1  19
ATOM     19  C   UNL     1      -0.340  10.346  22.970  0.00  0.00    +0.000 C 
BRANCH  19  22
ATOM     20  O   UNL     1      -0.559  13.051  23.439  0.00  0.00    +0.000 OA
ATOM     21  C   UNL     1      -1.439  12.500  22.782  0.00  0.00    +0.000 C 
ATOM     22  N   UNL     1      -1.429  11.166  22.501  0.00  0.00    +0.000 N 
ATOM     23  N   UNL     1      -2.449  13.245  22.243  0.00  0.00    +0.000 N 
ATOM     24  H   UNL     1      -1.785  10.940  21.584  0.00  0.00    +0.000 HD
ATOM     25  H   UNL     1      -2.258  14.238  22.317  0.00  0.00    +0.000 HD
BRANCH  23  26
ATOM     26  C   UNL     1      -3.651  12.865  21.619  0.00  0.00    +0.000 A 
ATOM     27  C   UNL     1      -3.797  12.676  20.246  0.00  0.00    +0.000 A 
ATOM     28  C   UNL     1      -5.045  12.375  19.709  0.00  0.00    +0.000 A 
ATOM     29  C   UNL     1      -6.114  12.225  20.579  0.00  0.00    +0.000 A 
ATOM     30  N   UNL     1      -6.006  12.330  21.919  0.00  0.00    +0.000 NA
ATOM     31  C   UNL     1      -4.778  12.634  22.407  0.00  0.00    +0.000 A 
ENDBRANCH  23  26
ENDBRANCH  19  22
ENDBRANCH   1  19
TORSDOF 5
ENDMDL
MODEL 8
REMARK VINA RESULT:      -7.4      2.817      7.786
REMARK  Name = 
REMARK  5 active torsions:
REMARK  status: ('A' for Active; 'I' for Inactive)
REMARK    1  A    between atoms: N_3  and  C_4
REMARK    2  A    between atoms: C_4  and  C_5
REMARK    3  A    between atoms: N_7  and  C_8
REMARK    4  A    between atoms: C_15  and  C_16
REMARK    5  A    between atoms: N_23  and  C_24
REMARK                            x       y       z     vdW  Elec       q    Type
REMARK                         _______ _______ _______ _____ _____    ______ ____
ROOT
ATOM      1  C   UNL     1       5.280   5.088  17.463  0.00  0.00    +0.000 A 
ATOM      2  C   UNL     1       6.167   5.348  16.432  0.00  0.00    +0.000 A 
ATOM      3  N   UNL     1       5.730   4.665  15.322  0.00  0.00    +0.000 N 
ATOM      4  N   UNL     1       4.538   4.079  15.556  0.00  0.00    +0.000 NA
ATOM      5  C   UNL     1       4.296   4.237  16.867  0.00  0.00    +0.000 A 
ENDROOT
BRANCH   5   6
ATOM      6  C   UNL     1       3.148   3.539  17.460  0.00  0.00    +0.000 A 
ATOM      7  C   UNL     1       1.885   4.144  17.529  0.00  0.00    +0.000 A 
ATOM      8  C   UNL     1       0.829   3.511  18.191  0.00  0.00    +0.000 A 
ATOM      9  C   UNL     1       1.033   2.276  18.791  0.00  0.00    +0.000 A 
ATOM     10  F   UNL     1       0.026   1.687  19.448  0.00  0.00    +0.000 F 
ATOM     11  C   UNL     1       2.273   1.654  18.736  0.00  0.00    +0.000 A 
ATOM     12  C   UNL     1       3.329   2.286  18.072  0.00  0.00    +0.000 A 
ENDBRANCH   5   6
BRANCH   3  13
ATOM     13  C   UNL     1       6.387   4.505  14.068  0.00  0.00    +0.000 A 
ATOM     14  C   UNL     1       5.967   3.539  13.144  0.00  0.00    +0.000 A 
ATOM     15  C   UNL     1       6.594   3.443  11.897  0.00  0.00    +0.000 A 
ATOM     16  C   UNL     1       7.643   4.300  11.569  0.00  0.00    +0.000 A 
ATOM     17  C   UNL     1       8.075   5.255  12.488  0.00  0.00    +0.000 A 
ATOM     18  C   UNL     1       7.450   5.359  13.733  0.00  0.00    +0.000 A 
ENDBRANCH   3  13
BRANCH   1  19
ATOM     19  C   UNL     1       5.413   5.586  18.861  0.00  0.00    +0.000 C 
BRANCH  19  22
ATOM     20  O   UNL     1       3.411   4.714  20.539  0.00  0.00    +0.000 OA
ATOM     21  C   UNL     1       3.320   5.841  20.061  0.00  0.00    +0.000 C 
ATOM     22  N   UNL     1       4.251   6.364  19.213  0.00  0.00    +0.000 N 
ATOM     23  N   UNL     1       2.284   6.651  20.428  0.00  0.00    +0.000 N 
ATOM     24  H   UNL     1       4.408   7.354  19.340  0.00  0.00    +0.000 HD
ATOM     25  H   UNL     1       1.772   6.268  21.214  0.00  0.00    +0.000 HD
BRANCH  23  26
ATOM     26  C   UNL     1       1.844   7.886  19.914  0.00  0.00    +0.000 A 
ATOM     27  C   UNL     1       2.008   8.287  18.590  0.00  0.00    +0.000 A 
ATOM     28  C   UNL     1       1.610   9.559  18.189  0.00  0.00    +0.000 A 
ATOM     29  C   UNL     1       1.010  10.384  19.128  0.00  0.00    +0.000 A 
ATOM     30  N   UNL     1       0.767  10.013  20.401  0.00  0.00    +0.000 NA
ATOM     31  C   UNL     1       1.177   8.771  20.760  0.00  0.00    +0.000 A 
ENDBRANCH  23  26
ENDBRANCH  19  22
ENDBRANCH   1  19
TORSDOF 5
ENDMDL
MODEL 9
REMARK VINA RESULT:      -7.4      5.041      9.178
REMARK  Name = 
REMARK  5 active torsions:
REMARK  status: ('A' for Active; 'I' for Inactive)
REMARK    1  A    between atoms: N_3  and  C_4
REMARK    2  A    between atoms: C_4  and  C_5
REMARK    3  A    between atoms: N_7  and  C_8
REMARK    4  A    between atoms: C_15  and  C_16
REMARK    5  A    between atoms: N_23  and  C_24
REMARK                            x       y       z     vdW  Elec       q    Type
REMARK                         _______ _______ _______ _____ _____    ______ ____
ROOT
ATOM      1  C   UNL     1      -0.891  11.070  18.121  0.00  0.00    +0.000 A 
ATOM      2  C   UNL     1      -1.105  12.428  18.283  0.00  0.00    +0.000 A 
ATOM      3  N   UNL     1      -0.022  12.946  18.953  0.00  0.00    +0.000 N 
ATOM      4  N   UNL     1       0.932  12.008  19.120  0.00  0.00    +0.000 NA
ATOM      5  C   UNL     1       0.391  10.849  18.716  0.00  0.00    +0.000 A 
ENDROOT
BRANCH   5   6
ATOM      6  C   UNL     1       1.135   9.605  18.951  0.00  0.00    +0.000 A 
ATOM      7  C   UNL     1       1.802   8.947  17.908  0.00  0.00    +0.000 A 
ATOM      8  C   UNL     1       2.416   7.710  18.125  0.00  0.00    +0.000 A 
ATOM      9  C   UNL     1       2.359   7.123  19.382  0.00  0.00    +0.000 A 
ATOM     10  F   UNL     1       2.923   5.925  19.577  0.00  0.00    +0.000 F 
ATOM     11  C   UNL     1       1.706   7.753  20.433  0.00  0.00    +0.000 A 
ATOM     12  C   UNL     1       1.094   8.992  20.217  0.00  0.00    +0.000 A 
ENDBRANCH   5   6
BRANCH   3  13
ATOM     13  C   UNL     1       0.148  14.261  19.475  0.00  0.00    +0.000 A 
ATOM     14  C   UNL     1       0.824  14.483  20.681  0.00  0.00    +0.000 A 
ATOM     15  C   UNL     1       1.027  15.789  21.140  0.00  0.00    +0.000 A 
ATOM     16  C   UNL     1       0.552  16.875  20.406  0.00  0.00    +0.000 A 
ATOM     17  C   UNL     1      -0.132  16.661  19.211  0.00  0.00    +0.000 A 
ATOM     18  C   UNL     1      -0.335  15.360  18.745  0.00  0.00    +0.000 A 
ENDBRANCH   3  13
BRANCH   1  19
ATOM     19  C   UNL     1      -1.848  10.116  17.495  0.00  0.00    +0.000 C 
BRANCH  19  22
ATOM     20  O   UNL     1      -3.591  11.041  15.573  0.00  0.00    +0.000 OA
ATOM     21  C   UNL     1      -3.986  10.972  16.734  0.00  0.00    +0.000 C 
ATOM     22  N   UNL     1      -3.201  10.537  17.760  0.00  0.00    +0.000 N 
ATOM     23  N   UNL     1      -5.284  11.279  17.027  0.00  0.00    +0.000 N 
ATOM     24  H   UNL     1      -3.699  10.000  18.456  0.00  0.00    +0.000 HD
ATOM     25  H   UNL     1      -5.842  11.378  16.186  0.00  0.00    +0.000 HD
BRANCH  23  26
ATOM     26  C   UNL     1      -5.940  11.459  18.259  0.00  0.00    +0.000 A 
ATOM     27  C   UNL     1      -5.912  12.641  18.997  0.00  0.00    +0.000 A 
ATOM     28  C   UNL     1      -6.527  12.702  20.244  0.00  0.00    +0.000 A 
ATOM     29  C   UNL     1      -7.199  11.578  20.700  0.00  0.00    +0.000 A 
ATOM     30  N   UNL     1      -7.312  10.437  19.990  0.00  0.00    +0.000 NA
ATOM     31  C   UNL     1      -6.692  10.409  18.784  0.00  0.00    +0.000 A 
ENDBRANCH  23  26
ENDBRANCH  19  22
ENDBRANCH   1  19
TORSDOF 5
ENDMDL
