MODEL 1
REMARK VINA RESULT:      -8.0      0.000      0.000
REMARK  Name = 
REMARK  7 active torsions:
REMARK  status: ('A' for Active; 'I' for Inactive)
REMARK    1  A    between atoms: C_1  and  N_2
REMARK    2  A    between atoms: C_6  and  C_7
REMARK    3  A    between atoms: C_11  and  N_12
REMARK    4  A    between atoms: C_17  and  C_18
REMARK    5  A    between atoms: C_21  and  C_22
REMARK    6  A    between atoms: C_22  and  C_23
REMARK    7  A    between atoms: C_22  and  C_24
REMARK                            x       y       z     vdW  Elec       q    Type
REMARK                         _______ _______ _______ _____ _____    ______ ____
ROOT
ATOM      1  N   UNL     1       3.684   4.951  19.250  0.00  0.00    +0.000 N 
ATOM      2  C   UNL     1       5.080   5.450  19.280  0.00  0.00    +0.000 C 
ATOM      3  C   UNL     1       5.567   5.119  17.902  0.00  0.00    +0.000 A 
ATOM      4  C   UNL     1       4.814   4.032  17.447  0.00  0.00    +0.000 A 
ATOM      5  C   UNL     1       4.906   3.521  16.169  0.00  0.00    +0.000 A 
ATOM      6  C   UNL     1       5.791   4.167  15.312  0.00  0.00    +0.000 A 
ATOM      7  C   UNL     1       6.547   5.283  15.742  0.00  0.00    +0.000 A 
ATOM      8  C   UNL     1       6.458   5.778  17.060  0.00  0.00    +0.000 A 
ATOM      9  C   UNL     1       3.692   3.830  18.389  0.00  0.00    +0.000 C 
ATOM     10  O   UNL     1       2.847   2.975  18.256  0.00  0.00    +0.000 OA
ENDROOT
BRANCH   1  15
ATOM     11  C   UNL     1       1.789   8.036  19.811  0.00  0.00    +0.000 A 
ATOM     12  C   UNL     1       2.230   8.738  18.682  0.00  0.00    +0.000 A 
ATOM     13  C   UNL     1       2.758   8.064  17.582  0.00  0.00    +0.000 A 
ATOM     14  C   UNL     1       2.957   6.691  17.645  0.00  0.00    +0.000 A 
ATOM     15  C   UNL     1       2.776   6.028  18.868  0.00  0.00    +0.000 A 
ATOM     16  C   UNL     1       2.065   6.667  19.893  0.00  0.00    +0.000 A 
BRANCH  11  22
ATOM     17  C   UNL     1      -0.615  10.066  19.647  0.00  0.00    +0.000 C 
ATOM     18  N   UNL     1       0.116   9.659  20.817  0.00  0.00    +0.000 N 
ATOM     19  C   UNL     1      -0.056  10.177  22.065  0.00  0.00    +0.000 A 
ATOM     20  N   UNL     1       0.796   9.624  22.893  0.00  0.00    +0.000 NA
ATOM     21  N   UNL     1       1.565   8.749  22.166  0.00  0.00    +0.000 NA
ATOM     22  C   UNL     1       1.162   8.772  20.906  0.00  0.00    +0.000 A 
ENDBRANCH  11  22
ENDBRANCH   1  15
BRANCH   8  23
ATOM     23  C   UNL     1       7.262   6.991  17.507  0.00  0.00    +0.000 C 
ATOM     24  C   UNL     1       6.342   8.198  17.673  0.00  0.00    +0.000 C 
ATOM     25  C   UNL     1       8.049   6.730  18.798  0.00  0.00    +0.000 C 
ATOM     26  F   UNL     1       8.188   7.363  16.565  0.00  0.00    +0.000 F 
ENDBRANCH   8  23
BRANCH   6  27
ATOM     27  C   UNL     1       5.881   3.713  13.911  0.00  0.00    +0.000 C 
ATOM     28  O   UNL     1       6.683   4.202  13.126  0.00  0.00    +0.000 OA
ENDBRANCH   6  27
TORSDOF 4
ENDMDL
MODEL 2
REMARK VINA RESULT:      -7.6      4.492      8.289
REMARK  Name = 
REMARK  7 active torsions:
REMARK  status: ('A' for Active; 'I' for Inactive)
REMARK    1  A    between atoms: C_1  and  N_2
REMARK    2  A    between atoms: C_6  and  C_7
REMARK    3  A    between atoms: C_11  and  N_12
REMARK    4  A    between atoms: C_17  and  C_18
REMARK    5  A    between atoms: C_21  and  C_22
REMARK    6  A    between atoms: C_22  and  C_23
REMARK    7  A    between atoms: C_22  and  C_24
REMARK                            x       y       z     vdW  Elec       q    Type
REMARK                         _______ _______ _______ _____ _____    ______ ____
ROOT
ATOM      1  N   UNL     1       0.309   9.136  20.767  0.00  0.00    +0.000 N 
ATOM      2  C   UNL     1      -0.926   9.138  19.946  0.00  0.00    +0.000 C 
ATOM      3  C   UNL     1      -0.989  10.555  19.465  0.00  0.00    +0.000 A 
ATOM      4  C   UNL     1      -0.309  11.341  20.401  0.00  0.00    +0.000 A 
ATOM      5  C   UNL     1      -0.064  12.688  20.233  0.00  0.00    +0.000 A 
ATOM      6  C   UNL     1      -0.513  13.250  19.043  0.00  0.00    +0.000 A 
ATOM      7  C   UNL     1      -1.183  12.472  18.070  0.00  0.00    +0.000 A 
ATOM      8  C   UNL     1      -1.447  11.099  18.269  0.00  0.00    +0.000 A 
ATOM      9  C   UNL     1       0.403  10.432  21.325  0.00  0.00    +0.000 C 
ATOM     10  O   UNL     1       1.102  10.811  22.237  0.00  0.00    +0.000 OA
ENDROOT
BRANCH   1  15
ATOM     11  C   UNL     1       2.550   6.684  19.223  0.00  0.00    +0.000 A 
ATOM     12  C   UNL     1       2.480   7.163  17.908  0.00  0.00    +0.000 A 
ATOM     13  C   UNL     1       2.082   8.473  17.645  0.00  0.00    +0.000 A 
ATOM     14  C   UNL     1       1.641   9.282  18.684  0.00  0.00    +0.000 A 
ATOM     15  C   UNL     1       1.447   8.720  19.954  0.00  0.00    +0.000 A 
ATOM     16  C   UNL     1       2.031   7.480  20.250  0.00  0.00    +0.000 A 
BRANCH  11  22
ATOM     17  C   UNL     1       0.935   4.165  20.211  0.00  0.00    +0.000 C 
ATOM     18  N   UNL     1       2.336   4.246  19.898  0.00  0.00    +0.000 N 
ATOM     19  C   UNL     1       3.236   3.240  20.078  0.00  0.00    +0.000 A 
ATOM     20  N   UNL     1       4.432   3.652  19.738  0.00  0.00    +0.000 NA
ATOM     21  N   UNL     1       4.321   4.967  19.359  0.00  0.00    +0.000 NA
ATOM     22  C   UNL     1       3.054   5.334  19.461  0.00  0.00    +0.000 A 
ENDBRANCH  11  22
ENDBRANCH   1  15
BRANCH   8  23
ATOM     23  C   UNL     1      -2.153  10.267  17.207  0.00  0.00    +0.000 C 
ATOM     24  C   UNL     1      -3.366   9.565  17.812  0.00  0.00    +0.000 C 
ATOM     25  C   UNL     1      -2.564  11.100  15.986  0.00  0.00    +0.000 C 
ATOM     26  F   UNL     1      -1.348   9.263  16.730  0.00  0.00    +0.000 F 
ENDBRANCH   8  23
BRANCH   6  27
ATOM     27  C   UNL     1      -0.218  14.670  18.773  0.00  0.00    +0.000 C 
ATOM     28  O   UNL     1       0.909  15.130  18.905  0.00  0.00    +0.000 OA
ENDBRANCH   6  27
TORSDOF 4
ENDMDL
MODEL 3
REMARK VINA RESULT:      -7.6      2.764      4.028
REMARK  Name = 
REMARK  7 active torsions:
REMARK  status: ('A' for Active; 'I' for Inactive)
REMARK    1  A    between atoms: C_1  and  N_2
REMARK    2  A    between atoms: C_6  and  C_7
REMARK    3  A    between atoms: C_11  and  N_12
REMARK    4  A    between atoms: C_17  and  C_18
REMARK    5  A    between atoms: C_21  and  C_22
REMARK    6  A    between atoms: C_22  and  C_23
REMARK    7  A    between atoms: C_22  and  C_24
REMARK                            x       y       z     vdW  Elec       q    Type
REMARK                         _______ _______ _______ _____ _____    ______ ____
ROOT
ATOM      1  N   UNL     1       2.102   6.935  17.993  0.00  0.00    +0.000 N 
ATOM      2  C   UNL     1       2.012   5.463  18.146  0.00  0.00    +0.000 C 
ATOM      3  C   UNL     1       3.453   5.059  18.212  0.00  0.00    +0.000 A 
ATOM      4  C   UNL     1       4.188   6.036  17.531  0.00  0.00    +0.000 A 
ATOM      5  C   UNL     1       5.566   6.057  17.481  0.00  0.00    +0.000 A 
ATOM      6  C   UNL     1       6.221   5.049  18.180  0.00  0.00    +0.000 A 
ATOM      7  C   UNL     1       5.502   4.063  18.895  0.00  0.00    +0.000 A 
ATOM      8  C   UNL     1       4.090   4.042  18.916  0.00  0.00    +0.000 A 
ATOM      9  C   UNL     1       3.286   7.176  17.259  0.00  0.00    +0.000 C 
ATOM     10  O   UNL     1       3.634   8.190  16.700  0.00  0.00    +0.000 OA
ENDROOT
BRANCH   1  15
ATOM     11  C   UNL     1       0.975   9.482  20.372  0.00  0.00    +0.000 A 
ATOM     12  C   UNL     1       0.519   8.617  21.376  0.00  0.00    +0.000 A 
ATOM     13  C   UNL     1       0.974   7.302  21.446  0.00  0.00    +0.000 A 
ATOM     14  C   UNL     1       1.800   6.804  20.448  0.00  0.00    +0.000 A 
ATOM     15  C   UNL     1       2.033   7.578  19.301  0.00  0.00    +0.000 A 
ATOM     16  C   UNL     1       1.743   8.949  19.332  0.00  0.00    +0.000 A 
BRANCH  11  22
ATOM     17  C   UNL     1      -1.339  10.801  18.688  0.00  0.00    +0.000 C 
ATOM     18  N   UNL     1      -0.469  11.438  19.639  0.00  0.00    +0.000 N 
ATOM     19  C   UNL     1      -0.441  12.775  19.899  0.00  0.00    +0.000 A 
ATOM     20  N   UNL     1       0.494  13.033  20.780  0.00  0.00    +0.000 NA
ATOM     21  N   UNL     1       1.116  11.845  21.079  0.00  0.00    +0.000 NA
ATOM     22  C   UNL     1       0.541  10.877  20.385  0.00  0.00    +0.000 A 
ENDBRANCH  11  22
ENDBRANCH   1  15
BRANCH   8  23
ATOM     23  C   UNL     1       3.326   2.988  19.705  0.00  0.00    +0.000 C 
ATOM     24  C   UNL     1       2.630   3.631  20.902  0.00  0.00    +0.000 C 
ATOM     25  C   UNL     1       2.315   2.226  18.838  0.00  0.00    +0.000 C 
ATOM     26  F   UNL     1       4.165   2.041  20.234  0.00  0.00    +0.000 F 
ENDBRANCH   8  23
BRANCH   6  27
ATOM     27  C   UNL     1       7.697   5.059  18.225  0.00  0.00    +0.000 C 
ATOM     28  O   UNL     1       8.360   4.132  17.781  0.00  0.00    +0.000 OA
ENDBRANCH   6  27
TORSDOF 4
ENDMDL
MODEL 4
REMARK VINA RESULT:      -7.6      5.461     10.588
REMARK  Name = 
REMARK  7 active torsions:
REMARK  status: ('A' for Active; 'I' for Inactive)
REMARK    1  A    between atoms: C_1  and  N_2
REMARK    2  A    between atoms: C_6  and  C_7
REMARK    3  A    between atoms: C_11  and  N_12
REMARK    4  A    between atoms: C_17  and  C_18
REMARK    5  A    between atoms: C_21  and  C_22
REMARK    6  A    between atoms: C_22  and  C_23
REMARK    7  A    between atoms: C_22  and  C_24
REMARK                            x       y       z     vdW  Elec       q    Type
REMARK                         _______ _______ _______ _____ _____    ______ ____
ROOT
ATOM      1  N   UNL     1      -1.111  12.269  20.664  0.00  0.00    +0.000 N 
ATOM      2  C   UNL     1      -1.843  13.083  21.665  0.00  0.00    +0.000 C 
ATOM      3  C   UNL     1      -3.271  12.877  21.263  0.00  0.00    +0.000 A 
ATOM      4  C   UNL     1      -3.277  12.576  19.897  0.00  0.00    +0.000 A 
ATOM      5  C   UNL     1      -4.411  12.213  19.200  0.00  0.00    +0.000 A 
ATOM      6  C   UNL     1      -5.586  12.130  19.940  0.00  0.00    +0.000 A 
ATOM      7  C   UNL     1      -5.602  12.407  21.327  0.00  0.00    +0.000 A 
ATOM      8  C   UNL     1      -4.436  12.801  22.019  0.00  0.00    +0.000 A 
ATOM      9  C   UNL     1      -1.880  12.332  19.479  0.00  0.00    +0.000 C 
ATOM     10  O   UNL     1      -1.557  12.026  18.354  0.00  0.00    +0.000 OA
ENDROOT
BRANCH   1  15
ATOM     11  C   UNL     1       0.687   9.088  20.924  0.00  0.00    +0.000 A 
ATOM     12  C   UNL     1       0.846   9.072  22.317  0.00  0.00    +0.000 A 
ATOM     13  C   UNL     1       0.017   9.833  23.139  0.00  0.00    +0.000 A 
ATOM     14  C   UNL     1      -0.904  10.705  22.573  0.00  0.00    +0.000 A 
ATOM     15  C   UNL     1      -0.875  10.928  21.189  0.00  0.00    +0.000 A 
ATOM     16  C   UNL     1      -0.189  10.025  20.365  0.00  0.00    +0.000 A 
BRANCH  11  22
ATOM     17  C   UNL     1       1.748   9.609  18.003  0.00  0.00    +0.000 C 
ATOM     18  N   UNL     1       1.970   8.451  18.828  0.00  0.00    +0.000 N 
ATOM     19  C   UNL     1       2.611   7.318  18.428  0.00  0.00    +0.000 A 
ATOM     20  N   UNL     1       2.602   6.440  19.400  0.00  0.00    +0.000 NA
ATOM     21  N   UNL     1       1.910   6.995  20.448  0.00  0.00    +0.000 NA
ATOM     22  C   UNL     1       1.519   8.211  20.104  0.00  0.00    +0.000 A 
ENDBRANCH  11  22
ENDBRANCH   1  15
BRANCH   8  23
ATOM     23  C   UNL     1      -4.461  13.079  23.516  0.00  0.00    +0.000 C 
ATOM     24  C   UNL     1      -4.124  14.544  23.783  0.00  0.00    +0.000 C 
ATOM     25  C   UNL     1      -5.803  12.707  24.160  0.00  0.00    +0.000 C 
ATOM     26  F   UNL     1      -3.505  12.356  24.183  0.00  0.00    +0.000 F 
ENDBRANCH   8  23
BRANCH   6  27
ATOM     27  C   UNL     1      -6.818  11.677  19.266  0.00  0.00    +0.000 C 
ATOM     28  O   UNL     1      -6.852  11.462  18.062  0.00  0.00    +0.000 OA
ENDBRANCH   6  27
TORSDOF 4
ENDMDL
MODEL 5
REMARK VINA RESULT:      -7.5      4.045      8.381
REMARK  Name = 
REMARK  7 active torsions:
REMARK  status: ('A' for Active; 'I' for Inactive)
REMARK    1  A    between atoms: C_1  and  N_2
REMARK    2  A    between atoms: C_6  and  C_7
REMARK    3  A    between atoms: C_11  and  N_12
REMARK    4  A    between atoms: C_17  and  C_18
REMARK    5  A    between atoms: C_21  and  C_22
REMARK    6  A    between atoms: C_22  and  C_23
REMARK    7  A    between atoms: C_22  and  C_24
REMARK                            x       y       z     vdW  Elec       q    Type
REMARK                         _______ _______ _______ _____ _____    ______ ____
ROOT
ATOM      1  N   UNL     1       0.335   9.129  20.753  0.00  0.00    +0.000 N 
ATOM      2  C   UNL     1      -0.906   9.144  19.942  0.00  0.00    +0.000 C 
ATOM      3  C   UNL     1      -0.949  10.558  19.450  0.00  0.00    +0.000 A 
ATOM      4  C   UNL     1      -0.249  11.340  20.375  0.00  0.00    +0.000 A 
ATOM      5  C   UNL     1       0.016  12.681  20.194  0.00  0.00    +0.000 A 
ATOM      6  C   UNL     1      -0.432  13.241  19.003  0.00  0.00    +0.000 A 
ATOM      7  C   UNL     1      -1.123  12.466  18.041  0.00  0.00    +0.000 A 
ATOM      8  C   UNL     1      -1.407  11.100  18.253  0.00  0.00    +0.000 A 
ATOM      9  C   UNL     1       0.455  10.427  21.301  0.00  0.00    +0.000 C 
ATOM     10  O   UNL     1       1.167  10.802  22.204  0.00  0.00    +0.000 OA
ENDROOT
BRANCH   1  15
ATOM     11  C   UNL     1       2.493   6.627  19.170  0.00  0.00    +0.000 A 
ATOM     12  C   UNL     1       2.443   7.132  17.863  0.00  0.00    +0.000 A 
ATOM     13  C   UNL     1       2.092   8.459  17.623  0.00  0.00    +0.000 A 
ATOM     14  C   UNL     1       1.677   9.264  18.676  0.00  0.00    +0.000 A 
ATOM     15  C   UNL     1       1.461   8.687  19.936  0.00  0.00    +0.000 A 
ATOM     16  C   UNL     1       2.000   7.423  20.210  0.00  0.00    +0.000 A 
BRANCH  11  22
ATOM     17  C   UNL     1       5.454   5.549  19.141  0.00  0.00    +0.000 C 
ATOM     18  N   UNL     1       4.246   4.801  19.365  0.00  0.00    +0.000 N 
ATOM     19  C   UNL     1       4.180   3.448  19.506  0.00  0.00    +0.000 A 
ATOM     20  N   UNL     1       2.931   3.080  19.648  0.00  0.00    +0.000 NA
ATOM     21  N   UNL     1       2.158   4.212  19.564  0.00  0.00    +0.000 NA
ATOM     22  C   UNL     1       2.949   5.256  19.385  0.00  0.00    +0.000 A 
ENDBRANCH  11  22
ENDBRANCH   1  15
BRANCH   8  23
ATOM     23  C   UNL     1      -2.135  10.271  17.203  0.00  0.00    +0.000 C 
ATOM     24  C   UNL     1      -3.358   9.598  17.822  0.00  0.00    +0.000 C 
ATOM     25  C   UNL     1      -2.536  11.099  15.977  0.00  0.00    +0.000 C 
ATOM     26  F   UNL     1      -1.352   9.247  16.732  0.00  0.00    +0.000 F 
ENDBRANCH   8  23
BRANCH   6  27
ATOM     27  C   UNL     1      -0.116  14.654  18.719  0.00  0.00    +0.000 C 
ATOM     28  O   UNL     1       0.322  15.402  19.583  0.00  0.00    +0.000 OA
ENDBRANCH   6  27
TORSDOF 4
ENDMDL
MODEL 6
REMARK VINA RESULT:      -7.4      2.953      4.320
REMARK  Name = 
REMARK  7 active torsions:
REMARK  status: ('A' for Active; 'I' for Inactive)
REMARK    1  A    between atoms: C_1  and  N_2
REMARK    2  A    between atoms: C_6  and  C_7
REMARK    3  A    between atoms: C_11  and  N_12
REMARK    4  A    between atoms: C_17  and  C_18
REMARK    5  A    between atoms: C_21  and  C_22
REMARK    6  A    between atoms: C_22  and  C_23
REMARK    7  A    between atoms: C_22  and  C_24
REMARK                            x       y       z     vdW  Elec       q    Type
REMARK                         _______ _______ _______ _____ _____    ______ ____
ROOT
ATOM      1  N   UNL     1       2.100   7.144  17.861  0.00  0.00    +0.000 N 
ATOM      2  C   UNL     1       1.919   5.714  18.208  0.00  0.00    +0.000 C 
ATOM      3  C   UNL     1       3.329   5.260  18.438  0.00  0.00    +0.000 A 
ATOM      4  C   UNL     1       4.160   6.096  17.686  0.00  0.00    +0.000 A 
ATOM      5  C   UNL     1       5.538   6.048  17.737  0.00  0.00    +0.000 A 
ATOM      6  C   UNL     1       6.088   5.121  18.616  0.00  0.00    +0.000 A 
ATOM      7  C   UNL     1       5.268   4.280  19.405  0.00  0.00    +0.000 A 
ATOM      8  C   UNL     1       3.860   4.325  19.322  0.00  0.00    +0.000 A 
ATOM      9  C   UNL     1       3.343   7.225  17.192  0.00  0.00    +0.000 C 
ATOM     10  O   UNL     1       3.784   8.133  16.525  0.00  0.00    +0.000 OA
ENDROOT
BRANCH   1  15
ATOM     11  C   UNL     1       0.626   9.793  19.916  0.00  0.00    +0.000 A 
ATOM     12  C   UNL     1       0.404   9.035  21.074  0.00  0.00    +0.000 A 
ATOM     13  C   UNL     1       1.112   7.856  21.302  0.00  0.00    +0.000 A 
ATOM     14  C   UNL     1       1.964   7.363  20.323  0.00  0.00    +0.000 A 
ATOM     15  C   UNL     1       1.978   7.969  19.058  0.00  0.00    +0.000 A 
ATOM     16  C   UNL     1       1.426   9.248  18.907  0.00  0.00    +0.000 A 
BRANCH  11  22
ATOM     17  C   UNL     1       1.717  12.686  20.527  0.00  0.00    +0.000 C 
ATOM     18  N   UNL     1       0.417  12.321  20.032  0.00  0.00    +0.000 N 
ATOM     19  C   UNL     1      -0.616  13.187  19.836  0.00  0.00    +0.000 A 
ATOM     20  N   UNL     1      -1.671  12.529  19.424  0.00  0.00    +0.000 NA
ATOM     21  N   UNL     1      -1.334  11.199  19.381  0.00  0.00    +0.000 NA
ATOM     22  C   UNL     1      -0.073  11.066  19.756  0.00  0.00    +0.000 A 
ENDBRANCH  11  22
ENDBRANCH   1  15
BRANCH   8  23
ATOM     23  C   UNL     1       2.986   3.429  20.189  0.00  0.00    +0.000 C 
ATOM     24  C   UNL     1       2.300   4.257  21.273  0.00  0.00    +0.000 C 
ATOM     25  C   UNL     1       1.951   2.649  19.369  0.00  0.00    +0.000 C 
ATOM     26  F   UNL     1       3.728   2.490  20.859  0.00  0.00    +0.000 F 
ENDBRANCH   8  23
BRANCH   6  27
ATOM     27  C   UNL     1       7.555   5.072  18.770  0.00  0.00    +0.000 C 
ATOM     28  O   UNL     1       8.257   4.399  18.028  0.00  0.00    +0.000 OA
ENDBRANCH   6  27
TORSDOF 4
ENDMDL
MODEL 7
REMARK VINA RESULT:      -7.3      4.205      8.082
REMARK  Name = 
REMARK  7 active torsions:
REMARK  status: ('A' for Active; 'I' for Inactive)
REMARK    1  A    between atoms: C_1  and  N_2
REMARK    2  A    between atoms: C_6  and  C_7
REMARK    3  A    between atoms: C_11  and  N_12
REMARK    4  A    between atoms: C_17  and  C_18
REMARK    5  A    between atoms: C_21  and  C_22
REMARK    6  A    between atoms: C_22  and  C_23
REMARK    7  A    between atoms: C_22  and  C_24
REMARK                            x       y       z     vdW  Elec       q    Type
REMARK                         _______ _______ _______ _____ _____    ______ ____
ROOT
ATOM      1  N   UNL     1       0.746   8.283  21.301  0.00  0.00    +0.000 N 
ATOM      2  C   UNL     1      -0.500   8.645  20.583  0.00  0.00    +0.000 C 
ATOM      3  C   UNL     1      -0.282  10.095  20.275  0.00  0.00    +0.000 A 
ATOM      4  C   UNL     1       0.597  10.596  21.241  0.00  0.00    +0.000 A 
ATOM      5  C   UNL     1       1.116  11.873  21.211  0.00  0.00    +0.000 A 
ATOM      6  C   UNL     1       0.738  12.665  20.131  0.00  0.00    +0.000 A 
ATOM      7  C   UNL     1      -0.131  12.174  19.130  0.00  0.00    +0.000 A 
ATOM      8  C   UNL     1      -0.673  10.871  19.188  0.00  0.00    +0.000 A 
ATOM      9  C   UNL     1       1.143   9.448  21.997  0.00  0.00    +0.000 C 
ATOM     10  O   UNL     1       1.952   9.555  22.890  0.00  0.00    +0.000 OA
ENDROOT
BRANCH   1  15
ATOM     11  C   UNL     1       2.251   5.672  19.219  0.00  0.00    +0.000 A 
ATOM     12  C   UNL     1       2.292   6.388  18.015  0.00  0.00    +0.000 A 
ATOM     13  C   UNL     1       2.246   7.781  18.011  0.00  0.00    +0.000 A 
ATOM     14  C   UNL     1       2.044   8.468  19.200  0.00  0.00    +0.000 A 
ATOM     15  C   UNL     1       1.726   7.749  20.362  0.00  0.00    +0.000 A 
ATOM     16  C   UNL     1       1.970   6.369  20.399  0.00  0.00    +0.000 A 
BRANCH  11  22
ATOM     17  C   UNL     1       4.911   3.984  19.131  0.00  0.00    +0.000 C 
ATOM     18  N   UNL     1       3.558   3.496  19.143  0.00  0.00    +0.000 N 
ATOM     19  C   UNL     1       3.198   2.189  19.015  0.00  0.00    +0.000 A 
ATOM     20  N   UNL     1       1.892   2.089  19.020  0.00  0.00    +0.000 NA
ATOM     21  N   UNL     1       1.383   3.361  19.119  0.00  0.00    +0.000 NA
ATOM     22  C   UNL     1       2.388   4.218  19.187  0.00  0.00    +0.000 A 
ENDBRANCH  11  22
ENDBRANCH   1  15
BRANCH   8  23
ATOM     23  C   UNL     1      -1.593  10.346  18.095  0.00  0.00    +0.000 C 
ATOM     24  C   UNL     1      -2.275  11.510  17.380  0.00  0.00    +0.000 C 
ATOM     25  C   UNL     1      -0.857   9.452  17.089  0.00  0.00    +0.000 C 
ATOM     26  F   UNL     1      -2.611   9.584  18.609  0.00  0.00    +0.000 F 
ENDBRANCH   8  23
BRANCH   6  27
ATOM     27  C   UNL     1       1.317  14.016  20.005  0.00  0.00    +0.000 C 
ATOM     28  O   UNL     1       1.423  14.572  18.919  0.00  0.00    +0.000 OA
ENDBRANCH   6  27
TORSDOF 4
ENDMDL
MODEL 8
REMARK VINA RESULT:      -7.3      5.205     10.349
REMARK  Name = 
REMARK  7 active torsions:
REMARK  status: ('A' for Active; 'I' for Inactive)
REMARK    1  A    between atoms: C_1  and  N_2
REMARK    2  A    between atoms: C_6  and  C_7
REMARK    3  A    between atoms: C_11  and  N_12
REMARK    4  A    between atoms: C_17  and  C_18
REMARK    5  A    between atoms: C_21  and  C_22
REMARK    6  A    between atoms: C_22  and  C_23
REMARK    7  A    between atoms: C_22  and  C_24
REMARK                            x       y       z     vdW  Elec       q    Type
REMARK                         _______ _______ _______ _____ _____    ______ ____
ROOT
ATOM      1  N   UNL     1      -0.750  12.003  19.892  0.00  0.00    +0.000 N 
ATOM      2  C   UNL     1      -1.136  12.899  21.008  0.00  0.00    +0.000 C 
ATOM      3  C   UNL     1      -2.631  12.802  20.993  0.00  0.00    +0.000 A 
ATOM      4  C   UNL     1      -3.011  12.469  19.689  0.00  0.00    +0.000 A 
ATOM      5  C   UNL     1      -4.310  12.184  19.322  0.00  0.00    +0.000 A 
ATOM      6  C   UNL     1      -5.257  12.217  20.339  0.00  0.00    +0.000 A 
ATOM      7  C   UNL     1      -4.895  12.529  21.671  0.00  0.00    +0.000 A 
ATOM      8  C   UNL     1      -3.564  12.842  22.025  0.00  0.00    +0.000 A 
ATOM      9  C   UNL     1      -1.791  12.099  18.940  0.00  0.00    +0.000 C 
ATOM     10  O   UNL     1      -1.793  11.740  17.785  0.00  0.00    +0.000 OA
ENDROOT
BRANCH   1  15
ATOM     11  C   UNL     1       1.115   8.857  20.112  0.00  0.00    +0.000 A 
ATOM     12  C   UNL     1       1.273   8.826  21.504  0.00  0.00    +0.000 A 
ATOM     13  C   UNL     1       0.427   9.558  22.335  0.00  0.00    +0.000 A 
ATOM     14  C   UNL     1      -0.511  10.418  21.780  0.00  0.00    +0.000 A 
ATOM     15  C   UNL     1      -0.486  10.660  20.398  0.00  0.00    +0.000 A 
ATOM     16  C   UNL     1       0.220   9.783  19.564  0.00  0.00    +0.000 A 
BRANCH  11  22
ATOM     17  C   UNL     1       1.811   5.813  20.537  0.00  0.00    +0.000 C 
ATOM     18  N   UNL     1       2.263   6.682  19.483  0.00  0.00    +0.000 N 
ATOM     19  C   UNL     1       3.171   6.342  18.527  0.00  0.00    +0.000 A 
ATOM     20  N   UNL     1       3.398   7.371  17.749  0.00  0.00    +0.000 NA
ATOM     21  N   UNL     1       2.649   8.419  18.226  0.00  0.00    +0.000 NA
ATOM     22  C   UNL     1       1.965   8.008  19.281  0.00  0.00    +0.000 A 
ENDBRANCH  11  22
ENDBRANCH   1  15
BRANCH   8  23
ATOM     23  C   UNL     1      -3.181  13.157  23.464  0.00  0.00    +0.000 C 
ATOM     24  C   UNL     1      -3.009  14.664  23.642  0.00  0.00    +0.000 C 
ATOM     25  C   UNL     1      -4.195  12.607  24.475  0.00  0.00    +0.000 C 
ATOM     26  F   UNL     1      -1.970  12.608  23.800  0.00  0.00    +0.000 F 
ENDBRANCH   8  23
BRANCH   6  27
ATOM     27  C   UNL     1      -6.652  11.851  20.024  0.00  0.00    +0.000 C 
ATOM     28  O   UNL     1      -7.403  11.389  20.872  0.00  0.00    +0.000 OA
ENDBRANCH   6  27
TORSDOF 4
ENDMDL
MODEL 9
REMARK VINA RESULT:      -7.2      5.291      9.481
REMARK  Name = 
REMARK  7 active torsions:
REMARK  status: ('A' for Active; 'I' for Inactive)
REMARK    1  A    between atoms: C_1  and  N_2
REMARK    2  A    between atoms: C_6  and  C_7
REMARK    3  A    between atoms: C_11  and  N_12
REMARK    4  A    between atoms: C_17  and  C_18
REMARK    5  A    between atoms: C_21  and  C_22
REMARK    6  A    between atoms: C_22  and  C_23
REMARK    7  A    between atoms: C_22  and  C_24
REMARK                            x       y       z     vdW  Elec       q    Type
REMARK                         _______ _______ _______ _____ _____    ______ ____
ROOT
ATOM      1  N   UNL     1      -1.372  12.373  20.173  0.00  0.00    +0.000 N 
ATOM      2  C   UNL     1      -2.803  12.752  20.098  0.00  0.00    +0.000 C 
ATOM      3  C   UNL     1      -3.235  12.120  18.810  0.00  0.00    +0.000 A 
ATOM      4  C   UNL     1      -2.099  12.012  18.001  0.00  0.00    +0.000 A 
ATOM      5  C   UNL     1      -2.090  11.373  16.779  0.00  0.00    +0.000 A 
ATOM      6  C   UNL     1      -3.291  10.798  16.378  0.00  0.00    +0.000 A 
ATOM      7  C   UNL     1      -4.449  10.875  17.188  0.00  0.00    +0.000 A 
ATOM      8  C   UNL     1      -4.446  11.553  18.426  0.00  0.00    +0.000 A 
ATOM      9  C   UNL     1      -0.916  12.318  18.835  0.00  0.00    +0.000 C 
ATOM     10  O   UNL     1       0.222  12.287  18.426  0.00  0.00    +0.000 OA
ENDROOT
BRANCH   1  15
ATOM     11  C   UNL     1       0.298   9.255  21.127  0.00  0.00    +0.000 A 
ATOM     12  C   UNL     1       0.344   9.479  22.510  0.00  0.00    +0.000 A 
ATOM     13  C   UNL     1      -0.523  10.386  23.116  0.00  0.00    +0.000 A 
ATOM     14  C   UNL     1      -1.368  11.162  22.333  0.00  0.00    +0.000 A 
ATOM     15  C   UNL     1      -1.221  11.140  20.938  0.00  0.00    +0.000 A 
ATOM     16  C   UNL     1      -0.500  10.096  20.343  0.00  0.00    +0.000 A 
BRANCH  11  22
ATOM     17  C   UNL     1       1.846   9.373  18.385  0.00  0.00    +0.000 C 
ATOM     18  N   UNL     1       1.829   8.299  19.342  0.00  0.00    +0.000 N 
ATOM     19  C   UNL     1       2.419   7.084  19.164  0.00  0.00    +0.000 A 
ATOM     20  N   UNL     1       2.178   6.321  20.200  0.00  0.00    +0.000 NA
ATOM     21  N   UNL     1       1.384   7.037  21.062  0.00  0.00    +0.000 NA
ATOM     22  C   UNL     1       1.164   8.234  20.543  0.00  0.00    +0.000 A 
ENDBRANCH  11  22
ENDBRANCH   1  15
BRANCH   8  23
ATOM     23  C   UNL     1      -5.692  11.613  19.299  0.00  0.00    +0.000 C 
ATOM     24  C   UNL     1      -6.462  12.903  19.025  0.00  0.00    +0.000 C 
ATOM     25  C   UNL     1      -6.600  10.392  19.108  0.00  0.00    +0.000 C 
ATOM     26  F   UNL     1      -5.377  11.650  20.633  0.00  0.00    +0.000 F 
ENDBRANCH   8  23
BRANCH   6  27
ATOM     27  C   UNL     1      -3.328  10.038  15.113  0.00  0.00    +0.000 C 
ATOM     28  O   UNL     1      -2.890  10.504  14.070  0.00  0.00    +0.000 OA
ENDBRANCH   6  27
TORSDOF 4
ENDMDL
