MODEL 1
REMARK VINA RESULT:      -8.0      0.000      0.000
REMARK  Name = 
REMARK  4 active torsions:
REMARK  status: ('A' for Active; 'I' for Inactive)
REMARK    1  A    between atoms: C_2  and  C_26
REMARK    2  A    between atoms: N_3  and  C_4
REMARK    3  A    between atoms: C_8  and  C_9
REMARK    4  A    between atoms: C_15  and  C_16
REMARK                            x       y       z     vdW  Elec       q    Type
REMARK                         _______ _______ _______ _____ _____    ______ ____
ROOT
ATOM      1  C   UNL     1      -1.725  10.801  18.341  0.00  0.00    +0.000 C 
ATOM      2  O   UNL     1      -1.335   9.924  17.566  0.00  0.00    +0.000 OA
ATOM      3  N   UNL     1      -0.850  11.395  19.237  0.00  0.00    +0.000 N 
ATOM      4  C   UNL     1      -1.074  12.530  20.113  0.00  0.00    +0.000 C 
ATOM      5  C   UNL     1       0.235  13.294  20.085  0.00  0.00    +0.000 C 
ATOM      6  C   UNL     1       1.288  12.208  19.926  0.00  0.00    +0.000 C 
ATOM      7  C   UNL     1       0.580  11.085  19.148  0.00  0.00    +0.000 C 
ENDROOT
BRANCH   7   8
ATOM      8  C   UNL     1       0.885   9.747  19.738  0.00  0.00    +0.000 A 
ATOM      9  N   UNL     1       0.550   9.331  20.951  0.00  0.00    +0.000 NA
ATOM     10  N   UNL     1       1.122   8.098  21.160  0.00  0.00    +0.000 NA
ATOM     11  C   UNL     1       1.782   7.769  20.073  0.00  0.00    +0.000 A 
ATOM     12  C   UNL     1       2.576   6.639  19.738  0.00  0.00    +0.000 A 
ATOM     13  C   UNL     1       3.159   6.567  18.524  0.00  0.00    +0.000 A 
ATOM     14  C   UNL     1       2.984   7.624  17.540  0.00  0.00    +0.000 A 
ATOM     15  C   UNL     1       2.239   8.697  17.857  0.00  0.00    +0.000 A 
ATOM     16  N   UNL     1       1.646   8.773  19.120  0.00  0.00    +0.000 N 
ENDBRANCH   7   8
BRANCH   1  21
ATOM     17  C   UNL     1      -5.270  12.120  18.999  0.00  0.00    +0.000 A 
ATOM     18  C   UNL     1      -5.707  12.219  17.673  0.00  0.00    +0.000 A 
ATOM     19  C   UNL     1      -4.899  11.805  16.618  0.00  0.00    +0.000 A 
ATOM     20  C   UNL     1      -3.622  11.324  16.878  0.00  0.00    +0.000 A 
ATOM     21  C   UNL     1      -3.129  11.281  18.191  0.00  0.00    +0.000 A 
ATOM     22  C   UNL     1      -3.968  11.659  19.255  0.00  0.00    +0.000 A 
BRANCH  17  25
ATOM     23  O   UNL     1      -7.016  10.386  20.584  0.00  0.00    +0.000 OA
ATOM     24  C   UNL     1      -6.935  11.598  20.775  0.00  0.00    +0.000 C 
ATOM     25  N   UNL     1      -6.101  12.471  20.089  0.00  0.00    +0.000 N 
ATOM     26  H   UNL     1      -6.040  13.413  20.462  0.00  0.00    +0.000 HD
BRANCH  24  27
ATOM     27  C   UNL     1      -7.711  12.257  21.926  0.00  0.00    +0.000 C 
ATOM     28  C   UNL     1      -7.436  13.756  21.963  0.00  0.00    +0.000 C 
ATOM     29  C   UNL     1      -7.580  14.088  23.421  0.00  0.00    +0.000 C 
ATOM     30  C   UNL     1      -7.051  12.836  24.081  0.00  0.00    +0.000 C 
ATOM     31  O   UNL     1      -7.388  11.735  23.222  0.00  0.00    +0.000 OA
ENDBRANCH  24  27
ENDBRANCH  17  25
ENDBRANCH   1  21
TORSDOF 4
ENDMDL
MODEL 2
REMARK VINA RESULT:      -7.8      3.469     10.066
REMARK  Name = 
REMARK  4 active torsions:
REMARK  status: ('A' for Active; 'I' for Inactive)
REMARK    1  A    between atoms: C_2  and  C_26
REMARK    2  A    between atoms: N_3  and  C_4
REMARK    3  A    between atoms: C_8  and  C_9
REMARK    4  A    between atoms: C_15  and  C_16
REMARK                            x       y       z     vdW  Elec       q    Type
REMARK                         _______ _______ _______ _____ _____    ______ ____
ROOT
ATOM      1  C   UNL     1       1.077   9.180  20.321  0.00  0.00    +0.000 C 
ATOM      2  O   UNL     1       0.601   9.368  21.443  0.00  0.00    +0.000 OA
ATOM      3  N   UNL     1       1.158  10.214  19.402  0.00  0.00    +0.000 N 
ATOM      4  C   UNL     1       1.810  10.234  18.106  0.00  0.00    +0.000 C 
ATOM      5  C   UNL     1       2.415  11.620  18.007  0.00  0.00    +0.000 C 
ATOM      6  C   UNL     1       1.435  12.501  18.768  0.00  0.00    +0.000 C 
ATOM      7  C   UNL     1       0.817  11.574  19.830  0.00  0.00    +0.000 C 
ENDROOT
BRANCH   7   8
ATOM      8  C   UNL     1      -0.662  11.764  19.914  0.00  0.00    +0.000 A 
ATOM      9  N   UNL     1      -1.526  11.641  18.915  0.00  0.00    +0.000 NA
ATOM     10  N   UNL     1      -2.768  12.021  19.367  0.00  0.00    +0.000 NA
ATOM     11  C   UNL     1      -2.653  12.354  20.632  0.00  0.00    +0.000 A 
ATOM     12  C   UNL     1      -3.589  12.843  21.584  0.00  0.00    +0.000 A 
ATOM     13  C   UNL     1      -3.183  13.118  22.840  0.00  0.00    +0.000 A 
ATOM     14  C   UNL     1      -1.802  12.916  23.248  0.00  0.00    +0.000 A 
ATOM     15  C   UNL     1      -0.913  12.460  22.348  0.00  0.00    +0.000 A 
ATOM     16  N   UNL     1      -1.335  12.187  21.044  0.00  0.00    +0.000 N 
ENDBRANCH   7   8
BRANCH   1  21
ATOM     17  C   UNL     1       3.137   6.283  18.871  0.00  0.00    +0.000 A 
ATOM     18  C   UNL     1       2.707   5.267  19.732  0.00  0.00    +0.000 A 
ATOM     19  C   UNL     1       1.733   5.508  20.697  0.00  0.00    +0.000 A 
ATOM     20  C   UNL     1       1.208   6.786  20.839  0.00  0.00    +0.000 A 
ATOM     21  C   UNL     1       1.673   7.842  20.039  0.00  0.00    +0.000 A 
ATOM     22  C   UNL     1       2.624   7.580  19.037  0.00  0.00    +0.000 A 
BRANCH  17  25
ATOM     23  O   UNL     1       5.969   5.583  19.119  0.00  0.00    +0.000 OA
ATOM     24  C   UNL     1       5.420   5.750  18.031  0.00  0.00    +0.000 C 
ATOM     25  N   UNL     1       4.076   6.042  17.840  0.00  0.00    +0.000 N 
ATOM     26  H   UNL     1       3.744   6.003  16.881  0.00  0.00    +0.000 HD
BRANCH  24  27
ATOM     27  C   UNL     1       6.197   5.522  16.726  0.00  0.00    +0.000 C 
ATOM     28  C   UNL     1       5.312   5.821  15.521  0.00  0.00    +0.000 C 
ATOM     29  C   UNL     1       5.857   4.899  14.467  0.00  0.00    +0.000 C 
ATOM     30  C   UNL     1       6.266   3.696  15.286  0.00  0.00    +0.000 C 
ATOM     31  O   UNL     1       6.694   4.186  16.566  0.00  0.00    +0.000 OA
ENDBRANCH  24  27
ENDBRANCH  17  25
ENDBRANCH   1  21
TORSDOF 4
ENDMDL
MODEL 3
REMARK VINA RESULT:      -7.8      3.957      6.871
REMARK  Name = 
REMARK  4 active torsions:
REMARK  status: ('A' for Active; 'I' for Inactive)
REMARK    1  A    between atoms: C_2  and  C_26
REMARK    2  A    between atoms: N_3  and  C_4
REMARK    3  A    between atoms: C_8  and  C_9
REMARK    4  A    between atoms: C_15  and  C_16
REMARK                            x       y       z     vdW  Elec       q    Type
REMARK                         _______ _______ _______ _____ _____    ______ ____
ROOT
ATOM      1  C   UNL     1       3.024   6.575  19.318  0.00  0.00    +0.000 C 
ATOM      2  O   UNL     1       3.904   6.676  20.176  0.00  0.00    +0.000 OA
ATOM      3  N   UNL     1       2.830   5.384  18.637  0.00  0.00    +0.000 N 
ATOM      4  C   UNL     1       1.769   5.023  17.715  0.00  0.00    +0.000 C 
ATOM      5  C   UNL     1       1.472   3.570  18.030  0.00  0.00    +0.000 C 
ATOM      6  C   UNL     1       2.822   3.003  18.443  0.00  0.00    +0.000 C 
ATOM      7  C   UNL     1       3.578   4.195  19.056  0.00  0.00    +0.000 C 
ENDROOT
BRANCH   7   8
ATOM      8  C   UNL     1       4.990   4.241  18.573  0.00  0.00    +0.000 A 
ATOM      9  N   UNL     1       6.076   4.302  19.331  0.00  0.00    +0.000 NA
ATOM     10  N   UNL     1       7.169   4.459  18.511  0.00  0.00    +0.000 NA
ATOM     11  C   UNL     1       6.743   4.475  17.269  0.00  0.00    +0.000 A 
ATOM     12  C   UNL     1       7.416   4.637  16.027  0.00  0.00    +0.000 A 
ATOM     13  C   UNL     1       6.709   4.623  14.878  0.00  0.00    +0.000 A 
ATOM     14  C   UNL     1       5.267   4.436  14.881  0.00  0.00    +0.000 A 
ATOM     15  C   UNL     1       4.628   4.289  16.056  0.00  0.00    +0.000 A 
ATOM     16  N   UNL     1       5.362   4.315  17.244  0.00  0.00    +0.000 N 
ENDBRANCH   7   8
BRANCH   1  21
ATOM     17  C   UNL     1       0.551   9.457  19.885  0.00  0.00    +0.000 A 
ATOM     18  C   UNL     1       0.485   9.939  18.573  0.00  0.00    +0.000 A 
ATOM     19  C   UNL     1       1.166   9.302  17.539  0.00  0.00    +0.000 A 
ATOM     20  C   UNL     1       1.958   8.196  17.817  0.00  0.00    +0.000 A 
ATOM     21  C   UNL     1       2.102   7.734  19.135  0.00  0.00    +0.000 A 
ATOM     22  C   UNL     1       1.376   8.355  20.166  0.00  0.00    +0.000 A 
BRANCH  17  25
ATOM     23  O   UNL     1       1.100  11.957  21.307  0.00  0.00    +0.000 OA
ATOM     24  C   UNL     1       0.155  11.224  21.594  0.00  0.00    +0.000 C 
ATOM     25  N   UNL     1      -0.186  10.049  20.938  0.00  0.00    +0.000 N 
ATOM     26  H   UNL     1      -1.077   9.637  21.198  0.00  0.00    +0.000 HD
BRANCH  24  27
ATOM     27  C   UNL     1      -0.842  11.635  22.689  0.00  0.00    +0.000 C 
ATOM     28  C   UNL     1      -2.225  11.866  22.090  0.00  0.00    +0.000 C 
ATOM     29  C   UNL     1      -2.814  12.909  22.997  0.00  0.00    +0.000 C 
ATOM     30  C   UNL     1      -1.599  13.731  23.360  0.00  0.00    +0.000 C 
ATOM     31  O   UNL     1      -0.478  12.832  23.391  0.00  0.00    +0.000 OA
ENDBRANCH  24  27
ENDBRANCH  17  25
ENDBRANCH   1  21
TORSDOF 4
ENDMDL
MODEL 4
REMARK VINA RESULT:      -7.7      4.048      9.945
REMARK  Name = 
REMARK  4 active torsions:
REMARK  status: ('A' for Active; 'I' for Inactive)
REMARK    1  A    between atoms: C_2  and  C_26
REMARK    2  A    between atoms: N_3  and  C_4
REMARK    3  A    between atoms: C_8  and  C_9
REMARK    4  A    between atoms: C_15  and  C_16
REMARK                            x       y       z     vdW  Elec       q    Type
REMARK                         _______ _______ _______ _____ _____    ______ ____
ROOT
ATOM      1  C   UNL     1       0.739  10.507  18.978  0.00  0.00    +0.000 C 
ATOM      2  O   UNL     1       1.448  11.501  19.155  0.00  0.00    +0.000 OA
ATOM      3  N   UNL     1      -0.570  10.637  18.544  0.00  0.00    +0.000 N 
ATOM      4  C   UNL     1      -1.505   9.603  18.139  0.00  0.00    +0.000 C 
ATOM      5  C   UNL     1      -2.259  10.210  16.973  0.00  0.00    +0.000 C 
ATOM      6  C   UNL     1      -2.325  11.691  17.311  0.00  0.00    +0.000 C 
ATOM      7  C   UNL     1      -1.059  11.960  18.144  0.00  0.00    +0.000 C 
ENDROOT
BRANCH   7   8
ATOM      8  C   UNL     1      -1.369  12.809  19.333  0.00  0.00    +0.000 A 
ATOM      9  N   UNL     1      -2.216  12.512  20.309  0.00  0.00    +0.000 NA
ATOM     10  N   UNL     1      -2.316  13.601  21.143  0.00  0.00    +0.000 NA
ATOM     11  C   UNL     1      -1.521  14.539  20.680  0.00  0.00    +0.000 A 
ATOM     12  C   UNL     1      -1.249  15.865  21.114  0.00  0.00    +0.000 A 
ATOM     13  C   UNL     1      -0.376  16.627  20.425  0.00  0.00    +0.000 A 
ATOM     14  C   UNL     1       0.305  16.117  19.245  0.00  0.00    +0.000 A 
ATOM     15  C   UNL     1       0.043  14.864  18.829  0.00  0.00    +0.000 A 
ATOM     16  N   UNL     1      -0.871  14.082  19.539  0.00  0.00    +0.000 N 
ENDBRANCH   7   8
BRANCH   1  21
ATOM     17  C   UNL     1       2.667   7.244  18.366  0.00  0.00    +0.000 A 
ATOM     18  C   UNL     1       2.556   6.690  19.646  0.00  0.00    +0.000 A 
ATOM     19  C   UNL     1       1.823   7.327  20.643  0.00  0.00    +0.000 A 
ATOM     20  C   UNL     1       1.224   8.552  20.378  0.00  0.00    +0.000 A 
ATOM     21  C   UNL     1       1.378   9.167  19.126  0.00  0.00    +0.000 A 
ATOM     22  C   UNL     1       2.084   8.496  18.112  0.00  0.00    +0.000 A 
BRANCH  17  25
ATOM     23  O   UNL     1       5.511   7.377  17.683  0.00  0.00    +0.000 OA
ATOM     24  C   UNL     1       4.703   6.720  17.031  0.00  0.00    +0.000 C 
ATOM     25  N   UNL     1       3.351   6.580  17.320  0.00  0.00    +0.000 N 
ATOM     26  H   UNL     1       2.849   5.887  16.774  0.00  0.00    +0.000 HD
BRANCH  24  27
ATOM     27  C   UNL     1       5.174   5.864  15.845  0.00  0.00    +0.000 C 
ATOM     28  C   UNL     1       4.918   4.386  16.120  0.00  0.00    +0.000 C 
ATOM     29  C   UNL     1       6.017   3.706  15.353  0.00  0.00    +0.000 C 
ATOM     30  C   UNL     1       7.154   4.692  15.497  0.00  0.00    +0.000 C 
ATOM     31  O   UNL     1       6.569   6.003  15.542  0.00  0.00    +0.000 OA
ENDBRANCH  24  27
ENDBRANCH  17  25
ENDBRANCH   1  21
TORSDOF 4
ENDMDL
MODEL 5
REMARK VINA RESULT:      -7.6      4.722     10.134
REMARK  Name = 
REMARK  4 active torsions:
REMARK  status: ('A' for Active; 'I' for Inactive)
REMARK    1  A    between atoms: C_2  and  C_26
REMARK    2  A    between atoms: N_3  and  C_4
REMARK    3  A    between atoms: C_8  and  C_9
REMARK    4  A    between atoms: C_15  and  C_16
REMARK                            x       y       z     vdW  Elec       q    Type
REMARK                         _______ _______ _______ _____ _____    ______ ____
ROOT
ATOM      1  C   UNL     1       1.363   9.102  19.857  0.00  0.00    +0.000 C 
ATOM      2  O   UNL     1       1.255   9.678  18.772  0.00  0.00    +0.000 OA
ATOM      3  N   UNL     1       0.921   9.701  21.026  0.00  0.00    +0.000 N 
ATOM      4  C   UNL     1       0.822   9.138  22.359  0.00  0.00    +0.000 C 
ATOM      5  C   UNL     1      -0.458   9.721  22.923  0.00  0.00    +0.000 C 
ATOM      6  C   UNL     1      -0.536  11.105  22.297  0.00  0.00    +0.000 C 
ATOM      7  C   UNL     1       0.181  10.964  20.942  0.00  0.00    +0.000 C 
ENDROOT
BRANCH   7   8
ATOM      8  C   UNL     1       1.097  12.118  20.696  0.00  0.00    +0.000 A 
ATOM      9  N   UNL     1       2.318  12.268  21.190  0.00  0.00    +0.000 NA
ATOM     10  N   UNL     1       2.779  13.515  20.836  0.00  0.00    +0.000 NA
ATOM     11  C   UNL     1       1.846  14.101  20.120  0.00  0.00    +0.000 A 
ATOM     12  C   UNL     1       1.765  15.388  19.522  0.00  0.00    +0.000 A 
ATOM     13  C   UNL     1       0.657  15.737  18.836  0.00  0.00    +0.000 A 
ATOM     14  C   UNL     1      -0.459  14.817  18.686  0.00  0.00    +0.000 A 
ATOM     15  C   UNL     1      -0.386  13.601  19.256  0.00  0.00    +0.000 A 
ATOM     16  N   UNL     1       0.758  13.247  19.976  0.00  0.00    +0.000 N 
ENDBRANCH   7   8
BRANCH   1  21
ATOM     17  C   UNL     1       3.269   5.864  19.069  0.00  0.00    +0.000 A 
ATOM     18  C   UNL     1       2.700   5.041  20.048  0.00  0.00    +0.000 A 
ATOM     19  C   UNL     1       1.688   5.510  20.881  0.00  0.00    +0.000 A 
ATOM     20  C   UNL     1       1.262   6.827  20.769  0.00  0.00    +0.000 A 
ATOM     21  C   UNL     1       1.864   7.697  19.846  0.00  0.00    +0.000 A 
ATOM     22  C   UNL     1       2.855   7.203  18.979  0.00  0.00    +0.000 A 
BRANCH  17  25
ATOM     23  O   UNL     1       6.040   5.109  19.636  0.00  0.00    +0.000 OA
ATOM     24  C   UNL     1       5.564   5.081  18.502  0.00  0.00    +0.000 C 
ATOM     25  N   UNL     1       4.251   5.387  18.168  0.00  0.00    +0.000 N 
ATOM     26  H   UNL     1       3.973   5.173  17.216  0.00  0.00    +0.000 HD
BRANCH  24  27
ATOM     27  C   UNL     1       6.401   4.570  17.320  0.00  0.00    +0.000 C 
ATOM     28  C   UNL     1       6.886   5.736  16.467  0.00  0.00    +0.000 C 
ATOM     29  C   UNL     1       6.979   5.133  15.094  0.00  0.00    +0.000 C 
ATOM     30  C   UNL     1       5.826   4.156  15.104  0.00  0.00    +0.000 C 
ATOM     31  O   UNL     1       5.697   3.672  16.450  0.00  0.00    +0.000 OA
ENDBRANCH  24  27
ENDBRANCH  17  25
ENDBRANCH   1  21
TORSDOF 4
ENDMDL
MODEL 6
REMARK VINA RESULT:      -7.6      3.675      6.942
REMARK  Name = 
REMARK  4 active torsions:
REMARK  status: ('A' for Active; 'I' for Inactive)
REMARK    1  A    between atoms: C_2  and  C_26
REMARK    2  A    between atoms: N_3  and  C_4
REMARK    3  A    between atoms: C_8  and  C_9
REMARK    4  A    between atoms: C_15  and  C_16
REMARK                            x       y       z     vdW  Elec       q    Type
REMARK                         _______ _______ _______ _____ _____    ______ ____
ROOT
ATOM      1  C   UNL     1       2.579   6.809  19.825  0.00  0.00    +0.000 C 
ATOM      2  O   UNL     1       3.676   7.183  19.403  0.00  0.00    +0.000 OA
ATOM      3  N   UNL     1       2.303   5.461  19.985  0.00  0.00    +0.000 N 
ATOM      4  C   UNL     1       1.147   4.833  20.598  0.00  0.00    +0.000 C 
ATOM      5  C   UNL     1       1.714   3.637  21.337  0.00  0.00    +0.000 C 
ATOM      6  C   UNL     1       2.886   3.196  20.474  0.00  0.00    +0.000 C 
ATOM      7  C   UNL     1       3.381   4.486  19.796  0.00  0.00    +0.000 C 
ENDROOT
BRANCH   7   8
ATOM      8  C   UNL     1       3.661   4.257  18.347  0.00  0.00    +0.000 A 
ATOM      9  N   UNL     1       2.805   3.795  17.446  0.00  0.00    +0.000 NA
ATOM     10  N   UNL     1       3.479   3.607  16.263  0.00  0.00    +0.000 NA
ATOM     11  C   UNL     1       4.728   3.969  16.448  0.00  0.00    +0.000 A 
ATOM     12  C   UNL     1       5.865   3.962  15.594  0.00  0.00    +0.000 A 
ATOM     13  C   UNL     1       7.055   4.389  16.062  0.00  0.00    +0.000 A 
ATOM     14  C   UNL     1       7.201   4.870  17.427  0.00  0.00    +0.000 A 
ATOM     15  C   UNL     1       6.127   4.872  18.238  0.00  0.00    +0.000 A 
ATOM     16  N   UNL     1       4.899   4.417  17.753  0.00  0.00    +0.000 N 
ENDBRANCH   7   8
BRANCH   1  21
ATOM     17  C   UNL     1      -0.196   9.458  19.976  0.00  0.00    +0.000 A 
ATOM     18  C   UNL     1      -0.136   9.748  21.344  0.00  0.00    +0.000 A 
ATOM     19  C   UNL     1       0.818   9.152  22.163  0.00  0.00    +0.000 A 
ATOM     20  C   UNL     1       1.700   8.223  21.626  0.00  0.00    +0.000 A 
ATOM     21  C   UNL     1       1.618   7.858  20.274  0.00  0.00    +0.000 A 
ATOM     22  C   UNL     1       0.680   8.497  19.444  0.00  0.00    +0.000 A 
BRANCH  17  25
ATOM     23  O   UNL     1       0.067  12.061  18.663  0.00  0.00    +0.000 OA
ATOM     24  C   UNL     1      -0.938  11.362  18.553  0.00  0.00    +0.000 C 
ATOM     25  N   UNL     1      -1.114  10.103  19.113  0.00  0.00    +0.000 N 
ATOM     26  H   UNL     1      -1.936   9.592  18.809  0.00  0.00    +0.000 HD
BRANCH  24  27
ATOM     27  C   UNL     1      -2.095  11.802  17.643  0.00  0.00    +0.000 C 
ATOM     28  C   UNL     1      -3.432  11.602  18.348  0.00  0.00    +0.000 C 
ATOM     29  C   UNL     1      -4.375  11.335  17.209  0.00  0.00    +0.000 C 
ATOM     30  C   UNL     1      -3.493  10.576  16.244  0.00  0.00    +0.000 C 
ATOM     31  O   UNL     1      -2.162  11.094  16.398  0.00  0.00    +0.000 OA
ENDBRANCH  24  27
ENDBRANCH  17  25
ENDBRANCH   1  21
TORSDOF 4
ENDMDL
MODEL 7
REMARK VINA RESULT:      -7.6      3.321     10.108
REMARK  Name = 
REMARK  4 active torsions:
REMARK  status: ('A' for Active; 'I' for Inactive)
REMARK    1  A    between atoms: C_2  and  C_26
REMARK    2  A    between atoms: N_3  and  C_4
REMARK    3  A    between atoms: C_8  and  C_9
REMARK    4  A    between atoms: C_15  and  C_16
REMARK                            x       y       z     vdW  Elec       q    Type
REMARK                         _______ _______ _______ _____ _____    ______ ____
ROOT
ATOM      1  C   UNL     1       0.846   9.295  19.888  0.00  0.00    +0.000 C 
ATOM      2  O   UNL     1       0.089   9.354  20.860  0.00  0.00    +0.000 OA
ATOM      3  N   UNL     1       1.054  10.405  19.084  0.00  0.00    +0.000 N 
ATOM      4  C   UNL     1       2.005  10.581  18.002  0.00  0.00    +0.000 C 
ATOM      5  C   UNL     1       2.478  12.014  18.143  0.00  0.00    +0.000 C 
ATOM      6  C   UNL     1       1.259  12.750  18.678  0.00  0.00    +0.000 C 
ATOM      7  C   UNL     1       0.488  11.694  19.490  0.00  0.00    +0.000 C 
ENDROOT
BRANCH   7   8
ATOM      8  C   UNL     1      -0.977  11.761  19.203  0.00  0.00    +0.000 A 
ATOM      9  N   UNL     1      -1.552  11.595  18.020  0.00  0.00    +0.000 NA
ATOM     10  N   UNL     1      -2.895  11.860  18.150  0.00  0.00    +0.000 NA
ATOM     11  C   UNL     1      -3.127  12.166  19.406  0.00  0.00    +0.000 A 
ATOM     12  C   UNL     1      -4.308  12.551  20.097  0.00  0.00    +0.000 A 
ATOM     13  C   UNL     1      -4.252  12.824  21.416  0.00  0.00    +0.000 A 
ATOM     14  C   UNL     1      -3.003  12.724  22.155  0.00  0.00    +0.000 A 
ATOM     15  C   UNL     1      -1.883  12.366  21.502  0.00  0.00    +0.000 A 
ATOM     16  N   UNL     1      -1.943  12.096  20.132  0.00  0.00    +0.000 N 
ENDBRANCH   7   8
BRANCH   1  21
ATOM     17  C   UNL     1       3.060   6.504  18.456  0.00  0.00    +0.000 A 
ATOM     18  C   UNL     1       3.056   5.645  19.561  0.00  0.00    +0.000 A 
ATOM     19  C   UNL     1       2.304   5.938  20.695  0.00  0.00    +0.000 A 
ATOM     20  C   UNL     1       1.578   7.120  20.752  0.00  0.00    +0.000 A 
ATOM     21  C   UNL     1       1.620   8.036  19.690  0.00  0.00    +0.000 A 
ATOM     22  C   UNL     1       2.346   7.712  18.530  0.00  0.00    +0.000 A 
BRANCH  17  25
ATOM     23  O   UNL     1       5.891   6.941  17.853  0.00  0.00    +0.000 OA
ATOM     24  C   UNL     1       5.105   6.464  17.037  0.00  0.00    +0.000 C 
ATOM     25  N   UNL     1       3.762   6.193  17.268  0.00  0.00    +0.000 N 
ATOM     26  H   UNL     1       3.284   5.664  16.546  0.00  0.00    +0.000 HD
BRANCH  24  27
ATOM     27  C   UNL     1       5.602   6.000  15.659  0.00  0.00    +0.000 C 
ATOM     28  C   UNL     1       5.034   4.626  15.323  0.00  0.00    +0.000 C 
ATOM     29  C   UNL     1       6.101   4.024  14.452  0.00  0.00    +0.000 C 
ATOM     30  C   UNL     1       7.360   4.598  15.060  0.00  0.00    +0.000 C 
ATOM     31  O   UNL     1       7.030   5.906  15.554  0.00  0.00    +0.000 OA
ENDBRANCH  24  27
ENDBRANCH  17  25
ENDBRANCH   1  21
TORSDOF 4
ENDMDL
MODEL 8
REMARK VINA RESULT:      -7.5      3.510      9.770
REMARK  Name = 
REMARK  4 active torsions:
REMARK  status: ('A' for Active; 'I' for Inactive)
REMARK    1  A    between atoms: C_2  and  C_26
REMARK    2  A    between atoms: N_3  and  C_4
REMARK    3  A    between atoms: C_8  and  C_9
REMARK    4  A    between atoms: C_15  and  C_16
REMARK                            x       y       z     vdW  Elec       q    Type
REMARK                         _______ _______ _______ _____ _____    ______ ____
ROOT
ATOM      1  C   UNL     1       0.941   9.330  20.148  0.00  0.00    +0.000 C 
ATOM      2  O   UNL     1       0.331   9.523  21.203  0.00  0.00    +0.000 OA
ATOM      3  N   UNL     1       1.121  10.357  19.235  0.00  0.00    +0.000 N 
ATOM      4  C   UNL     1       1.924  10.373  18.027  0.00  0.00    +0.000 C 
ATOM      5  C   UNL     1       2.522  11.766  17.988  0.00  0.00    +0.000 C 
ATOM      6  C   UNL     1       1.448  12.642  18.616  0.00  0.00    +0.000 C 
ATOM      7  C   UNL     1       0.716  11.717  19.605  0.00  0.00    +0.000 C 
ENDROOT
BRANCH   7   8
ATOM      8  C   UNL     1      -0.764  11.890  19.508  0.00  0.00    +0.000 A 
ATOM      9  N   UNL     1      -1.531  12.564  20.354  0.00  0.00    +0.000 NA
ATOM     10  N   UNL     1      -2.845  12.379  19.990  0.00  0.00    +0.000 NA
ATOM     11  C   UNL     1      -2.864  11.614  18.922  0.00  0.00    +0.000 A 
ATOM     12  C   UNL     1      -3.927  11.081  18.144  0.00  0.00    +0.000 A 
ATOM     13  C   UNL     1      -3.650  10.297  17.082  0.00  0.00    +0.000 A 
ATOM     14  C   UNL     1      -2.279   9.990  16.708  0.00  0.00    +0.000 A 
ATOM     15  C   UNL     1      -1.271  10.488  17.447  0.00  0.00    +0.000 A 
ATOM     16  N   UNL     1      -1.563  11.290  18.554  0.00  0.00    +0.000 N 
ENDBRANCH   7   8
BRANCH   1  21
ATOM     17  C   UNL     1       3.094   6.413  18.886  0.00  0.00    +0.000 A 
ATOM     18  C   UNL     1       2.699   5.443  19.815  0.00  0.00    +0.000 A 
ATOM     19  C   UNL     1       1.720   5.716  20.766  0.00  0.00    +0.000 A 
ATOM     20  C   UNL     1       1.153   6.982  20.824  0.00  0.00    +0.000 A 
ATOM     21  C   UNL     1       1.580   7.997  19.953  0.00  0.00    +0.000 A 
ATOM     22  C   UNL     1       2.538   7.701  18.967  0.00  0.00    +0.000 A 
BRANCH  17  25
ATOM     23  O   UNL     1       5.890   5.596  19.178  0.00  0.00    +0.000 OA
ATOM     24  C   UNL     1       5.366   5.787  18.082  0.00  0.00    +0.000 C 
ATOM     25  N   UNL     1       4.038   6.136  17.869  0.00  0.00    +0.000 N 
ATOM     26  H   UNL     1       3.721   6.111  16.906  0.00  0.00    +0.000 HD
BRANCH  24  27
ATOM     27  C   UNL     1       6.154   5.529  16.789  0.00  0.00    +0.000 C 
ATOM     28  C   UNL     1       5.297   5.853  15.570  0.00  0.00    +0.000 C 
ATOM     29  C   UNL     1       5.826   4.910  14.526  0.00  0.00    +0.000 C 
ATOM     30  C   UNL     1       6.183   3.697  15.355  0.00  0.00    +0.000 C 
ATOM     31  O   UNL     1       6.608   4.177  16.640  0.00  0.00    +0.000 OA
ENDBRANCH  24  27
ENDBRANCH  17  25
ENDBRANCH   1  21
TORSDOF 4
ENDMDL
MODEL 9
REMARK VINA RESULT:      -7.5      4.362     10.157
REMARK  Name = 
REMARK  4 active torsions:
REMARK  status: ('A' for Active; 'I' for Inactive)
REMARK    1  A    between atoms: C_2  and  C_26
REMARK    2  A    between atoms: N_3  and  C_4
REMARK    3  A    between atoms: C_8  and  C_9
REMARK    4  A    between atoms: C_15  and  C_16
REMARK                            x       y       z     vdW  Elec       q    Type
REMARK                         _______ _______ _______ _____ _____    ______ ____
ROOT
ATOM      1  C   UNL     1       1.013   9.293  19.948  0.00  0.00    +0.000 C 
ATOM      2  O   UNL     1       0.649   9.883  18.928  0.00  0.00    +0.000 OA
ATOM      3  N   UNL     1       0.710   9.796  21.204  0.00  0.00    +0.000 N 
ATOM      4  C   UNL     1       0.914   9.185  22.504  0.00  0.00    +0.000 C 
ATOM      5  C   UNL     1      -0.312   9.580  23.304  0.00  0.00    +0.000 C 
ATOM      6  C   UNL     1      -0.666  10.960  22.772  0.00  0.00    +0.000 C 
ATOM      7  C   UNL     1      -0.183  10.953  21.310  0.00  0.00    +0.000 C 
ENDROOT
BRANCH   7   8
ATOM      8  C   UNL     1       0.528  12.223  20.974  0.00  0.00    +0.000 A 
ATOM      9  N   UNL     1       1.841  12.405  20.955  0.00  0.00    +0.000 NA
ATOM     10  N   UNL     1       2.092  13.737  20.725  0.00  0.00    +0.000 NA
ATOM     11  C   UNL     1       0.936  14.348  20.590  0.00  0.00    +0.000 A 
ATOM     12  C   UNL     1       0.592  15.709  20.370  0.00  0.00    +0.000 A 
ATOM     13  C   UNL     1      -0.707  16.064  20.282  0.00  0.00    +0.000 A 
ATOM     14  C   UNL     1      -1.768  15.076  20.397  0.00  0.00    +0.000 A 
ATOM     15  C   UNL     1      -1.444  13.788  20.611  0.00  0.00    +0.000 A 
ATOM     16  N   UNL     1      -0.098  13.427  20.714  0.00  0.00    +0.000 N 
ENDBRANCH   7   8
BRANCH   1  21
ATOM     17  C   UNL     1       3.204   6.381  18.740  0.00  0.00    +0.000 A 
ATOM     18  C   UNL     1       2.833   5.428  19.696  0.00  0.00    +0.000 A 
ATOM     19  C   UNL     1       1.857   5.709  20.648  0.00  0.00    +0.000 A 
ATOM     20  C   UNL     1       1.269   6.967  20.680  0.00  0.00    +0.000 A 
ATOM     21  C   UNL     1       1.673   7.966  19.781  0.00  0.00    +0.000 A 
ATOM     22  C   UNL     1       2.627   7.661  18.794  0.00  0.00    +0.000 A 
BRANCH  17  25
ATOM     23  O   UNL     1       6.046   5.738  19.022  0.00  0.00    +0.000 OA
ATOM     24  C   UNL     1       5.493   5.832  17.928  0.00  0.00    +0.000 C 
ATOM     25  N   UNL     1       4.144   6.094  17.723  0.00  0.00    +0.000 N 
ATOM     26  H   UNL     1       3.812   5.993  16.769  0.00  0.00    +0.000 HD
BRANCH  24  27
ATOM     27  C   UNL     1       6.271   5.539  16.636  0.00  0.00    +0.000 C 
ATOM     28  C   UNL     1       5.401   5.818  15.416  0.00  0.00    +0.000 C 
ATOM     29  C   UNL     1       5.928   4.846  14.398  0.00  0.00    +0.000 C 
ATOM     30  C   UNL     1       6.301   3.663  15.261  0.00  0.00    +0.000 C 
ATOM     31  O   UNL     1       6.734   4.186  16.527  0.00  0.00    +0.000 OA
ENDBRANCH  24  27
ENDBRANCH  17  25
ENDBRANCH   1  21
TORSDOF 4
ENDMDL
