MODEL 1
REMARK VINA RESULT:      -9.1      0.000      0.000
REMARK  Name = 
REMARK  4 active torsions:
REMARK  status: ('A' for Active; 'I' for Inactive)
REMARK    1  A    between atoms: C_7  and  C_8
REMARK    2  A    between atoms: C_8  and  C_9
REMARK    3  A    between atoms: C_13  and  N_14
REMARK    4  A    between atoms: C_21  and  C_22
REMARK                            x       y       z     vdW  Elec       q    Type
REMARK                         _______ _______ _______ _____ _____    ______ ____
ROOT
ATOM      1  C   UNL     1       4.162   4.957  17.470  0.00  0.00    +0.000 A 
ATOM      2  C   UNL     1       3.315   3.849  17.627  0.00  0.00    +0.000 A 
ATOM      3  C   UNL     1       2.025   4.017  18.099  0.00  0.00    +0.000 A 
ATOM      4  C   UNL     1       1.588   5.286  18.465  0.00  0.00    +0.000 A 
ATOM      5  C   UNL     1       2.426   6.410  18.395  0.00  0.00    +0.000 A 
ATOM      6  C   UNL     1       3.694   6.248  17.819  0.00  0.00    +0.000 A 
ENDROOT
BRANCH   5   7
ATOM      7  N   UNL     1       1.989   7.628  18.984  0.00  0.00    +0.000 N 
ATOM      8  C   UNL     1       1.352   7.770  20.293  0.00  0.00    +0.000 C 
ATOM      9  C   UNL     1       0.968   9.228  20.327  0.00  0.00    +0.000 A 
ATOM     10  C   UNL     1       1.304   9.808  19.114  0.00  0.00    +0.000 A 
ATOM     11  C   UNL     1       1.021  11.117  18.819  0.00  0.00    +0.000 A 
ATOM     12  N   UNL     1       0.411  11.910  19.722  0.00  0.00    +0.000 NA
ATOM     13  C   UNL     1       0.100  11.352  20.925  0.00  0.00    +0.000 A 
ATOM     14  C   UNL     1       0.354  10.021  21.288  0.00  0.00    +0.000 A 
ATOM     15  C   UNL     1       1.947   8.829  18.268  0.00  0.00    +0.000 C 
ATOM     16  O   UNL     1       2.296   9.110  17.134  0.00  0.00    +0.000 OA
BRANCH  14  17
ATOM     17  C   UNL     1      -0.028   9.575  22.659  0.00  0.00    +0.000 C 
ATOM     18  F   UNL     1      -0.871   8.509  22.662  0.00  0.00    +0.000 F 
ATOM     19  F   UNL     1       1.051   9.203  23.400  0.00  0.00    +0.000 F 
ATOM     20  F   UNL     1      -0.652  10.552  23.371  0.00  0.00    +0.000 F 
ENDBRANCH  14  17
ENDBRANCH   5   7
BRANCH   1  21
ATOM     21  C   UNL     1       5.548   4.723  16.907  0.00  0.00    +0.000 C 
BRANCH  21  28
ATOM     22  O   UNL     1       7.871   5.486  20.526  0.00  0.00    +0.000 OA
ATOM     23  C   UNL     1       7.187   5.160  19.560  0.00  0.00    +0.000 C 
ATOM     24  N   UNL     1       7.228   5.939  18.417  0.00  0.00    +0.000 N 
ATOM     25  C   UNL     1       7.990   7.064  18.234  0.00  0.00    +0.000 A 
ATOM     26  N   UNL     1       7.834   7.530  17.019  0.00  0.00    +0.000 NA
ATOM     27  N   UNL     1       6.929   6.724  16.383  0.00  0.00    +0.000 NA
ATOM     28  C   UNL     1       6.544   5.785  17.225  0.00  0.00    +0.000 A 
ENDBRANCH  21  28
ENDBRANCH   1  21
TORSDOF 4
ENDMDL
MODEL 2
REMARK VINA RESULT:      -9.0      2.537      3.628
REMARK  Name = 
REMARK  4 active torsions:
REMARK  status: ('A' for Active; 'I' for Inactive)
REMARK    1  A    between atoms: C_7  and  C_8
REMARK    2  A    between atoms: C_8  and  C_9
REMARK    3  A    between atoms: C_13  and  N_14
REMARK    4  A    between atoms: C_21  and  C_22
REMARK                            x       y       z     vdW  Elec       q    Type
REMARK                         _______ _______ _______ _____ _____    ______ ____
ROOT
ATOM      1  C   UNL     1       2.922   4.824  18.048  0.00  0.00    +0.000 A 
ATOM      2  C   UNL     1       3.899   5.135  17.089  0.00  0.00    +0.000 A 
ATOM      3  C   UNL     1       4.320   6.443  16.921  0.00  0.00    +0.000 A 
ATOM      4  C   UNL     1       3.733   7.455  17.673  0.00  0.00    +0.000 A 
ATOM      5  C   UNL     1       2.701   7.198  18.590  0.00  0.00    +0.000 A 
ATOM      6  C   UNL     1       2.354   5.860  18.829  0.00  0.00    +0.000 A 
ENDROOT
BRANCH   5   7
ATOM      7  N   UNL     1       2.003   8.297  19.162  0.00  0.00    +0.000 N 
ATOM      8  C   UNL     1       1.330   8.304  20.461  0.00  0.00    +0.000 C 
ATOM      9  C   UNL     1       0.641   9.646  20.477  0.00  0.00    +0.000 A 
ATOM     10  C   UNL     1       0.864  10.279  19.264  0.00  0.00    +0.000 A 
ATOM     11  C   UNL     1       0.311  11.495  18.954  0.00  0.00    +0.000 A 
ATOM     12  N   UNL     1      -0.469  12.143  19.841  0.00  0.00    +0.000 NA
ATOM     13  C   UNL     1      -0.672  11.537  21.044  0.00  0.00    +0.000 A 
ATOM     14  C   UNL     1      -0.144  10.294  21.422  0.00  0.00    +0.000 A 
ATOM     15  C   UNL     1       1.715   9.456  18.436  0.00  0.00    +0.000 C 
ATOM     16  O   UNL     1       2.014   9.800  17.305  0.00  0.00    +0.000 OA
BRANCH  14  17
ATOM     17  C   UNL     1      -0.443   9.783  22.792  0.00  0.00    +0.000 C 
ATOM     18  F   UNL     1      -1.069   8.576  22.790  0.00  0.00    +0.000 F 
ATOM     19  F   UNL     1       0.682   9.622  23.539  0.00  0.00    +0.000 F 
ATOM     20  F   UNL     1      -1.246  10.624  23.498  0.00  0.00    +0.000 F 
ENDBRANCH  14  17
ENDBRANCH   5   7
BRANCH   1  21
ATOM     21  C   UNL     1       2.531   3.372  18.223  0.00  0.00    +0.000 C 
BRANCH  21  28
ATOM     22  O   UNL     1       5.207   1.659  21.219  0.00  0.00    +0.000 OA
ATOM     23  C   UNL     1       4.559   2.165  20.308  0.00  0.00    +0.000 C 
ATOM     24  N   UNL     1       3.210   2.412  20.503  0.00  0.00    +0.000 N 
ATOM     25  C   UNL     1       2.502   2.163  21.650  0.00  0.00    +0.000 A 
ATOM     26  N   UNL     1       1.262   2.565  21.518  0.00  0.00    +0.000 NA
ATOM     27  N   UNL     1       1.125   3.065  20.251  0.00  0.00    +0.000 NA
ATOM     28  C   UNL     1       2.283   2.952  19.631  0.00  0.00    +0.000 A 
ENDBRANCH  21  28
ENDBRANCH   1  21
TORSDOF 4
ENDMDL
MODEL 3
REMARK VINA RESULT:      -8.9      1.058      1.617
REMARK  Name = 
REMARK  4 active torsions:
REMARK  status: ('A' for Active; 'I' for Inactive)
REMARK    1  A    between atoms: C_7  and  C_8
REMARK    2  A    between atoms: C_8  and  C_9
REMARK    3  A    between atoms: C_13  and  N_14
REMARK    4  A    between atoms: C_21  and  C_22
REMARK                            x       y       z     vdW  Elec       q    Type
REMARK                         _______ _______ _______ _____ _____    ______ ____
ROOT
ATOM      1  C   UNL     1       4.186   5.225  17.437  0.00  0.00    +0.000 A 
ATOM      2  C   UNL     1       3.301   4.136  17.429  0.00  0.00    +0.000 A 
ATOM      3  C   UNL     1       1.978   4.308  17.794  0.00  0.00    +0.000 A 
ATOM      4  C   UNL     1       1.541   5.559  18.219  0.00  0.00    +0.000 A 
ATOM      5  C   UNL     1       2.409   6.658  18.314  0.00  0.00    +0.000 A 
ATOM      6  C   UNL     1       3.721   6.500  17.843  0.00  0.00    +0.000 A 
ENDROOT
BRANCH   5   7
ATOM      7  N   UNL     1       1.950   7.841  18.956  0.00  0.00    +0.000 N 
ATOM      8  C   UNL     1       1.325   7.914  20.277  0.00  0.00    +0.000 C 
ATOM      9  C   UNL     1       0.906   9.360  20.373  0.00  0.00    +0.000 A 
ATOM     10  C   UNL     1       1.214   9.996  19.180  0.00  0.00    +0.000 A 
ATOM     11  C   UNL     1       0.896  11.308  18.941  0.00  0.00    +0.000 A 
ATOM     12  N   UNL     1       0.278  12.050  19.881  0.00  0.00    +0.000 NA
ATOM     13  C   UNL     1      -0.005  11.437  21.064  0.00  0.00    +0.000 A 
ATOM     14  C   UNL     1       0.285  10.100  21.371  0.00  0.00    +0.000 A 
ATOM     15  C   UNL     1       1.870   9.067  18.289  0.00  0.00    +0.000 C 
ATOM     16  O   UNL     1       2.198   9.401  17.163  0.00  0.00    +0.000 OA
BRANCH  14  17
ATOM     17  C   UNL     1      -0.069   9.591  22.728  0.00  0.00    +0.000 C 
ATOM     18  F   UNL     1       1.015   9.244  23.472  0.00  0.00    +0.000 F 
ATOM     19  F   UNL     1      -0.750  10.512  23.463  0.00  0.00    +0.000 F 
ATOM     20  F   UNL     1      -0.862   8.488  22.680  0.00  0.00    +0.000 F 
ENDBRANCH  14  17
ENDBRANCH   5   7
BRANCH   1  21
ATOM     21  C   UNL     1       5.612   4.991  16.985  0.00  0.00    +0.000 C 
BRANCH  21  28
ATOM     22  O   UNL     1       7.960   8.650  17.400  0.00  0.00    +0.000 OA
ATOM     23  C   UNL     1       7.228   7.685  17.200  0.00  0.00    +0.000 C 
ATOM     24  N   UNL     1       7.349   6.572  18.015  0.00  0.00    +0.000 N 
ATOM     25  C   UNL     1       8.214   6.435  19.070  0.00  0.00    +0.000 A 
ATOM     26  N   UNL     1       8.033   5.281  19.663  0.00  0.00    +0.000 NA
ATOM     27  N   UNL     1       7.052   4.616  18.977  0.00  0.00    +0.000 NA
ATOM     28  C   UNL     1       6.657   5.376  17.974  0.00  0.00    +0.000 A 
ENDBRANCH  21  28
ENDBRANCH   1  21
TORSDOF 4
ENDMDL
MODEL 4
REMARK VINA RESULT:      -8.8      2.702      4.065
REMARK  Name = 
REMARK  4 active torsions:
REMARK  status: ('A' for Active; 'I' for Inactive)
REMARK    1  A    between atoms: C_7  and  C_8
REMARK    2  A    between atoms: C_8  and  C_9
REMARK    3  A    between atoms: C_13  and  N_14
REMARK    4  A    between atoms: C_21  and  C_22
REMARK                            x       y       z     vdW  Elec       q    Type
REMARK                         _______ _______ _______ _____ _____    ______ ____
ROOT
ATOM      1  C   UNL     1       4.041   4.771  18.671  0.00  0.00    +0.000 A 
ATOM      2  C   UNL     1       4.609   4.978  17.404  0.00  0.00    +0.000 A 
ATOM      3  C   UNL     1       4.522   6.217  16.794  0.00  0.00    +0.000 A 
ATOM      4  C   UNL     1       3.825   7.244  17.421  0.00  0.00    +0.000 A 
ATOM      5  C   UNL     1       3.178   7.059  18.654  0.00  0.00    +0.000 A 
ATOM      6  C   UNL     1       3.359   5.834  19.312  0.00  0.00    +0.000 A 
ENDROOT
BRANCH   5   7
ATOM      7  N   UNL     1       2.310   8.078  19.132  0.00  0.00    +0.000 N 
ATOM      8  C   UNL     1       1.653   8.104  20.439  0.00  0.00    +0.000 C 
ATOM      9  C   UNL     1       0.748   9.307  20.339  0.00  0.00    +0.000 A 
ATOM     10  C   UNL     1       0.854   9.843  19.065  0.00  0.00    +0.000 A 
ATOM     11  C   UNL     1       0.102  10.912  18.649  0.00  0.00    +0.000 A 
ATOM     12  N   UNL     1      -0.771  11.507  19.487  0.00  0.00    +0.000 NA
ATOM     13  C   UNL     1      -0.861  11.000  20.748  0.00  0.00    +0.000 A 
ATOM     14  C   UNL     1      -0.129   9.907  21.234  0.00  0.00    +0.000 A 
ATOM     15  C   UNL     1       1.826   9.095  18.302  0.00  0.00    +0.000 C 
ATOM     16  O   UNL     1       2.055   9.367  17.136  0.00  0.00    +0.000 OA
BRANCH  14  17
ATOM     17  C   UNL     1      -0.329   9.494  22.653  0.00  0.00    +0.000 C 
ATOM     18  F   UNL     1      -1.097  10.364  23.362  0.00  0.00    +0.000 F 
ATOM     19  F   UNL     1      -0.940   8.283  22.757  0.00  0.00    +0.000 F 
ATOM     20  F   UNL     1       0.843   9.384  23.334  0.00  0.00    +0.000 F 
ENDBRANCH  14  17
ENDBRANCH   5   7
BRANCH   1  21
ATOM     21  C   UNL     1       4.203   3.410  19.313  0.00  0.00    +0.000 C 
BRANCH  21  28
ATOM     22  O   UNL     1       0.110   2.148  18.461  0.00  0.00    +0.000 OA
ATOM     23  C   UNL     1       1.283   2.490  18.576  0.00  0.00    +0.000 C 
ATOM     24  N   UNL     1       1.820   2.623  19.845  0.00  0.00    +0.000 N 
ATOM     25  C   UNL     1       1.167   2.386  21.026  0.00  0.00    +0.000 A 
ATOM     26  N   UNL     1       1.980   2.553  22.041  0.00  0.00    +0.000 NA
ATOM     27  N   UNL     1       3.193   2.938  21.535  0.00  0.00    +0.000 NA
ATOM     28  C   UNL     1       3.094   3.006  20.222  0.00  0.00    +0.000 A 
ENDBRANCH  21  28
ENDBRANCH   1  21
TORSDOF 4
ENDMDL
MODEL 5
REMARK VINA RESULT:      -8.7      2.624      3.580
REMARK  Name = 
REMARK  4 active torsions:
REMARK  status: ('A' for Active; 'I' for Inactive)
REMARK    1  A    between atoms: C_7  and  C_8
REMARK    2  A    between atoms: C_8  and  C_9
REMARK    3  A    between atoms: C_13  and  N_14
REMARK    4  A    between atoms: C_21  and  C_22
REMARK                            x       y       z     vdW  Elec       q    Type
REMARK                         _______ _______ _______ _____ _____    ______ ____
ROOT
ATOM      1  C   UNL     1       3.282   4.731  18.019  0.00  0.00    +0.000 A 
ATOM      2  C   UNL     1       4.233   5.092  17.053  0.00  0.00    +0.000 A 
ATOM      3  C   UNL     1       4.564   6.423  16.862  0.00  0.00    +0.000 A 
ATOM      4  C   UNL     1       3.912   7.405  17.599  0.00  0.00    +0.000 A 
ATOM      5  C   UNL     1       2.901   7.094  18.523  0.00  0.00    +0.000 A 
ATOM      6  C   UNL     1       2.646   5.739  18.784  0.00  0.00    +0.000 A 
ENDROOT
BRANCH   5   7
ATOM      7  N   UNL     1       2.131   8.152  19.080  0.00  0.00    +0.000 N 
ATOM      8  C   UNL     1       1.472   8.139  20.386  0.00  0.00    +0.000 C 
ATOM      9  C   UNL     1       0.688   9.428  20.380  0.00  0.00    +0.000 A 
ATOM     10  C   UNL     1       0.853  10.049  19.152  0.00  0.00    +0.000 A 
ATOM     11  C   UNL     1       0.211  11.215  18.822  0.00  0.00    +0.000 A 
ATOM     12  N   UNL     1      -0.605  11.824  19.704  0.00  0.00    +0.000 NA
ATOM     13  C   UNL     1      -0.752  11.232  20.923  0.00  0.00    +0.000 A 
ATOM     14  C   UNL     1      -0.133  10.039  21.321  0.00  0.00    +0.000 A 
ATOM     15  C   UNL     1       1.753   9.271  18.332  0.00  0.00    +0.000 C 
ATOM     16  O   UNL     1       2.016   9.610  17.191  0.00  0.00    +0.000 OA
BRANCH  14  17
ATOM     17  C   UNL     1      -0.381   9.538  22.704  0.00  0.00    +0.000 C 
ATOM     18  F   UNL     1      -1.196  10.349  23.430  0.00  0.00    +0.000 F 
ATOM     19  F   UNL     1      -0.969   8.311  22.711  0.00  0.00    +0.000 F 
ATOM     20  F   UNL     1       0.765   9.410  23.425  0.00  0.00    +0.000 F 
ENDBRANCH  14  17
ENDBRANCH   5   7
BRANCH   1  21
ATOM     21  C   UNL     1       2.989   3.259  18.218  0.00  0.00    +0.000 C 
BRANCH  21  28
ATOM     22  O   UNL     1       1.186   2.578  22.137  0.00  0.00    +0.000 OA
ATOM     23  C   UNL     1       1.576   2.794  20.994  0.00  0.00    +0.000 C 
ATOM     24  N   UNL     1       2.888   2.499  20.667  0.00  0.00    +0.000 N 
ATOM     25  C   UNL     1       3.826   1.956  21.505  0.00  0.00    +0.000 A 
ATOM     26  N   UNL     1       4.952   1.754  20.864  0.00  0.00    +0.000 NA
ATOM     27  N   UNL     1       4.778   2.198  19.581  0.00  0.00    +0.000 NA
ATOM     28  C   UNL     1       3.552   2.669  19.465  0.00  0.00    +0.000 A 
ENDBRANCH  21  28
ENDBRANCH   1  21
TORSDOF 4
ENDMDL
MODEL 6
REMARK VINA RESULT:      -8.7      2.167      2.603
REMARK  Name = 
REMARK  4 active torsions:
REMARK  status: ('A' for Active; 'I' for Inactive)
REMARK    1  A    between atoms: C_7  and  C_8
REMARK    2  A    between atoms: C_8  and  C_9
REMARK    3  A    between atoms: C_13  and  N_14
REMARK    4  A    between atoms: C_21  and  C_22
REMARK                            x       y       z     vdW  Elec       q    Type
REMARK                         _______ _______ _______ _____ _____    ______ ____
ROOT
ATOM      1  C   UNL     1       4.390   4.793  17.176  0.00  0.00    +0.000 A 
ATOM      2  C   UNL     1       3.593   3.642  17.077  0.00  0.00    +0.000 A 
ATOM      3  C   UNL     1       2.265   3.676  17.465  0.00  0.00    +0.000 A 
ATOM      4  C   UNL     1       1.737   4.846  18.001  0.00  0.00    +0.000 A 
ATOM      5  C   UNL     1       2.517   5.999  18.187  0.00  0.00    +0.000 A 
ATOM      6  C   UNL     1       3.831   5.987  17.695  0.00  0.00    +0.000 A 
ENDROOT
BRANCH   5   7
ATOM      7  N   UNL     1       1.975   7.081  18.933  0.00  0.00    +0.000 N 
ATOM      8  C   UNL     1       1.776   8.446  18.445  0.00  0.00    +0.000 C 
ATOM      9  C   UNL     1       1.334   9.185  19.684  0.00  0.00    +0.000 A 
ATOM     10  C   UNL     1       1.359   8.313  20.760  0.00  0.00    +0.000 A 
ATOM     11  C   UNL     1       1.066   8.711  22.039  0.00  0.00    +0.000 A 
ATOM     12  N   UNL     1       0.716   9.986  22.300  0.00  0.00    +0.000 NA
ATOM     13  C   UNL     1       0.665  10.842  21.242  0.00  0.00    +0.000 A 
ATOM     14  C   UNL     1       0.959  10.503  19.913  0.00  0.00    +0.000 A 
ATOM     15  C   UNL     1       1.751   6.997  20.310  0.00  0.00    +0.000 C 
ATOM     16  O   UNL     1       1.877   6.075  21.098  0.00  0.00    +0.000 OA
BRANCH  14  17
ATOM     17  C   UNL     1       0.828  11.558  18.867  0.00  0.00    +0.000 C 
ATOM     18  F   UNL     1       1.913  11.643  18.052  0.00  0.00    +0.000 F 
ATOM     19  F   UNL     1      -0.240  11.345  18.050  0.00  0.00    +0.000 F 
ATOM     20  F   UNL     1       0.654  12.798  19.395  0.00  0.00    +0.000 F 
ENDBRANCH  14  17
ENDBRANCH   5   7
BRANCH   1  21
ATOM     21  C   UNL     1       5.823   4.713  16.695  0.00  0.00    +0.000 C 
BRANCH  21  28
ATOM     22  O   UNL     1       7.846   5.422  20.501  0.00  0.00    +0.000 OA
ATOM     23  C   UNL     1       7.253   5.106  19.473  0.00  0.00    +0.000 C 
ATOM     24  N   UNL     1       7.295   5.961  18.386  0.00  0.00    +0.000 N 
ATOM     25  C   UNL     1       7.965   7.156  18.324  0.00  0.00    +0.000 A 
ATOM     26  N   UNL     1       7.843   7.688  17.133  0.00  0.00    +0.000 NA
ATOM     27  N   UNL     1       7.052   6.853  16.389  0.00  0.00    +0.000 NA
ATOM     28  C   UNL     1       6.701   5.831  17.144  0.00  0.00    +0.000 A 
ENDBRANCH  21  28
ENDBRANCH   1  21
TORSDOF 4
ENDMDL
MODEL 7
REMARK VINA RESULT:      -8.6      2.627      3.908
REMARK  Name = 
REMARK  4 active torsions:
REMARK  status: ('A' for Active; 'I' for Inactive)
REMARK    1  A    between atoms: C_7  and  C_8
REMARK    2  A    between atoms: C_8  and  C_9
REMARK    3  A    between atoms: C_13  and  N_14
REMARK    4  A    between atoms: C_21  and  C_22
REMARK                            x       y       z     vdW  Elec       q    Type
REMARK                         _______ _______ _______ _____ _____    ______ ____
ROOT
ATOM      1  C   UNL     1       3.791   4.976  18.109  0.00  0.00    +0.000 A 
ATOM      2  C   UNL     1       4.562   5.370  17.004  0.00  0.00    +0.000 A 
ATOM      3  C   UNL     1       4.661   6.707  16.663  0.00  0.00    +0.000 A 
ATOM      4  C   UNL     1       3.950   7.656  17.391  0.00  0.00    +0.000 A 
ATOM      5  C   UNL     1       3.108   7.298  18.457  0.00  0.00    +0.000 A 
ATOM      6  C   UNL     1       3.095   5.955  18.860  0.00  0.00    +0.000 A 
ENDROOT
BRANCH   5   7
ATOM      7  N   UNL     1       2.251   8.286  19.014  0.00  0.00    +0.000 N 
ATOM      8  C   UNL     1       1.590   8.213  20.317  0.00  0.00    +0.000 C 
ATOM      9  C   UNL     1       0.701   9.432  20.314  0.00  0.00    +0.000 A 
ATOM     10  C   UNL     1       0.818  10.069  19.088  0.00  0.00    +0.000 A 
ATOM     11  C   UNL     1       0.081  11.178  18.760  0.00  0.00    +0.000 A 
ATOM     12  N   UNL     1      -0.786  11.714  19.641  0.00  0.00    +0.000 NA
ATOM     13  C   UNL     1      -0.887  11.107  20.857  0.00  0.00    +0.000 A 
ATOM     14  C   UNL     1      -0.171   9.968  21.253  0.00  0.00    +0.000 A 
ATOM     15  C   UNL     1       1.782   9.373  18.269  0.00  0.00    +0.000 C 
ATOM     16  O   UNL     1       2.019   9.737  17.129  0.00  0.00    +0.000 OA
BRANCH  14  17
ATOM     17  C   UNL     1      -0.381   9.444  22.634  0.00  0.00    +0.000 C 
ATOM     18  F   UNL     1       0.769   9.352  23.354  0.00  0.00    +0.000 F 
ATOM     19  F   UNL     1      -1.219  10.230  23.363  0.00  0.00    +0.000 F 
ATOM     20  F   UNL     1      -0.931   8.200  22.641  0.00  0.00    +0.000 F 
ENDBRANCH  14  17
ENDBRANCH   5   7
BRANCH   1  21
ATOM     21  C   UNL     1       3.753   3.505  18.465  0.00  0.00    +0.000 C 
BRANCH  21  28
ATOM     22  O   UNL     1       1.783   2.672  22.274  0.00  0.00    +0.000 OA
ATOM     23  C   UNL     1       2.426   2.967  21.270  0.00  0.00    +0.000 C 
ATOM     24  N   UNL     1       1.867   2.735  20.025  0.00  0.00    +0.000 N 
ATOM     25  C   UNL     1       0.624   2.211  19.784  0.00  0.00    +0.000 A 
ATOM     26  N   UNL     1       0.384   2.174  18.496  0.00  0.00    +0.000 NA
ATOM     27  N   UNL     1       1.497   2.652  17.858  0.00  0.00    +0.000 NA
ATOM     28  C   UNL     1       2.398   2.966  18.769  0.00  0.00    +0.000 A 
ENDBRANCH  21  28
ENDBRANCH   1  21
TORSDOF 4
ENDMDL
MODEL 8
REMARK VINA RESULT:      -8.6      1.590      1.860
REMARK  Name = 
REMARK  4 active torsions:
REMARK  status: ('A' for Active; 'I' for Inactive)
REMARK    1  A    between atoms: C_7  and  C_8
REMARK    2  A    between atoms: C_8  and  C_9
REMARK    3  A    between atoms: C_13  and  N_14
REMARK    4  A    between atoms: C_21  and  C_22
REMARK                            x       y       z     vdW  Elec       q    Type
REMARK                         _______ _______ _______ _____ _____    ______ ____
ROOT
ATOM      1  C   UNL     1       4.105   4.232  19.230  0.00  0.00    +0.000 A 
ATOM      2  C   UNL     1       3.240   3.196  19.616  0.00  0.00    +0.000 A 
ATOM      3  C   UNL     1       1.934   3.476  19.982  0.00  0.00    +0.000 A 
ATOM      4  C   UNL     1       1.499   4.797  20.012  0.00  0.00    +0.000 A 
ATOM      5  C   UNL     1       2.351   5.870  19.705  0.00  0.00    +0.000 A 
ATOM      6  C   UNL     1       3.639   5.570  19.237  0.00  0.00    +0.000 A 
ENDROOT
BRANCH   5   7
ATOM      7  N   UNL     1       1.906   7.195  19.964  0.00  0.00    +0.000 N 
ATOM      8  C   UNL     1       1.182   7.641  21.154  0.00  0.00    +0.000 C 
ATOM      9  C   UNL     1       0.834   9.071  20.822  0.00  0.00    +0.000 A 
ATOM     10  C   UNL     1       1.271   9.352  19.537  0.00  0.00    +0.000 A 
ATOM     11  C   UNL     1       1.043  10.559  18.928  0.00  0.00    +0.000 A 
ATOM     12  N   UNL     1       0.392  11.545  19.576  0.00  0.00    +0.000 NA
ATOM     13  C   UNL     1      -0.018  11.283  20.849  0.00  0.00    +0.000 A 
ATOM     14  C   UNL     1       0.175  10.071  21.527  0.00  0.00    +0.000 A 
ATOM     15  C   UNL     1       1.945   8.197  18.990  0.00  0.00    +0.000 C 
ATOM     16  O   UNL     1       2.381   8.205  17.851  0.00  0.00    +0.000 OA
BRANCH  14  17
ATOM     17  C   UNL     1      -0.314   9.958  22.931  0.00  0.00    +0.000 C 
ATOM     18  F   UNL     1      -1.255   8.990  23.096  0.00  0.00    +0.000 F 
ATOM     19  F   UNL     1       0.687   9.661  23.804  0.00  0.00    +0.000 F 
ATOM     20  F   UNL     1      -0.875  11.111  23.382  0.00  0.00    +0.000 F 
ENDBRANCH  14  17
ENDBRANCH   5   7
BRANCH   1  21
ATOM     21  C   UNL     1       5.508   3.867  18.797  0.00  0.00    +0.000 C 
BRANCH  21  28
ATOM     22  O   UNL     1       5.738   6.394  15.242  0.00  0.00    +0.000 OA
ATOM     23  C   UNL     1       5.565   5.637  16.194  0.00  0.00    +0.000 C 
ATOM     24  N   UNL     1       6.382   5.762  17.305  0.00  0.00    +0.000 N 
ATOM     25  C   UNL     1       7.384   6.682  17.470  0.00  0.00    +0.000 A 
ATOM     26  N   UNL     1       7.924   6.562  18.659  0.00  0.00    +0.000 NA
ATOM     27  N   UNL     1       7.296   5.523  19.292  0.00  0.00    +0.000 NA
ATOM     28  C   UNL     1       6.389   5.024  18.474  0.00  0.00    +0.000 A 
ENDBRANCH  21  28
ENDBRANCH   1  21
TORSDOF 4
ENDMDL
MODEL 9
REMARK VINA RESULT:      -8.5      2.094      2.512
REMARK  Name = 
REMARK  4 active torsions:
REMARK  status: ('A' for Active; 'I' for Inactive)
REMARK    1  A    between atoms: C_7  and  C_8
REMARK    2  A    between atoms: C_8  and  C_9
REMARK    3  A    between atoms: C_13  and  N_14
REMARK    4  A    between atoms: C_21  and  C_22
REMARK                            x       y       z     vdW  Elec       q    Type
REMARK                         _______ _______ _______ _____ _____    ______ ____
ROOT
ATOM      1  C   UNL     1       3.799   4.290  17.645  0.00  0.00    +0.000 A 
ATOM      2  C   UNL     1       4.023   3.423  18.726  0.00  0.00    +0.000 A 
ATOM      3  C   UNL     1       3.540   3.737  19.985  0.00  0.00    +0.000 A 
ATOM      4  C   UNL     1       2.874   4.942  20.183  0.00  0.00    +0.000 A 
ATOM      5  C   UNL     1       2.693   5.872  19.147  0.00  0.00    +0.000 A 
ATOM      6  C   UNL     1       3.093   5.500  17.855  0.00  0.00    +0.000 A 
ENDROOT
BRANCH   5   7
ATOM      7  N   UNL     1       2.199   7.166  19.466  0.00  0.00    +0.000 N 
ATOM      8  C   UNL     1       1.483   7.535  20.688  0.00  0.00    +0.000 C 
ATOM      9  C   UNL     1       1.069   8.961  20.419  0.00  0.00    +0.000 A 
ATOM     10  C   UNL     1       1.464   9.309  19.137  0.00  0.00    +0.000 A 
ATOM     11  C   UNL     1       1.174  10.528  18.581  0.00  0.00    +0.000 A 
ATOM     12  N   UNL     1       0.496  11.460  19.280  0.00  0.00    +0.000 NA
ATOM     13  C   UNL     1       0.126  11.133  20.550  0.00  0.00    +0.000 A 
ATOM     14  C   UNL     1       0.384   9.904  21.175  0.00  0.00    +0.000 A 
ATOM     15  C   UNL     1       2.174   8.206  18.531  0.00  0.00    +0.000 C 
ATOM     16  O   UNL     1       2.584   8.276  17.385  0.00  0.00    +0.000 OA
BRANCH  14  17
ATOM     17  C   UNL     1      -0.068   9.717  22.584  0.00  0.00    +0.000 C 
ATOM     18  F   UNL     1      -0.951   8.694  22.733  0.00  0.00    +0.000 F 
ATOM     19  F   UNL     1       0.966   9.447  23.427  0.00  0.00    +0.000 F 
ATOM     20  F   UNL     1      -0.682  10.822  23.086  0.00  0.00    +0.000 F 
ENDBRANCH  14  17
ENDBRANCH   5   7
BRANCH   1  21
ATOM     21  C   UNL     1       4.310   3.878  16.281  0.00  0.00    +0.000 C 
BRANCH  21  28
ATOM     22  O   UNL     1       6.507   3.739  12.509  0.00  0.00    +0.000 OA
ATOM     23  C   UNL     1       5.793   3.725  13.507  0.00  0.00    +0.000 C 
ATOM     24  N   UNL     1       6.214   4.397  14.642  0.00  0.00    +0.000 N 
ATOM     25  C   UNL     1       7.373   5.116  14.769  0.00  0.00    +0.000 A 
ATOM     26  N   UNL     1       7.440   5.670  15.955  0.00  0.00    +0.000 NA
ATOM     27  N   UNL     1       6.322   5.292  16.649  0.00  0.00    +0.000 NA
ATOM     28  C   UNL     1       5.597   4.508  15.875  0.00  0.00    +0.000 A 
ENDBRANCH  21  28
ENDBRANCH   1  21
TORSDOF 4
ENDMDL
