MODEL 1
REMARK VINA RESULT:      -8.3      0.000      0.000
REMARK  Name = 
REMARK  7 active torsions:
REMARK  status: ('A' for Active; 'I' for Inactive)
REMARK    1  A    between atoms: C_1  and  N_2
REMARK    2  A    between atoms: C_6  and  C_7
REMARK    3  A    between atoms: C_7  and  C_8
REMARK    4  A    between atoms: C_8  and  C_10
REMARK    5  A    between atoms: C_12  and  N_13
REMARK    6  A    between atoms: C_17  and  N_18
REMARK    7  A    between atoms: C_25  and  C_26
REMARK                            x       y       z     vdW  Elec       q    Type
REMARK                         _______ _______ _______ _____ _____    ______ ____
ROOT
ATOM      1  C   UNL     1      -5.047  12.263  18.542  0.00  0.00    +0.000 A 
ATOM      2  C   UNL     1      -4.768  11.709  17.276  0.00  0.00    +0.000 A 
ATOM      3  C   UNL     1      -3.517  11.165  17.007  0.00  0.00    +0.000 A 
ATOM      4  C   UNL     1      -2.615  11.066  18.057  0.00  0.00    +0.000 A 
ATOM      5  C   UNL     1      -2.788  11.861  19.194  0.00  0.00    +0.000 A 
ATOM      6  C   UNL     1      -4.048  12.350  19.513  0.00  0.00    +0.000 A 
ENDROOT
BRANCH   5   7
ATOM      7  N   UNL     1      -1.635  12.429  19.834  0.00  0.00    +0.000 N 
ATOM      8  C   UNL     1      -0.325  12.102  19.250  0.00  0.00    +0.000 C 
ATOM      9  C   UNL     1       0.099  10.982  20.142  0.00  0.00    +0.000 A 
ATOM     10  C   UNL     1      -0.515  11.175  21.369  0.00  0.00    +0.000 A 
ATOM     11  C   UNL     1      -0.472  10.249  22.385  0.00  0.00    +0.000 A 
ATOM     12  C   UNL     1       0.168   9.039  22.107  0.00  0.00    +0.000 A 
ATOM     13  C   UNL     1       0.760   8.807  20.844  0.00  0.00    +0.000 A 
ATOM     14  C   UNL     1       0.753   9.789  19.833  0.00  0.00    +0.000 A 
ATOM     15  C   UNL     1      -1.553  12.210  21.219  0.00  0.00    +0.000 C 
ATOM     16  O   UNL     1      -2.287  12.612  22.104  0.00  0.00    +0.000 OA
BRANCH  14  17
ATOM     17  C   UNL     1       1.298   9.456  18.463  0.00  0.00    +0.000 C 
ATOM     18  F   UNL     1       1.962   8.270  18.404  0.00  0.00    +0.000 F 
ATOM     19  F   UNL     1       0.322   9.381  17.518  0.00  0.00    +0.000 F 
ATOM     20  F   UNL     1       2.181  10.394  18.018  0.00  0.00    +0.000 F 
ENDBRANCH  14  17
ENDBRANCH   5   7
BRANCH   1  21
ATOM     21  C   UNL     1      -6.289  13.071  18.679  0.00  0.00    +0.000 C 
ATOM     22  N   UNL     1      -6.214  14.310  18.290  0.00  0.00    +0.000 NA
ATOM     23  H   UNL     1      -7.123  14.784  18.398  0.00  0.00    +0.000 HD
BRANCH  21  24
ATOM     24  C   UNL     1      -7.541  12.413  19.269  0.00  0.00    +0.000 C 
BRANCH  24  30
ATOM     25  C   UNL     1      -7.910  14.734  21.386  0.00  0.00    +0.000 C 
ATOM     26  N   UNL     1      -7.663  13.343  21.650  0.00  0.00    +0.000 N 
ATOM     27  C   UNL     1      -7.545  12.796  22.893  0.00  0.00    +0.000 A 
ATOM     28  N   UNL     1      -7.297  11.515  22.788  0.00  0.00    +0.000 NA
ATOM     29  N   UNL     1      -7.239  11.219  21.454  0.00  0.00    +0.000 NA
ATOM     30  C   UNL     1      -7.482  12.317  20.759  0.00  0.00    +0.000 A 
ENDBRANCH  24  30
ENDBRANCH  21  24
ENDBRANCH   1  21
BRANCH   3  31
ATOM     31  N   UNL     1      -2.936  10.982  15.724  0.00  0.00    +0.000 N 
ATOM     32  C   UNL     1      -2.540   9.798  15.177  0.00  0.00    +0.000 C 
ATOM     33  C   UNL     1      -3.743  10.284  14.866  0.00  0.00    +0.000 C 
ENDBRANCH   3  31
TORSDOF 6
ENDMDL
MODEL 2
REMARK VINA RESULT:      -8.0      1.659      2.857
REMARK  Name = 
REMARK  7 active torsions:
REMARK  status: ('A' for Active; 'I' for Inactive)
REMARK    1  A    between atoms: C_1  and  N_2
REMARK    2  A    between atoms: C_6  and  C_7
REMARK    3  A    between atoms: C_7  and  C_8
REMARK    4  A    between atoms: C_8  and  C_10
REMARK    5  A    between atoms: C_12  and  N_13
REMARK    6  A    between atoms: C_17  and  N_18
REMARK    7  A    between atoms: C_25  and  C_26
REMARK                            x       y       z     vdW  Elec       q    Type
REMARK                         _______ _______ _______ _____ _____    ______ ____
ROOT
ATOM      1  C   UNL     1      -5.287  12.319  18.444  0.00  0.00    +0.000 A 
ATOM      2  C   UNL     1      -4.951  11.746  17.201  0.00  0.00    +0.000 A 
ATOM      3  C   UNL     1      -3.683  11.216  16.991  0.00  0.00    +0.000 A 
ATOM      4  C   UNL     1      -2.821  11.150  18.077  0.00  0.00    +0.000 A 
ATOM      5  C   UNL     1      -3.050  11.963  19.190  0.00  0.00    +0.000 A 
ATOM      6  C   UNL     1      -4.329  12.439  19.451  0.00  0.00    +0.000 A 
ENDROOT
BRANCH   5   7
ATOM      7  N   UNL     1      -1.931  12.560  19.863  0.00  0.00    +0.000 N 
ATOM      8  C   UNL     1      -0.595  12.246  19.334  0.00  0.00    +0.000 C 
ATOM      9  C   UNL     1      -0.187  11.148  20.260  0.00  0.00    +0.000 A 
ATOM     10  C   UNL     1      -0.849  11.350  21.459  0.00  0.00    +0.000 A 
ATOM     11  C   UNL     1      -0.830  10.440  22.491  0.00  0.00    +0.000 A 
ATOM     12  C   UNL     1      -0.160   9.237  22.257  0.00  0.00    +0.000 A 
ATOM     13  C   UNL     1       0.482   8.995  21.021  0.00  0.00    +0.000 A 
ATOM     14  C   UNL     1       0.498   9.961  19.994  0.00  0.00    +0.000 A 
ATOM     15  C   UNL     1      -1.898  12.365  21.254  0.00  0.00    +0.000 C 
ATOM     16  O   UNL     1      -2.671  12.768  22.105  0.00  0.00    +0.000 OA
BRANCH  14  17
ATOM     17  C   UNL     1       1.099   9.616  18.651  0.00  0.00    +0.000 C 
ATOM     18  F   UNL     1       1.769   8.432  18.632  0.00  0.00    +0.000 F 
ATOM     19  F   UNL     1       0.162   9.526  17.669  0.00  0.00    +0.000 F 
ATOM     20  F   UNL     1       1.995  10.553  18.233  0.00  0.00    +0.000 F 
ENDBRANCH  14  17
ENDBRANCH   5   7
BRANCH   1  21
ATOM     21  C   UNL     1      -6.545  13.111  18.517  0.00  0.00    +0.000 C 
ATOM     22  N   UNL     1      -7.654  12.441  18.390  0.00  0.00    +0.000 NA
ATOM     23  H   UNL     1      -8.470  13.065  18.478  0.00  0.00    +0.000 HD
BRANCH  21  24
ATOM     24  C   UNL     1      -6.457  14.628  18.716  0.00  0.00    +0.000 C 
BRANCH  24  30
ATOM     25  C   UNL     1      -7.132  17.706  18.438  0.00  0.00    +0.000 C 
ATOM     26  N   UNL     1      -7.083  16.725  17.389  0.00  0.00    +0.000 N 
ATOM     27  C   UNL     1      -7.327  16.980  16.072  0.00  0.00    +0.000 A 
ATOM     28  N   UNL     1      -7.226  15.872  15.383  0.00  0.00    +0.000 NA
ATOM     29  N   UNL     1      -6.921  14.871  16.263  0.00  0.00    +0.000 NA
ATOM     30  C   UNL     1      -6.811  15.383  17.476  0.00  0.00    +0.000 A 
ENDBRANCH  24  30
ENDBRANCH  21  24
ENDBRANCH   1  21
BRANCH   3  31
ATOM     31  N   UNL     1      -3.050  11.017  15.735  0.00  0.00    +0.000 N 
ATOM     32  C   UNL     1      -2.561   9.840  15.253  0.00  0.00    +0.000 C 
ATOM     33  C   UNL     1      -3.782  10.234  14.884  0.00  0.00    +0.000 C 
ENDBRANCH   3  31
TORSDOF 6
ENDMDL
MODEL 3
REMARK VINA RESULT:      -7.8      1.166      1.451
REMARK  Name = 
REMARK  7 active torsions:
REMARK  status: ('A' for Active; 'I' for Inactive)
REMARK    1  A    between atoms: C_1  and  N_2
REMARK    2  A    between atoms: C_6  and  C_7
REMARK    3  A    between atoms: C_7  and  C_8
REMARK    4  A    between atoms: C_8  and  C_10
REMARK    5  A    between atoms: C_12  and  N_13
REMARK    6  A    between atoms: C_17  and  N_18
REMARK    7  A    between atoms: C_25  and  C_26
REMARK                            x       y       z     vdW  Elec       q    Type
REMARK                         _______ _______ _______ _____ _____    ______ ____
ROOT
ATOM      1  C   UNL     1      -4.449  12.387  19.498  0.00  0.00    +0.000 A 
ATOM      2  C   UNL     1      -4.443  11.934  18.164  0.00  0.00    +0.000 A 
ATOM      3  C   UNL     1      -3.308  11.334  17.630  0.00  0.00    +0.000 A 
ATOM      4  C   UNL     1      -2.247  11.079  18.487  0.00  0.00    +0.000 A 
ATOM      5  C   UNL     1      -2.152  11.776  19.695  0.00  0.00    +0.000 A 
ATOM      6  C   UNL     1      -3.292  12.317  20.276  0.00  0.00    +0.000 A 
ENDROOT
BRANCH   5   7
ATOM      7  N   UNL     1      -0.862  12.204  20.158  0.00  0.00    +0.000 N 
ATOM      8  C   UNL     1       0.296  11.826  19.333  0.00  0.00    +0.000 C 
ATOM      9  C   UNL     1       0.766  10.612  20.063  0.00  0.00    +0.000 A 
ATOM     10  C   UNL     1       0.389  10.754  21.388  0.00  0.00    +0.000 A 
ATOM     11  C   UNL     1       0.523   9.750  22.320  0.00  0.00    +0.000 A 
ATOM     12  C   UNL     1       0.998   8.521  21.857  0.00  0.00    +0.000 A 
ATOM     13  C   UNL     1       1.344   8.345  20.497  0.00  0.00    +0.000 A 
ATOM     14  C   UNL     1       1.252   9.401  19.568  0.00  0.00    +0.000 A 
ATOM     15  C   UNL     1      -0.565  11.873  21.490  0.00  0.00    +0.000 C 
ATOM     16  O   UNL     1      -1.100  12.258  22.515  0.00  0.00    +0.000 OA
BRANCH  14  17
ATOM     17  C   UNL     1       1.525   9.136  18.105  0.00  0.00    +0.000 C 
ATOM     18  F   UNL     1       2.450   9.967  17.555  0.00  0.00    +0.000 F 
ATOM     19  F   UNL     1       1.980   7.874  17.881  0.00  0.00    +0.000 F 
ATOM     20  F   UNL     1       0.405   9.273  17.340  0.00  0.00    +0.000 F 
ENDBRANCH  14  17
ENDBRANCH   5   7
BRANCH   1  21
ATOM     21  C   UNL     1      -5.577  13.261  19.921  0.00  0.00    +0.000 C 
ATOM     22  N   UNL     1      -6.600  13.308  19.118  0.00  0.00    +0.000 NA
ATOM     23  H   UNL     1      -7.339  13.915  19.502  0.00  0.00    +0.000 HD
BRANCH  21  24
ATOM     24  C   UNL     1      -5.459  14.042  21.234  0.00  0.00    +0.000 C 
BRANCH  24  30
ATOM     25  C   UNL     1      -6.483  15.397  23.903  0.00  0.00    +0.000 C 
ATOM     26  N   UNL     1      -6.694  14.041  23.476  0.00  0.00    +0.000 N 
ATOM     27  C   UNL     1      -7.389  13.103  24.180  0.00  0.00    +0.000 A 
ATOM     28  N   UNL     1      -7.374  11.966  23.531  0.00  0.00    +0.000 NA
ATOM     29  N   UNL     1      -6.647  12.158  22.388  0.00  0.00    +0.000 NA
ATOM     30  C   UNL     1      -6.251  13.417  22.338  0.00  0.00    +0.000 A 
ENDBRANCH  24  30
ENDBRANCH  21  24
ENDBRANCH   1  21
BRANCH   3  31
ATOM     31  N   UNL     1      -2.977  11.231  16.252  0.00  0.00    +0.000 N 
ATOM     32  C   UNL     1      -2.688  10.084  15.574  0.00  0.00    +0.000 C 
ATOM     33  C   UNL     1      -3.929  10.572  15.522  0.00  0.00    +0.000 C 
ENDBRANCH   3  31
TORSDOF 6
ENDMDL
MODEL 4
REMARK VINA RESULT:      -7.8      8.993     12.930
REMARK  Name = 
REMARK  7 active torsions:
REMARK  status: ('A' for Active; 'I' for Inactive)
REMARK    1  A    between atoms: C_1  and  N_2
REMARK    2  A    between atoms: C_6  and  C_7
REMARK    3  A    between atoms: C_7  and  C_8
REMARK    4  A    between atoms: C_8  and  C_10
REMARK    5  A    between atoms: C_12  and  N_13
REMARK    6  A    between atoms: C_17  and  N_18
REMARK    7  A    between atoms: C_25  and  C_26
REMARK                            x       y       z     vdW  Elec       q    Type
REMARK                         _______ _______ _______ _____ _____    ______ ____
ROOT
ATOM      1  C   UNL     1       6.332   4.315  15.453  0.00  0.00    +0.000 A 
ATOM      2  C   UNL     1       6.950   4.980  16.531  0.00  0.00    +0.000 A 
ATOM      3  C   UNL     1       6.463   4.827  17.824  0.00  0.00    +0.000 A 
ATOM      4  C   UNL     1       5.449   3.902  18.028  0.00  0.00    +0.000 A 
ATOM      5  C   UNL     1       4.669   3.482  16.947  0.00  0.00    +0.000 A 
ATOM      6  C   UNL     1       5.174   3.562  15.655  0.00  0.00    +0.000 A 
ENDROOT
BRANCH   5   7
ATOM      7  N   UNL     1       3.261   3.278  17.135  0.00  0.00    +0.000 N 
ATOM      8  C   UNL     1       2.415   4.481  17.155  0.00  0.00    +0.000 C 
ATOM      9  C   UNL     1       2.280   4.697  18.626  0.00  0.00    +0.000 A 
ATOM     10  C   UNL     1       2.407   3.461  19.238  0.00  0.00    +0.000 A 
ATOM     11  C   UNL     1       2.489   3.302  20.602  0.00  0.00    +0.000 A 
ATOM     12  C   UNL     1       2.514   4.468  21.370  0.00  0.00    +0.000 A 
ATOM     13  C   UNL     1       2.432   5.740  20.758  0.00  0.00    +0.000 A 
ATOM     14  C   UNL     1       2.293   5.882  19.363  0.00  0.00    +0.000 A 
ATOM     15  C   UNL     1       2.915   2.494  18.248  0.00  0.00    +0.000 C 
ATOM     16  O   UNL     1       3.150   1.318  18.461  0.00  0.00    +0.000 OA
BRANCH  14  17
ATOM     17  C   UNL     1       2.322   7.260  18.744  0.00  0.00    +0.000 C 
ATOM     18  F   UNL     1       1.404   7.444  17.758  0.00  0.00    +0.000 F 
ATOM     19  F   UNL     1       2.090   8.244  19.653  0.00  0.00    +0.000 F 
ATOM     20  F   UNL     1       3.530   7.545  18.180  0.00  0.00    +0.000 F 
ENDBRANCH  14  17
ENDBRANCH   5   7
BRANCH   1  21
ATOM     21  C   UNL     1       6.715   4.733  14.077  0.00  0.00    +0.000 C 
ATOM     22  N   UNL     1       7.882   5.296  13.952  0.00  0.00    +0.000 NA
ATOM     23  H   UNL     1       8.073   5.528  12.966  0.00  0.00    +0.000 HD
BRANCH  21  24
ATOM     24  C   UNL     1       5.732   4.494  12.927  0.00  0.00    +0.000 C 
BRANCH  24  30
ATOM     25  C   UNL     1       3.801   2.717  11.160  0.00  0.00    +0.000 C 
ATOM     26  N   UNL     1       5.213   2.535  11.363  0.00  0.00    +0.000 N 
ATOM     27  C   UNL     1       5.957   1.538  10.807  0.00  0.00    +0.000 A 
ATOM     28  N   UNL     1       7.199   1.639  11.210  0.00  0.00    +0.000 NA
ATOM     29  N   UNL     1       7.267   2.713  12.053  0.00  0.00    +0.000 NA
ATOM     30  C   UNL     1       6.074   3.274  12.133  0.00  0.00    +0.000 A 
ENDBRANCH  24  30
ENDBRANCH  21  24
ENDBRANCH   1  21
BRANCH   3  31
ATOM     31  N   UNL     1       6.661   5.720  18.911  0.00  0.00    +0.000 N 
ATOM     32  C   UNL     1       7.596   5.600  19.895  0.00  0.00    +0.000 C 
ATOM     33  C   UNL     1       7.856   6.384  18.847  0.00  0.00    +0.000 C 
ENDBRANCH   3  31
TORSDOF 6
ENDMDL
MODEL 5
REMARK VINA RESULT:      -7.7      2.096      2.740
REMARK  Name = 
REMARK  7 active torsions:
REMARK  status: ('A' for Active; 'I' for Inactive)
REMARK    1  A    between atoms: C_1  and  N_2
REMARK    2  A    between atoms: C_6  and  C_7
REMARK    3  A    between atoms: C_7  and  C_8
REMARK    4  A    between atoms: C_8  and  C_10
REMARK    5  A    between atoms: C_12  and  N_13
REMARK    6  A    between atoms: C_17  and  N_18
REMARK    7  A    between atoms: C_25  and  C_26
REMARK                            x       y       z     vdW  Elec       q    Type
REMARK                         _______ _______ _______ _____ _____    ______ ____
ROOT
ATOM      1  C   UNL     1      -4.120  11.032  18.225  0.00  0.00    +0.000 A 
ATOM      2  C   UNL     1      -4.226  10.789  16.841  0.00  0.00    +0.000 A 
ATOM      3  C   UNL     1      -3.103  10.439  16.100  0.00  0.00    +0.000 A 
ATOM      4  C   UNL     1      -1.920  10.207  16.788  0.00  0.00    +0.000 A 
ATOM      5  C   UNL     1      -1.759  10.722  18.078  0.00  0.00    +0.000 A 
ATOM      6  C   UNL     1      -2.875  11.007  18.856  0.00  0.00    +0.000 A 
ENDROOT
BRANCH   5   7
ATOM      7  N   UNL     1      -0.483  11.250  18.467  0.00  0.00    +0.000 N 
ATOM      8  C   UNL     1       0.304  10.447  19.416  0.00  0.00    +0.000 C 
ATOM      9  C   UNL     1      -0.037  11.129  20.700  0.00  0.00    +0.000 A 
ATOM     10  C   UNL     1      -0.343  12.446  20.399  0.00  0.00    +0.000 A 
ATOM     11  C   UNL     1      -0.854  13.329  21.323  0.00  0.00    +0.000 A 
ATOM     12  C   UNL     1      -1.131  12.819  22.594  0.00  0.00    +0.000 A 
ATOM     13  C   UNL     1      -0.868  11.465  22.904  0.00  0.00    +0.000 A 
ATOM     14  C   UNL     1      -0.293  10.589  21.960  0.00  0.00    +0.000 A 
ATOM     15  C   UNL     1      -0.503  12.573  18.939  0.00  0.00    +0.000 C 
ATOM     16  O   UNL     1      -0.785  13.597  18.343  0.00  0.00    +0.000 OA
BRANCH  14  17
ATOM     17  C   UNL     1      -0.134   9.125  22.299  0.00  0.00    +0.000 C 
ATOM     18  F   UNL     1      -0.999   8.307  21.641  0.00  0.00    +0.000 F 
ATOM     19  F   UNL     1       1.110   8.656  22.011  0.00  0.00    +0.000 F 
ATOM     20  F   UNL     1      -0.331   8.880  23.625  0.00  0.00    +0.000 F 
ENDBRANCH  14  17
ENDBRANCH   5   7
BRANCH   1  21
ATOM     21  C   UNL     1      -5.283  11.668  18.902  0.00  0.00    +0.000 C 
ATOM     22  N   UNL     1      -6.430  11.072  18.754  0.00  0.00    +0.000 NA
ATOM     23  H   UNL     1      -7.170  11.566  19.275  0.00  0.00    +0.000 HD
BRANCH  21  24
ATOM     24  C   UNL     1      -5.063  12.960  19.697  0.00  0.00    +0.000 C 
BRANCH  24  30
ATOM     25  C   UNL     1      -7.905  13.492  20.980  0.00  0.00    +0.000 C 
ATOM     26  N   UNL     1      -6.715  13.043  21.650  0.00  0.00    +0.000 N 
ATOM     27  C   UNL     1      -6.628  12.770  22.982  0.00  0.00    +0.000 A 
ATOM     28  N   UNL     1      -5.405  12.409  23.279  0.00  0.00    +0.000 NA
ATOM     29  N   UNL     1      -4.675  12.457  22.123  0.00  0.00    +0.000 NA
ATOM     30  C   UNL     1      -5.467  12.818  21.129  0.00  0.00    +0.000 A 
ENDBRANCH  24  30
ENDBRANCH  21  24
ENDBRANCH   1  21
BRANCH   3  31
ATOM     31  N   UNL     1      -2.938  10.590  14.697  0.00  0.00    +0.000 N 
ATOM     32  C   UNL     1      -2.697   9.593  13.800  0.00  0.00    +0.000 C 
ATOM     33  C   UNL     1      -3.949  10.018  13.974  0.00  0.00    +0.000 C 
ENDBRANCH   3  31
TORSDOF 6
ENDMDL
MODEL 6
REMARK VINA RESULT:      -7.6      0.723      1.427
REMARK  Name = 
REMARK  7 active torsions:
REMARK  status: ('A' for Active; 'I' for Inactive)
REMARK    1  A    between atoms: C_1  and  N_2
REMARK    2  A    between atoms: C_6  and  C_7
REMARK    3  A    between atoms: C_7  and  C_8
REMARK    4  A    between atoms: C_8  and  C_10
REMARK    5  A    between atoms: C_12  and  N_13
REMARK    6  A    between atoms: C_17  and  N_18
REMARK    7  A    between atoms: C_25  and  C_26
REMARK                            x       y       z     vdW  Elec       q    Type
REMARK                         _______ _______ _______ _____ _____    ______ ____
ROOT
ATOM      1  C   UNL     1      -5.037  12.336  18.716  0.00  0.00    +0.000 A 
ATOM      2  C   UNL     1      -4.772  11.767  17.453  0.00  0.00    +0.000 A 
ATOM      3  C   UNL     1      -3.525  11.218  17.178  0.00  0.00    +0.000 A 
ATOM      4  C   UNL     1      -2.612  11.128  18.220  0.00  0.00    +0.000 A 
ATOM      5  C   UNL     1      -2.773  11.936  19.350  0.00  0.00    +0.000 A 
ATOM      6  C   UNL     1      -4.029  12.431  19.676  0.00  0.00    +0.000 A 
ENDROOT
BRANCH   5   7
ATOM      7  N   UNL     1      -1.613  12.508  19.972  0.00  0.00    +0.000 N 
ATOM      8  C   UNL     1      -0.312  12.204  19.356  0.00  0.00    +0.000 C 
ATOM      9  C   UNL     1       0.144  11.078  20.223  0.00  0.00    +0.000 A 
ATOM     10  C   UNL     1      -0.445  11.248  21.465  0.00  0.00    +0.000 A 
ATOM     11  C   UNL     1      -0.370  10.308  22.467  0.00  0.00    +0.000 A 
ATOM     12  C   UNL     1       0.278   9.110  22.159  0.00  0.00    +0.000 A 
ATOM     13  C   UNL     1       0.844   8.901  20.880  0.00  0.00    +0.000 A 
ATOM     14  C   UNL     1       0.805   9.896  19.883  0.00  0.00    +0.000 A 
ATOM     15  C   UNL     1      -1.498  12.272  21.352  0.00  0.00    +0.000 C 
ATOM     16  O   UNL     1      -2.217  12.654  22.259  0.00  0.00    +0.000 OA
BRANCH  14  17
ATOM     17  C   UNL     1       1.323   9.588  18.498  0.00  0.00    +0.000 C 
ATOM     18  F   UNL     1       2.204  10.507  18.018  0.00  0.00    +0.000 F 
ATOM     19  F   UNL     1       1.967   8.392  18.437  0.00  0.00    +0.000 F 
ATOM     20  F   UNL     1       0.321   9.523  17.576  0.00  0.00    +0.000 F 
ENDBRANCH  14  17
ENDBRANCH   5   7
BRANCH   1  21
ATOM     21  C   UNL     1      -6.276  13.148  18.855  0.00  0.00    +0.000 C 
ATOM     22  N   UNL     1      -6.418  14.130  18.013  0.00  0.00    +0.000 NA
ATOM     23  H   UNL     1      -7.312  14.619  18.168  0.00  0.00    +0.000 HD
BRANCH  21  24
ATOM     24  C   UNL     1      -7.274  12.795  19.964  0.00  0.00    +0.000 C 
BRANCH  24  30
ATOM     25  C   UNL     1      -7.667  12.330  23.068  0.00  0.00    +0.000 C 
ATOM     26  N   UNL     1      -7.455  13.581  22.393  0.00  0.00    +0.000 N 
ATOM     27  C   UNL     1      -7.390  14.796  23.007  0.00  0.00    +0.000 A 
ATOM     28  N   UNL     1      -7.215  15.734  22.110  0.00  0.00    +0.000 NA
ATOM     29  N   UNL     1      -7.176  15.125  20.886  0.00  0.00    +0.000 NA
ATOM     30  C   UNL     1      -7.298  13.820  21.051  0.00  0.00    +0.000 A 
ENDBRANCH  24  30
ENDBRANCH  21  24
ENDBRANCH   1  21
BRANCH   3  31
ATOM     31  N   UNL     1      -2.956  11.019  15.891  0.00  0.00    +0.000 N 
ATOM     32  C   UNL     1      -2.606   9.823  15.339  0.00  0.00    +0.000 C 
ATOM     33  C   UNL     1      -3.791  10.354  15.034  0.00  0.00    +0.000 C 
ENDBRANCH   3  31
TORSDOF 6
ENDMDL
MODEL 7
REMARK VINA RESULT:      -7.6      1.491      2.016
REMARK  Name = 
REMARK  7 active torsions:
REMARK  status: ('A' for Active; 'I' for Inactive)
REMARK    1  A    between atoms: C_1  and  N_2
REMARK    2  A    between atoms: C_6  and  C_7
REMARK    3  A    between atoms: C_7  and  C_8
REMARK    4  A    between atoms: C_8  and  C_10
REMARK    5  A    between atoms: C_12  and  N_13
REMARK    6  A    between atoms: C_17  and  N_18
REMARK    7  A    between atoms: C_25  and  C_26
REMARK                            x       y       z     vdW  Elec       q    Type
REMARK                         _______ _______ _______ _____ _____    ______ ____
ROOT
ATOM      1  C   UNL     1      -4.854  11.682  18.203  0.00  0.00    +0.000 A 
ATOM      2  C   UNL     1      -4.681  11.232  16.879  0.00  0.00    +0.000 A 
ATOM      3  C   UNL     1      -3.420  10.869  16.419  0.00  0.00    +0.000 A 
ATOM      4  C   UNL     1      -2.381  10.836  17.338  0.00  0.00    +0.000 A 
ATOM      5  C   UNL     1      -2.497  11.545  18.538  0.00  0.00    +0.000 A 
ATOM      6  C   UNL     1      -3.754  11.850  19.045  0.00  0.00    +0.000 A 
ENDROOT
BRANCH   5   7
ATOM      7  N   UNL     1      -1.347  12.226  19.063  0.00  0.00    +0.000 N 
ATOM      8  C   UNL     1      -0.203  11.388  19.455  0.00  0.00    +0.000 C 
ATOM      9  C   UNL     1      -0.439  11.273  20.925  0.00  0.00    +0.000 A 
ATOM     10  C   UNL     1      -1.129  12.407  21.322  0.00  0.00    +0.000 A 
ATOM     11  C   UNL     1      -1.649  12.565  22.586  0.00  0.00    +0.000 A 
ATOM     12  C   UNL     1      -1.519  11.483  23.460  0.00  0.00    +0.000 A 
ATOM     13  C   UNL     1      -0.859  10.300  23.055  0.00  0.00    +0.000 A 
ATOM     14  C   UNL     1      -0.284  10.177  21.774  0.00  0.00    +0.000 A 
ATOM     15  C   UNL     1      -1.610  13.112  20.121  0.00  0.00    +0.000 C 
ATOM     16  O   UNL     1      -2.262  14.141  20.116  0.00  0.00    +0.000 OA
BRANCH  14  17
ATOM     17  C   UNL     1       0.313   8.856  21.346  0.00  0.00    +0.000 C 
ATOM     18  F   UNL     1       0.786   8.849  20.071  0.00  0.00    +0.000 F 
ATOM     19  F   UNL     1       1.358   8.478  22.130  0.00  0.00    +0.000 F 
ATOM     20  F   UNL     1      -0.592   7.839  21.408  0.00  0.00    +0.000 F 
ENDBRANCH  14  17
ENDBRANCH   5   7
BRANCH   1  21
ATOM     21  C   UNL     1      -6.157  12.315  18.548  0.00  0.00    +0.000 C 
ATOM     22  N   UNL     1      -7.144  12.078  17.734  0.00  0.00    +0.000 NA
ATOM     23  H   UNL     1      -8.008  12.534  18.064  0.00  0.00    +0.000 HD
BRANCH  21  24
ATOM     24  C   UNL     1      -6.246  13.195  19.799  0.00  0.00    +0.000 C 
BRANCH  24  30
ATOM     25  C   UNL     1      -6.385  14.128  22.819  0.00  0.00    +0.000 C 
ATOM     26  N   UNL     1      -6.910  12.914  22.255  0.00  0.00    +0.000 N 
ATOM     27  C   UNL     1      -7.568  11.950  22.959  0.00  0.00    +0.000 A 
ATOM     28  N   UNL     1      -7.892  10.965  22.159  0.00  0.00    +0.000 NA
ATOM     29  N   UNL     1      -7.428  11.283  20.912  0.00  0.00    +0.000 NA
ATOM     30  C   UNL     1      -6.853  12.471  20.958  0.00  0.00    +0.000 A 
ENDBRANCH  24  30
ENDBRANCH  21  24
ENDBRANCH   1  21
BRANCH   3  31
ATOM     31  N   UNL     1      -2.997  10.826  15.064  0.00  0.00    +0.000 N 
ATOM     32  C   UNL     1      -2.640   9.713  14.363  0.00  0.00    +0.000 C 
ATOM     33  C   UNL     1      -3.884  10.180  14.246  0.00  0.00    +0.000 C 
ENDBRANCH   3  31
TORSDOF 6
ENDMDL
MODEL 8
REMARK VINA RESULT:      -7.5      2.571      4.614
REMARK  Name = 
REMARK  7 active torsions:
REMARK  status: ('A' for Active; 'I' for Inactive)
REMARK    1  A    between atoms: C_1  and  N_2
REMARK    2  A    between atoms: C_6  and  C_7
REMARK    3  A    between atoms: C_7  and  C_8
REMARK    4  A    between atoms: C_8  and  C_10
REMARK    5  A    between atoms: C_12  and  N_13
REMARK    6  A    between atoms: C_17  and  N_18
REMARK    7  A    between atoms: C_25  and  C_26
REMARK                            x       y       z     vdW  Elec       q    Type
REMARK                         _______ _______ _______ _____ _____    ______ ____
ROOT
ATOM      1  C   UNL     1      -2.620  12.507  23.067  0.00  0.00    +0.000 A 
ATOM      2  C   UNL     1      -2.158  11.204  23.343  0.00  0.00    +0.000 A 
ATOM      3  C   UNL     1      -0.944  10.764  22.828  0.00  0.00    +0.000 A 
ATOM      4  C   UNL     1      -0.153  11.687  22.159  0.00  0.00    +0.000 A 
ATOM      5  C   UNL     1      -0.731  12.854  21.651  0.00  0.00    +0.000 A 
ATOM      6  C   UNL     1      -1.907  13.344  22.207  0.00  0.00    +0.000 A 
ENDROOT
BRANCH   5   7
ATOM      7  N   UNL     1      -0.300  13.353  20.376  0.00  0.00    +0.000 N 
ATOM      8  C   UNL     1      -1.251  13.230  19.261  0.00  0.00    +0.000 C 
ATOM      9  C   UNL     1      -0.749  11.983  18.610  0.00  0.00    +0.000 A 
ATOM     10  C   UNL     1       0.606  11.890  18.885  0.00  0.00    +0.000 A 
ATOM     11  C   UNL     1       1.362  10.784  18.572  0.00  0.00    +0.000 A 
ATOM     12  C   UNL     1       0.685   9.696  18.017  0.00  0.00    +0.000 A 
ATOM     13  C   UNL     1      -0.707   9.757  17.773  0.00  0.00    +0.000 A 
ATOM     14  C   UNL     1      -1.456  10.919  18.050  0.00  0.00    +0.000 A 
ATOM     15  C   UNL     1       0.942  12.868  19.935  0.00  0.00    +0.000 C 
ATOM     16  O   UNL     1       2.048  13.039  20.417  0.00  0.00    +0.000 OA
BRANCH  14  17
ATOM     17  C   UNL     1      -2.957  10.900  17.878  0.00  0.00    +0.000 C 
ATOM     18  F   UNL     1      -3.401  11.613  16.808  0.00  0.00    +0.000 F 
ATOM     19  F   UNL     1      -3.446   9.641  17.712  0.00  0.00    +0.000 F 
ATOM     20  F   UNL     1      -3.605  11.416  18.960  0.00  0.00    +0.000 F 
ENDBRANCH  14  17
ENDBRANCH   5   7
BRANCH   1  21
ATOM     21  C   UNL     1      -4.035  12.821  23.405  0.00  0.00    +0.000 C 
ATOM     22  N   UNL     1      -4.486  12.314  24.515  0.00  0.00    +0.000 NA
ATOM     23  H   UNL     1      -5.462  12.602  24.680  0.00  0.00    +0.000 HD
BRANCH  21  24
ATOM     24  C   UNL     1      -4.854  13.686  22.441  0.00  0.00    +0.000 C 
BRANCH  24  30
ATOM     25  C   UNL     1      -6.062  14.156  19.556  0.00  0.00    +0.000 C 
ATOM     26  N   UNL     1      -6.421  13.129  20.495  0.00  0.00    +0.000 N 
ATOM     27  C   UNL     1      -7.366  12.171  20.279  0.00  0.00    +0.000 A 
ATOM     28  N   UNL     1      -7.469  11.407  21.337  0.00  0.00    +0.000 NA
ATOM     29  N   UNL     1      -6.585  11.879  22.268  0.00  0.00    +0.000 NA
ATOM     30  C   UNL     1      -5.931  12.907  21.757  0.00  0.00    +0.000 A 
ENDBRANCH  24  30
ENDBRANCH  21  24
ENDBRANCH   1  21
BRANCH   3  31
ATOM     31  N   UNL     1      -0.551   9.413  22.633  0.00  0.00    +0.000 N 
ATOM     32  C   UNL     1       0.179   8.926  21.590  0.00  0.00    +0.000 C 
ATOM     33  C   UNL     1       0.802   9.231  22.730  0.00  0.00    +0.000 C 
ENDBRANCH   3  31
TORSDOF 6
ENDMDL
MODEL 9
REMARK VINA RESULT:      -7.5      2.010      2.715
REMARK  Name = 
REMARK  7 active torsions:
REMARK  status: ('A' for Active; 'I' for Inactive)
REMARK    1  A    between atoms: C_1  and  N_2
REMARK    2  A    between atoms: C_6  and  C_7
REMARK    3  A    between atoms: C_7  and  C_8
REMARK    4  A    between atoms: C_8  and  C_10
REMARK    5  A    between atoms: C_12  and  N_13
REMARK    6  A    between atoms: C_17  and  N_18
REMARK    7  A    between atoms: C_25  and  C_26
REMARK                            x       y       z     vdW  Elec       q    Type
REMARK                         _______ _______ _______ _____ _____    ______ ____
ROOT
ATOM      1  C   UNL     1      -4.230  11.458  18.186  0.00  0.00    +0.000 A 
ATOM      2  C   UNL     1      -4.393  11.153  16.819  0.00  0.00    +0.000 A 
ATOM      3  C   UNL     1      -3.329  10.649  16.079  0.00  0.00    +0.000 A 
ATOM      4  C   UNL     1      -2.161  10.333  16.758  0.00  0.00    +0.000 A 
ATOM      5  C   UNL     1      -1.917  10.898  18.014  0.00  0.00    +0.000 A 
ATOM      6  C   UNL     1      -2.979  11.339  18.794  0.00  0.00    +0.000 A 
ENDROOT
BRANCH   5   7
ATOM      7  N   UNL     1      -0.584  11.311  18.350  0.00  0.00    +0.000 N 
ATOM      8  C   UNL     1       0.174  10.431  19.252  0.00  0.00    +0.000 C 
ATOM      9  C   UNL     1      -0.051  11.119  20.558  0.00  0.00    +0.000 A 
ATOM     10  C   UNL     1      -0.258  12.462  20.287  0.00  0.00    +0.000 A 
ATOM     11  C   UNL     1      -0.650  13.369  21.243  0.00  0.00    +0.000 A 
ATOM     12  C   UNL     1      -0.911  12.865  22.520  0.00  0.00    +0.000 A 
ATOM     13  C   UNL     1      -0.750  11.489  22.801  0.00  0.00    +0.000 A 
ATOM     14  C   UNL     1      -0.294  10.583  21.822  0.00  0.00    +0.000 A 
ATOM     15  C   UNL     1      -0.472  12.624  18.838  0.00  0.00    +0.000 C 
ATOM     16  O   UNL     1      -0.693  13.677  18.266  0.00  0.00    +0.000 OA
BRANCH  14  17
ATOM     17  C   UNL     1      -0.244   9.105  22.137  0.00  0.00    +0.000 C 
ATOM     18  F   UNL     1      -1.074   8.348  21.371  0.00  0.00    +0.000 F 
ATOM     19  F   UNL     1       0.998   8.579  21.967  0.00  0.00    +0.000 F 
ATOM     20  F   UNL     1      -0.591   8.842  23.428  0.00  0.00    +0.000 F 
ENDBRANCH  14  17
ENDBRANCH   5   7
BRANCH   1  21
ATOM     21  C   UNL     1      -5.305  12.247  18.846  0.00  0.00    +0.000 C 
ATOM     22  N   UNL     1      -5.602  13.388  18.294  0.00  0.00    +0.000 NA
ATOM     23  H   UNL     1      -6.371  13.851  18.802  0.00  0.00    +0.000 HD
BRANCH  21  24
ATOM     24  C   UNL     1      -5.965  11.688  20.110  0.00  0.00    +0.000 C 
BRANCH  24  30
ATOM     25  C   UNL     1      -4.641  12.954  22.689  0.00  0.00    +0.000 C 
ATOM     26  N   UNL     1      -5.901  13.305  22.094  0.00  0.00    +0.000 N 
ATOM     27  C   UNL     1      -6.743  14.268  22.564  0.00  0.00    +0.000 A 
ATOM     28  N   UNL     1      -7.814  14.322  21.812  0.00  0.00    +0.000 NA
ATOM     29  N   UNL     1      -7.676  13.372  20.839  0.00  0.00    +0.000 NA
ATOM     30  C   UNL     1      -6.511  12.768  20.989  0.00  0.00    +0.000 A 
ENDBRANCH  24  30
ENDBRANCH  21  24
ENDBRANCH   1  21
BRANCH   3  31
ATOM     31  N   UNL     1      -3.182  10.706  14.667  0.00  0.00    +0.000 N 
ATOM     32  C   UNL     1      -2.760   9.694  13.857  0.00  0.00    +0.000 C 
ATOM     33  C   UNL     1      -4.070   9.902  14.004  0.00  0.00    +0.000 C 
ENDBRANCH   3  31
TORSDOF 6
ENDMDL
