MODEL 1
REMARK VINA RESULT:      -9.7      0.000      0.000
REMARK  Name = 
REMARK  3 active torsions:
REMARK  status: ('A' for Active; 'I' for Inactive)
REMARK    1  A    between atoms: C_2  and  C_17
REMARK    2  A    between atoms: N_3  and  C_4
REMARK    3  A    between atoms: C_4  and  C_5
REMARK                            x       y       z     vdW  Elec       q    Type
REMARK                         _______ _______ _______ _____ _____    ______ ____
ROOT
ATOM      1  O   UNL     1       3.373   6.194  19.599  0.00  0.00    +0.000 OA
ATOM      2  C   UNL     1       3.247   6.838  18.564  0.00  0.00    +0.000 C 
ATOM      3  N   UNL     1       3.880   6.512  17.380  0.00  0.00    +0.000 N 
ATOM      4  H   UNL     1       3.801   7.224  16.661  0.00  0.00    +0.000 HD
ENDROOT
BRANCH   2   5
ATOM      5  C   UNL     1       2.382   8.033  18.496  0.00  0.00    +0.000 A 
ATOM      6  N   UNL     1       2.277   8.812  17.400  0.00  0.00    +0.000 NA
ATOM      7  N   UNL     1       1.397   9.766  17.771  0.00  0.00    +0.000 N 
ATOM      8  C   UNL     1       0.941   9.652  19.057  0.00  0.00    +0.000 A 
ATOM      9  C   UNL     1       0.052  10.431  19.815  0.00  0.00    +0.000 A 
ATOM     10  C   UNL     1      -0.197  10.019  21.129  0.00  0.00    +0.000 A 
ATOM     11  C   UNL     1       0.402   8.876  21.658  0.00  0.00    +0.000 A 
ATOM     12  C   UNL     1       1.282   8.117  20.881  0.00  0.00    +0.000 A 
ATOM     13  C   UNL     1       1.560   8.516  19.560  0.00  0.00    +0.000 A 
ATOM     14  H   UNL     1       1.149  10.481  17.095  0.00  0.00    +0.000 HD
ENDBRANCH   2   5
BRANCH   3  15
ATOM     15  C   UNL     1       4.872   5.423  17.217  0.00  0.00    +0.000 C 
ATOM     16  C   UNL     1       6.147   5.853  18.002  0.00  0.00    +0.000 C 
ATOM     17  C   UNL     1       7.322   4.914  17.751  0.00  0.00    +0.000 C 
ATOM     18  O   UNL     1       7.641   4.869  16.364  0.00  0.00    +0.000 OA
ATOM     19  C   UNL     1       6.552   4.389  15.583  0.00  0.00    +0.000 C 
ATOM     20  C   UNL     1       5.344   5.301  15.735  0.00  0.00    +0.000 C 
BRANCH  15  21
ATOM     21  C   UNL     1       4.242   4.121  17.775  0.00  0.00    +0.000 A 
ATOM     22  C   UNL     1       3.122   3.521  17.160  0.00  0.00    +0.000 A 
ATOM     23  C   UNL     1       2.527   2.360  17.674  0.00  0.00    +0.000 A 
ATOM     24  C   UNL     1       3.024   1.776  18.833  0.00  0.00    +0.000 A 
ATOM     25  C   UNL     1       4.114   2.357  19.461  0.00  0.00    +0.000 A 
ATOM     26  F   UNL     1       4.600   1.806  20.582  0.00  0.00    +0.000 F 
ATOM     27  C   UNL     1       4.714   3.510  18.953  0.00  0.00    +0.000 A 
ENDBRANCH  15  21
ENDBRANCH   3  15
TORSDOF 3
ENDMDL
MODEL 2
REMARK VINA RESULT:      -9.3      2.735      7.084
REMARK  Name = 
REMARK  3 active torsions:
REMARK  status: ('A' for Active; 'I' for Inactive)
REMARK    1  A    between atoms: C_2  and  C_17
REMARK    2  A    between atoms: N_3  and  C_4
REMARK    3  A    between atoms: C_4  and  C_5
REMARK                            x       y       z     vdW  Elec       q    Type
REMARK                         _______ _______ _______ _____ _____    ______ ____
ROOT
ATOM      1  O   UNL     1       4.791   3.078  16.933  0.00  0.00    +0.000 OA
ATOM      2  C   UNL     1       5.004   4.272  16.764  0.00  0.00    +0.000 C 
ATOM      3  N   UNL     1       4.311   5.272  17.417  0.00  0.00    +0.000 N 
ATOM      4  H   UNL     1       4.494   6.203  17.057  0.00  0.00    +0.000 HD
ENDROOT
BRANCH   2   5
ATOM      5  C   UNL     1       6.050   4.747  15.834  0.00  0.00    +0.000 A 
ATOM      6  N   UNL     1       7.017   5.618  16.188  0.00  0.00    +0.000 NA
ATOM      7  N   UNL     1       7.739   5.768  15.057  0.00  0.00    +0.000 N 
ATOM      8  C   UNL     1       7.277   5.050  13.986  0.00  0.00    +0.000 A 
ATOM      9  C   UNL     1       7.722   4.945  12.659  0.00  0.00    +0.000 A 
ATOM     10  C   UNL     1       7.000   4.100  11.808  0.00  0.00    +0.000 A 
ATOM     11  C   UNL     1       5.893   3.384  12.264  0.00  0.00    +0.000 A 
ATOM     12  C   UNL     1       5.472   3.505  13.591  0.00  0.00    +0.000 A 
ATOM     13  C   UNL     1       6.174   4.358  14.465  0.00  0.00    +0.000 A 
ATOM     14  H   UNL     1       8.543   6.387  15.077  0.00  0.00    +0.000 HD
ENDBRANCH   2   5
BRANCH   3  15
ATOM     15  C   UNL     1       3.155   5.057  18.319  0.00  0.00    +0.000 C 
ATOM     16  C   UNL     1       3.696   4.316  19.578  0.00  0.00    +0.000 C 
ATOM     17  C   UNL     1       2.574   3.853  20.500  0.00  0.00    +0.000 C 
ATOM     18  O   UNL     1       1.687   2.978  19.810  0.00  0.00    +0.000 OA
ATOM     19  C   UNL     1       1.072   3.615  18.696  0.00  0.00    +0.000 C 
ATOM     20  C   UNL     1       2.123   4.068  17.693  0.00  0.00    +0.000 C 
BRANCH  15  21
ATOM     21  C   UNL     1       2.555   6.445  18.657  0.00  0.00    +0.000 A 
ATOM     22  C   UNL     1       2.392   7.440  17.669  0.00  0.00    +0.000 A 
ATOM     23  C   UNL     1       1.878   8.709  17.972  0.00  0.00    +0.000 A 
ATOM     24  C   UNL     1       1.530   9.026  19.279  0.00  0.00    +0.000 A 
ATOM     25  C   UNL     1       1.695   8.070  20.268  0.00  0.00    +0.000 A 
ATOM     26  F   UNL     1       1.368   8.366  21.533  0.00  0.00    +0.000 F 
ATOM     27  C   UNL     1       2.203   6.803  19.974  0.00  0.00    +0.000 A 
ENDBRANCH  15  21
ENDBRANCH   3  15
TORSDOF 3
ENDMDL
MODEL 3
REMARK VINA RESULT:      -9.3      2.901      7.174
REMARK  Name = 
REMARK  3 active torsions:
REMARK  status: ('A' for Active; 'I' for Inactive)
REMARK    1  A    between atoms: C_2  and  C_17
REMARK    2  A    between atoms: N_3  and  C_4
REMARK    3  A    between atoms: C_4  and  C_5
REMARK                            x       y       z     vdW  Elec       q    Type
REMARK                         _______ _______ _______ _____ _____    ______ ____
ROOT
ATOM      1  O   UNL     1       4.823   3.040  16.969  0.00  0.00    +0.000 OA
ATOM      2  C   UNL     1       5.019   4.238  16.805  0.00  0.00    +0.000 C 
ATOM      3  N   UNL     1       4.316   5.224  17.467  0.00  0.00    +0.000 N 
ATOM      4  H   UNL     1       4.484   6.160  17.110  0.00  0.00    +0.000 HD
ENDROOT
BRANCH   2   5
ATOM      5  C   UNL     1       6.053   4.732  15.872  0.00  0.00    +0.000 A 
ATOM      6  N   UNL     1       7.010   5.614  16.224  0.00  0.00    +0.000 NA
ATOM      7  N   UNL     1       7.723   5.780  15.091  0.00  0.00    +0.000 N 
ATOM      8  C   UNL     1       7.265   5.061  14.019  0.00  0.00    +0.000 A 
ATOM      9  C   UNL     1       7.704   4.968  12.689  0.00  0.00    +0.000 A 
ATOM     10  C   UNL     1       6.989   4.118  11.837  0.00  0.00    +0.000 A 
ATOM     11  C   UNL     1       5.894   3.384  12.296  0.00  0.00    +0.000 A 
ATOM     12  C   UNL     1       5.479   3.493  13.626  0.00  0.00    +0.000 A 
ATOM     13  C   UNL     1       6.174   4.351  14.501  0.00  0.00    +0.000 A 
ATOM     14  H   UNL     1       8.518   6.409  15.109  0.00  0.00    +0.000 HD
ENDBRANCH   2   5
BRANCH   3  15
ATOM     15  C   UNL     1       3.167   4.989  18.374  0.00  0.00    +0.000 C 
ATOM     16  C   UNL     1       3.706   4.163  19.580  0.00  0.00    +0.000 C 
ATOM     17  C   UNL     1       2.586   3.679  20.493  0.00  0.00    +0.000 C 
ATOM     18  O   UNL     1       1.664   2.869  19.769  0.00  0.00    +0.000 OA
ATOM     19  C   UNL     1       1.051   3.584  18.702  0.00  0.00    +0.000 C 
ATOM     20  C   UNL     1       2.099   4.066  17.710  0.00  0.00    +0.000 C 
BRANCH  15  21
ATOM     21  C   UNL     1       2.611   6.372  18.801  0.00  0.00    +0.000 A 
ATOM     22  C   UNL     1       2.171   6.615  20.119  0.00  0.00    +0.000 A 
ATOM     23  C   UNL     1       1.640   7.853  20.508  0.00  0.00    +0.000 A 
ATOM     24  C   UNL     1       1.514   8.880  19.580  0.00  0.00    +0.000 A 
ATOM     25  C   UNL     1       1.926   8.658  18.276  0.00  0.00    +0.000 A 
ATOM     26  F   UNL     1       1.805   9.639  17.371  0.00  0.00    +0.000 F 
ATOM     27  C   UNL     1       2.460   7.430  17.883  0.00  0.00    +0.000 A 
ENDBRANCH  15  21
ENDBRANCH   3  15
TORSDOF 3
ENDMDL
MODEL 4
REMARK VINA RESULT:      -9.2      0.882      1.299
REMARK  Name = 
REMARK  3 active torsions:
REMARK  status: ('A' for Active; 'I' for Inactive)
REMARK    1  A    between atoms: C_2  and  C_17
REMARK    2  A    between atoms: N_3  and  C_4
REMARK    3  A    between atoms: C_4  and  C_5
REMARK                            x       y       z     vdW  Elec       q    Type
REMARK                         _______ _______ _______ _____ _____    ______ ____
ROOT
ATOM      1  O   UNL     1       3.307   6.216  19.579  0.00  0.00    +0.000 OA
ATOM      2  C   UNL     1       3.226   6.902  18.567  0.00  0.00    +0.000 C 
ATOM      3  N   UNL     1       3.929   6.640  17.408  0.00  0.00    +0.000 N 
ATOM      4  H   UNL     1       3.876   7.382  16.717  0.00  0.00    +0.000 HD
ENDROOT
BRANCH   2   5
ATOM      5  C   UNL     1       2.343   8.085  18.503  0.00  0.00    +0.000 A 
ATOM      6  N   UNL     1       2.211   8.854  17.404  0.00  0.00    +0.000 NA
ATOM      7  N   UNL     1       1.323   9.799  17.780  0.00  0.00    +0.000 N 
ATOM      8  C   UNL     1       0.887   9.688  19.074  0.00  0.00    +0.000 A 
ATOM      9  C   UNL     1      -0.002  10.459  19.839  0.00  0.00    +0.000 A 
ATOM     10  C   UNL     1      -0.227  10.053  21.159  0.00  0.00    +0.000 A 
ATOM     11  C   UNL     1       0.396   8.923  21.688  0.00  0.00    +0.000 A 
ATOM     12  C   UNL     1       1.276   8.171  20.904  0.00  0.00    +0.000 A 
ATOM     13  C   UNL     1       1.529   8.564  19.575  0.00  0.00    +0.000 A 
ATOM     14  H   UNL     1       1.055  10.505  17.104  0.00  0.00    +0.000 HD
ENDBRANCH   2   5
BRANCH   3  15
ATOM     15  C   UNL     1       4.949   5.576  17.253  0.00  0.00    +0.000 C 
ATOM     16  C   UNL     1       6.242   6.085  17.958  0.00  0.00    +0.000 C 
ATOM     17  C   UNL     1       7.435   5.172  17.701  0.00  0.00    +0.000 C 
ATOM     18  O   UNL     1       7.696   5.069  16.304  0.00  0.00    +0.000 OA
ATOM     19  C   UNL     1       6.591   4.517  15.597  0.00  0.00    +0.000 C 
ATOM     20  C   UNL     1       5.360   5.397  15.758  0.00  0.00    +0.000 C 
BRANCH  15  21
ATOM     21  C   UNL     1       4.388   4.285  17.900  0.00  0.00    +0.000 A 
ATOM     22  C   UNL     1       4.904   3.783  19.114  0.00  0.00    +0.000 A 
ATOM     23  C   UNL     1       4.423   2.600  19.692  0.00  0.00    +0.000 A 
ATOM     24  C   UNL     1       3.422   1.872  19.060  0.00  0.00    +0.000 A 
ATOM     25  C   UNL     1       2.910   2.338  17.860  0.00  0.00    +0.000 A 
ATOM     26  F   UNL     1       1.949   1.642  17.238  0.00  0.00    +0.000 F 
ATOM     27  C   UNL     1       3.382   3.517  17.281  0.00  0.00    +0.000 A 
ENDBRANCH  15  21
ENDBRANCH   3  15
TORSDOF 3
ENDMDL
MODEL 5
REMARK VINA RESULT:      -9.1      2.083      3.510
REMARK  Name = 
REMARK  3 active torsions:
REMARK  status: ('A' for Active; 'I' for Inactive)
REMARK    1  A    between atoms: C_2  and  C_17
REMARK    2  A    between atoms: N_3  and  C_4
REMARK    3  A    between atoms: C_4  and  C_5
REMARK                            x       y       z     vdW  Elec       q    Type
REMARK                         _______ _______ _______ _____ _____    ______ ____
ROOT
ATOM      1  O   UNL     1       2.068   6.215  20.075  0.00  0.00    +0.000 OA
ATOM      2  C   UNL     1       2.367   6.728  19.004  0.00  0.00    +0.000 C 
ATOM      3  N   UNL     1       3.029   6.057  17.995  0.00  0.00    +0.000 N 
ATOM      4  H   UNL     1       3.343   6.657  17.238  0.00  0.00    +0.000 HD
ENDROOT
BRANCH   2   5
ATOM      5  C   UNL     1       2.028   8.132  18.697  0.00  0.00    +0.000 A 
ATOM      6  N   UNL     1       2.376   8.746  17.548  0.00  0.00    +0.000 NA
ATOM      7  N   UNL     1       1.871   9.990  17.685  0.00  0.00    +0.000 N 
ATOM      8  C   UNL     1       1.227  10.216  18.873  0.00  0.00    +0.000 A 
ATOM      9  C   UNL     1       0.592  11.352  19.400  0.00  0.00    +0.000 A 
ATOM     10  C   UNL     1       0.023  11.232  20.673  0.00  0.00    +0.000 A 
ATOM     11  C   UNL     1       0.073  10.031  21.381  0.00  0.00    +0.000 A 
ATOM     12  C   UNL     1       0.709   8.914  20.832  0.00  0.00    +0.000 A 
ATOM     13  C   UNL     1       1.301   9.011  19.557  0.00  0.00    +0.000 A 
ATOM     14  H   UNL     1       2.005  10.651  16.927  0.00  0.00    +0.000 HD
ENDBRANCH   2   5
BRANCH   3  15
ATOM     15  C   UNL     1       3.564   4.679  18.096  0.00  0.00    +0.000 C 
ATOM     16  C   UNL     1       2.426   3.719  17.637  0.00  0.00    +0.000 C 
ATOM     17  C   UNL     1       2.774   2.255  17.882  0.00  0.00    +0.000 C 
ATOM     18  O   UNL     1       3.025   2.024  19.265  0.00  0.00    +0.000 OA
ATOM     19  C   UNL     1       4.122   2.797  19.742  0.00  0.00    +0.000 C 
ATOM     20  C   UNL     1       3.838   4.283  19.581  0.00  0.00    +0.000 C 
BRANCH  15  21
ATOM     21  C   UNL     1       4.819   4.590  17.191  0.00  0.00    +0.000 A 
ATOM     22  C   UNL     1       6.109   4.877  17.687  0.00  0.00    +0.000 A 
ATOM     23  C   UNL     1       7.246   4.828  16.868  0.00  0.00    +0.000 A 
ATOM     24  C   UNL     1       7.123   4.510  15.521  0.00  0.00    +0.000 A 
ATOM     25  C   UNL     1       5.864   4.239  15.009  0.00  0.00    +0.000 A 
ATOM     26  F   UNL     1       5.731   3.937  13.711  0.00  0.00    +0.000 F 
ATOM     27  C   UNL     1       4.728   4.282  15.819  0.00  0.00    +0.000 A 
ENDBRANCH  15  21
ENDBRANCH   3  15
TORSDOF 3
ENDMDL
MODEL 6
REMARK VINA RESULT:      -9.1      1.927      3.292
REMARK  Name = 
REMARK  3 active torsions:
REMARK  status: ('A' for Active; 'I' for Inactive)
REMARK    1  A    between atoms: C_2  and  C_17
REMARK    2  A    between atoms: N_3  and  C_4
REMARK    3  A    between atoms: C_4  and  C_5
REMARK                            x       y       z     vdW  Elec       q    Type
REMARK                         _______ _______ _______ _____ _____    ______ ____
ROOT
ATOM      1  O   UNL     1       2.479   6.702  20.341  0.00  0.00    +0.000 OA
ATOM      2  C   UNL     1       2.375   7.001  19.158  0.00  0.00    +0.000 C 
ATOM      3  N   UNL     1       2.615   6.118  18.123  0.00  0.00    +0.000 N 
ATOM      4  H   UNL     1       2.640   6.555  17.207  0.00  0.00    +0.000 HD
ENDROOT
BRANCH   2   5
ATOM      5  C   UNL     1       1.967   8.356  18.735  0.00  0.00    +0.000 A 
ATOM      6  N   UNL     1       2.356   8.920  17.574  0.00  0.00    +0.000 NA
ATOM      7  N   UNL     1       1.762  10.132  17.593  0.00  0.00    +0.000 N 
ATOM      8  C   UNL     1       1.022  10.386  18.717  0.00  0.00    +0.000 A 
ATOM      9  C   UNL     1       0.278  11.505  19.124  0.00  0.00    +0.000 A 
ATOM     10  C   UNL     1      -0.371  11.426  20.361  0.00  0.00    +0.000 A 
ATOM     11  C   UNL     1      -0.293  10.278  21.150  0.00  0.00    +0.000 A 
ATOM     12  C   UNL     1       0.452   9.176  20.720  0.00  0.00    +0.000 A 
ATOM     13  C   UNL     1       1.125   9.234  19.485  0.00  0.00    +0.000 A 
ATOM     14  H   UNL     1       1.906  10.752  16.803  0.00  0.00    +0.000 HD
ENDBRANCH   2   5
BRANCH   3  15
ATOM     15  C   UNL     1       3.130   4.738  18.283  0.00  0.00    +0.000 C 
ATOM     16  C   UNL     1       2.163   3.802  17.499  0.00  0.00    +0.000 C 
ATOM     17  C   UNL     1       2.463   2.327  17.746  0.00  0.00    +0.000 C 
ATOM     18  O   UNL     1       2.359   2.021  19.133  0.00  0.00    +0.000 OA
ATOM     19  C   UNL     1       3.284   2.768  19.914  0.00  0.00    +0.000 C 
ATOM     20  C   UNL     1       3.025   4.260  19.765  0.00  0.00    +0.000 C 
BRANCH  15  21
ATOM     21  C   UNL     1       4.575   4.705  17.723  0.00  0.00    +0.000 A 
ATOM     22  C   UNL     1       4.841   4.326  16.390  0.00  0.00    +0.000 A 
ATOM     23  C   UNL     1       6.147   4.265  15.883  0.00  0.00    +0.000 A 
ATOM     24  C   UNL     1       7.228   4.562  16.703  0.00  0.00    +0.000 A 
ATOM     25  C   UNL     1       6.991   4.922  18.020  0.00  0.00    +0.000 A 
ATOM     26  F   UNL     1       8.026   5.206  18.822  0.00  0.00    +0.000 F 
ATOM     27  C   UNL     1       5.694   4.989  18.531  0.00  0.00    +0.000 A 
ENDBRANCH  15  21
ENDBRANCH   3  15
TORSDOF 3
ENDMDL
MODEL 7
REMARK VINA RESULT:      -8.9      1.775      3.325
REMARK  Name = 
REMARK  3 active torsions:
REMARK  status: ('A' for Active; 'I' for Inactive)
REMARK    1  A    between atoms: C_2  and  C_17
REMARK    2  A    between atoms: N_3  and  C_4
REMARK    3  A    between atoms: C_4  and  C_5
REMARK                            x       y       z     vdW  Elec       q    Type
REMARK                         _______ _______ _______ _____ _____    ______ ____
ROOT
ATOM      1  O   UNL     1       3.629   7.074  17.060  0.00  0.00    +0.000 OA
ATOM      2  C   UNL     1       2.883   7.177  18.026  0.00  0.00    +0.000 C 
ATOM      3  N   UNL     1       2.649   6.154  18.923  0.00  0.00    +0.000 N 
ATOM      4  H   UNL     1       1.892   6.341  19.573  0.00  0.00    +0.000 HD
ENDROOT
BRANCH   2   5
ATOM      5  C   UNL     1       2.166   8.435  18.319  0.00  0.00    +0.000 A 
ATOM      6  N   UNL     1       2.012   9.429  17.421  0.00  0.00    +0.000 NA
ATOM      7  N   UNL     1       1.309  10.363  18.096  0.00  0.00    +0.000 N 
ATOM      8  C   UNL     1       1.014  10.029  19.392  0.00  0.00    +0.000 A 
ATOM      9  C   UNL     1       0.332  10.712  20.410  0.00  0.00    +0.000 A 
ATOM     10  C   UNL     1       0.208  10.063  21.644  0.00  0.00    +0.000 A 
ATOM     11  C   UNL     1       0.730   8.785  21.848  0.00  0.00    +0.000 A 
ATOM     12  C   UNL     1       1.404   8.126  20.816  0.00  0.00    +0.000 A 
ATOM     13  C   UNL     1       1.553   8.762  19.568  0.00  0.00    +0.000 A 
ATOM     14  H   UNL     1       1.062  11.222  17.616  0.00  0.00    +0.000 HD
ENDBRANCH   2   5
BRANCH   3  15
ATOM     15  C   UNL     1       3.168   4.772  18.792  0.00  0.00    +0.000 C 
ATOM     16  C   UNL     1       2.304   4.067  17.704  0.00  0.00    +0.000 C 
ATOM     17  C   UNL     1       2.600   2.574  17.611  0.00  0.00    +0.000 C 
ATOM     18  O   UNL     1       2.358   1.936  18.861  0.00  0.00    +0.000 OA
ATOM     19  C   UNL     1       3.185   2.460  19.894  0.00  0.00    +0.000 C 
ATOM     20  C   UNL     1       2.917   3.945  20.091  0.00  0.00    +0.000 C 
BRANCH  15  21
ATOM     21  C   UNL     1       4.663   4.864  18.395  0.00  0.00    +0.000 A 
ATOM     22  C   UNL     1       5.123   4.417  17.138  0.00  0.00    +0.000 A 
ATOM     23  C   UNL     1       6.478   4.469  16.782  0.00  0.00    +0.000 A 
ATOM     24  C   UNL     1       7.418   4.953  17.683  0.00  0.00    +0.000 A 
ATOM     25  C   UNL     1       6.991   5.384  18.929  0.00  0.00    +0.000 A 
ATOM     26  F   UNL     1       7.888   5.848  19.809  0.00  0.00    +0.000 F 
ATOM     27  C   UNL     1       5.643   5.339  19.289  0.00  0.00    +0.000 A 
ENDBRANCH  15  21
ENDBRANCH   3  15
TORSDOF 3
ENDMDL
MODEL 8
REMARK VINA RESULT:      -8.9      1.853      3.484
REMARK  Name = 
REMARK  3 active torsions:
REMARK  status: ('A' for Active; 'I' for Inactive)
REMARK    1  A    between atoms: C_2  and  C_17
REMARK    2  A    between atoms: N_3  and  C_4
REMARK    3  A    between atoms: C_4  and  C_5
REMARK                            x       y       z     vdW  Elec       q    Type
REMARK                         _______ _______ _______ _____ _____    ______ ____
ROOT
ATOM      1  O   UNL     1       3.707   7.028  17.073  0.00  0.00    +0.000 OA
ATOM      2  C   UNL     1       2.943   7.128  18.025  0.00  0.00    +0.000 C 
ATOM      3  N   UNL     1       2.700   6.106  18.921  0.00  0.00    +0.000 N 
ATOM      4  H   UNL     1       1.929   6.290  19.556  0.00  0.00    +0.000 HD
ENDROOT
BRANCH   2   5
ATOM      5  C   UNL     1       2.212   8.382  18.301  0.00  0.00    +0.000 A 
ATOM      6  N   UNL     1       2.050   9.363  17.390  0.00  0.00    +0.000 NA
ATOM      7  N   UNL     1       1.336  10.298  18.052  0.00  0.00    +0.000 N 
ATOM      8  C   UNL     1       1.040   9.976  19.350  0.00  0.00    +0.000 A 
ATOM      9  C   UNL     1       0.347  10.665  20.358  0.00  0.00    +0.000 A 
ATOM     10  C   UNL     1       0.227  10.030  21.599  0.00  0.00    +0.000 A 
ATOM     11  C   UNL     1       0.762   8.760  21.821  0.00  0.00    +0.000 A 
ATOM     12  C   UNL     1       1.446   8.095  20.799  0.00  0.00    +0.000 A 
ATOM     13  C   UNL     1       1.592   8.717  19.544  0.00  0.00    +0.000 A 
ATOM     14  H   UNL     1       1.081  11.148  17.560  0.00  0.00    +0.000 HD
ENDBRANCH   2   5
BRANCH   3  15
ATOM     15  C   UNL     1       3.231   4.727  18.804  0.00  0.00    +0.000 C 
ATOM     16  C   UNL     1       2.412   4.022  17.682  0.00  0.00    +0.000 C 
ATOM     17  C   UNL     1       2.720   2.532  17.594  0.00  0.00    +0.000 C 
ATOM     18  O   UNL     1       2.434   1.887  18.832  0.00  0.00    +0.000 OA
ATOM     19  C   UNL     1       3.219   2.411  19.898  0.00  0.00    +0.000 C 
ATOM     20  C   UNL     1       2.936   3.894  20.090  0.00  0.00    +0.000 C 
BRANCH  15  21
ATOM     21  C   UNL     1       4.739   4.829  18.464  0.00  0.00    +0.000 A 
ATOM     22  C   UNL     1       5.664   5.391  19.371  0.00  0.00    +0.000 A 
ATOM     23  C   UNL     1       7.026   5.514  19.061  0.00  0.00    +0.000 A 
ATOM     24  C   UNL     1       7.500   5.096  17.823  0.00  0.00    +0.000 A 
ATOM     25  C   UNL     1       6.607   4.555  16.912  0.00  0.00    +0.000 A 
ATOM     26  F   UNL     1       7.051   4.153  15.713  0.00  0.00    +0.000 F 
ATOM     27  C   UNL     1       5.251   4.425  17.215  0.00  0.00    +0.000 A 
ENDBRANCH  15  21
ENDBRANCH   3  15
TORSDOF 3
ENDMDL
MODEL 9
REMARK VINA RESULT:      -8.8      1.234      1.285
REMARK  Name = 
REMARK  3 active torsions:
REMARK  status: ('A' for Active; 'I' for Inactive)
REMARK    1  A    between atoms: C_2  and  C_17
REMARK    2  A    between atoms: N_3  and  C_4
REMARK    3  A    between atoms: C_4  and  C_5
REMARK                            x       y       z     vdW  Elec       q    Type
REMARK                         _______ _______ _______ _____ _____    ______ ____
ROOT
ATOM      1  O   UNL     1       2.572   6.785  20.071  0.00  0.00    +0.000 OA
ATOM      2  C   UNL     1       2.558   7.282  18.952  0.00  0.00    +0.000 C 
ATOM      3  N   UNL     1       3.147   6.695  17.849  0.00  0.00    +0.000 N 
ATOM      4  H   UNL     1       3.187   7.299  17.033  0.00  0.00    +0.000 HD
ENDROOT
BRANCH   2   5
ATOM      5  C   UNL     1       1.887   8.571  18.685  0.00  0.00    +0.000 A 
ATOM      6  N   UNL     1       2.006   9.243  17.523  0.00  0.00    +0.000 NA
ATOM      7  N   UNL     1       1.242  10.340  17.709  0.00  0.00    +0.000 N 
ATOM      8  C   UNL     1       0.648  10.418  18.940  0.00  0.00    +0.000 A 
ATOM      9  C   UNL     1      -0.190  11.381  19.524  0.00  0.00    +0.000 A 
ATOM     10  C   UNL     1      -0.627  11.140  20.831  0.00  0.00    +0.000 A 
ATOM     11  C   UNL     1      -0.257   9.985  21.520  0.00  0.00    +0.000 A 
ATOM     12  C   UNL     1       0.577   9.040  20.915  0.00  0.00    +0.000 A 
ATOM     13  C   UNL     1       1.041   9.264  19.604  0.00  0.00    +0.000 A 
ATOM     14  H   UNL     1       1.169  11.011  16.952  0.00  0.00    +0.000 HD
ENDBRANCH   2   5
BRANCH   3  15
ATOM     15  C   UNL     1       3.962   5.458  17.876  0.00  0.00    +0.000 C 
ATOM     16  C   UNL     1       5.243   5.780  18.702  0.00  0.00    +0.000 C 
ATOM     17  C   UNL     1       6.267   4.652  18.641  0.00  0.00    +0.000 C 
ATOM     18  O   UNL     1       6.653   4.398  17.294  0.00  0.00    +0.000 OA
ATOM     19  C   UNL     1       5.548   4.000  16.490  0.00  0.00    +0.000 C 
ATOM     20  C   UNL     1       4.492   5.095  16.454  0.00  0.00    +0.000 C 
BRANCH  15  21
ATOM     21  C   UNL     1       3.104   4.340  18.520  0.00  0.00    +0.000 A 
ATOM     22  C   UNL     1       1.947   3.839  17.885  0.00  0.00    +0.000 A 
ATOM     23  C   UNL     1       1.148   2.849  18.474  0.00  0.00    +0.000 A 
ATOM     24  C   UNL     1       1.473   2.344  19.727  0.00  0.00    +0.000 A 
ATOM     25  C   UNL     1       2.597   2.832  20.375  0.00  0.00    +0.000 A 
ATOM     26  F   UNL     1       2.917   2.357  21.586  0.00  0.00    +0.000 F 
ATOM     27  C   UNL     1       3.399   3.815  19.794  0.00  0.00    +0.000 A 
ENDBRANCH  15  21
ENDBRANCH   3  15
TORSDOF 3
ENDMDL
