MODEL 1
REMARK VINA RESULT:      -8.8      0.000      0.000
REMARK  Name = 
REMARK  5 active torsions:
REMARK  status: ('A' for Active; 'I' for Inactive)
REMARK    1  A    between atoms: C_1  and  N_2
REMARK    2  A    between atoms: C_6  and  C_7
REMARK    3  A    between atoms: C_7  and  C_8
REMARK    4  A    between atoms: C_12  and  N_13
REMARK    5  A    between atoms: C_20  and  C_21
REMARK                            x       y       z     vdW  Elec       q    Type
REMARK                         _______ _______ _______ _____ _____    ______ ____
ROOT
ATOM      1  N   UNL     1       2.035   7.719  19.042  0.00  0.00    +0.000 N 
ATOM      2  C   UNL     1       1.435   7.856  20.371  0.00  0.00    +0.000 C 
ATOM      3  C   UNL     1       0.912   9.266  20.367  0.00  0.00    +0.000 A 
ATOM      4  C   UNL     1       1.193   9.846  19.139  0.00  0.00    +0.000 A 
ATOM      5  C   UNL     1       0.809  11.126  18.833  0.00  0.00    +0.000 A 
ATOM      6  N   UNL     1       0.149  11.884  19.734  0.00  0.00    +0.000 NA
ATOM      7  C   UNL     1      -0.110  11.322  20.948  0.00  0.00    +0.000 A 
ATOM      8  C   UNL     1       0.244  10.021  21.322  0.00  0.00    +0.000 A 
ATOM      9  C   UNL     1       1.906   8.901  18.304  0.00  0.00    +0.000 C 
ATOM     10  O   UNL     1       2.265   9.212  17.186  0.00  0.00    +0.000 OA
ENDROOT
BRANCH   1  15
ATOM     11  C   UNL     1       4.398   5.081  17.752  0.00  0.00    +0.000 A 
ATOM     12  C   UNL     1       3.538   3.977  17.707  0.00  0.00    +0.000 A 
ATOM     13  C   UNL     1       2.198   4.126  18.022  0.00  0.00    +0.000 A 
ATOM     14  C   UNL     1       1.712   5.370  18.416  0.00  0.00    +0.000 A 
ATOM     15  C   UNL     1       2.547   6.493  18.528  0.00  0.00    +0.000 A 
ATOM     16  C   UNL     1       3.892   6.339  18.155  0.00  0.00    +0.000 A 
BRANCH  11  17
ATOM     17  C   UNL     1       5.830   4.898  17.299  0.00  0.00    +0.000 C 
BRANCH  17  23
ATOM     18  C   UNL     1       7.740   5.579  19.735  0.00  0.00    +0.000 C 
ATOM     19  N   UNL     1       7.543   6.345  18.533  0.00  0.00    +0.000 N 
ATOM     20  C   UNL     1       8.179   7.513  18.236  0.00  0.00    +0.000 A 
ATOM     21  N   UNL     1       7.779   7.947  17.066  0.00  0.00    +0.000 NA
ATOM     22  N   UNL     1       6.859   7.051  16.584  0.00  0.00    +0.000 NA
ATOM     23  C   UNL     1       6.712   6.086  17.472  0.00  0.00    +0.000 A 
ENDBRANCH  17  23
ENDBRANCH  11  17
ENDBRANCH   1  15
BRANCH   8  24
ATOM     24  C   UNL     1      -0.097   9.553  22.697  0.00  0.00    +0.000 C 
ATOM     25  F   UNL     1       0.998   9.248  23.445  0.00  0.00    +0.000 F 
ATOM     26  F   UNL     1      -0.792  10.483  23.404  0.00  0.00    +0.000 F 
ATOM     27  F   UNL     1      -0.867   8.431  22.690  0.00  0.00    +0.000 F 
ENDBRANCH   8  24
TORSDOF 4
ENDMDL
MODEL 2
REMARK VINA RESULT:      -8.7      2.405      3.751
REMARK  Name = 
REMARK  5 active torsions:
REMARK  status: ('A' for Active; 'I' for Inactive)
REMARK    1  A    between atoms: C_1  and  N_2
REMARK    2  A    between atoms: C_6  and  C_7
REMARK    3  A    between atoms: C_7  and  C_8
REMARK    4  A    between atoms: C_12  and  N_13
REMARK    5  A    between atoms: C_20  and  C_21
REMARK                            x       y       z     vdW  Elec       q    Type
REMARK                         _______ _______ _______ _____ _____    ______ ____
ROOT
ATOM      1  N   UNL     1       2.022   8.319  19.027  0.00  0.00    +0.000 N 
ATOM      2  C   UNL     1       1.396   8.306  20.351  0.00  0.00    +0.000 C 
ATOM      3  C   UNL     1       0.704   9.639  20.417  0.00  0.00    +0.000 A 
ATOM      4  C   UNL     1       0.924  10.319  19.228  0.00  0.00    +0.000 A 
ATOM      5  C   UNL     1       0.389  11.557  18.987  0.00  0.00    +0.000 A 
ATOM      6  N   UNL     1      -0.369  12.177  19.917  0.00  0.00    +0.000 NA
ATOM      7  C   UNL     1      -0.569  11.518  21.093  0.00  0.00    +0.000 A 
ATOM      8  C   UNL     1      -0.061  10.251  21.401  0.00  0.00    +0.000 A 
ATOM      9  C   UNL     1       1.757   9.518  18.354  0.00  0.00    +0.000 C 
ATOM     10  O   UNL     1       2.086   9.933  17.261  0.00  0.00    +0.000 OA
ENDROOT
BRANCH   1  15
ATOM     11  C   UNL     1       2.835   4.799  17.952  0.00  0.00    +0.000 A 
ATOM     12  C   UNL     1       3.939   5.041  17.124  0.00  0.00    +0.000 A 
ATOM     13  C   UNL     1       4.441   6.324  16.990  0.00  0.00    +0.000 A 
ATOM     14  C   UNL     1       3.827   7.382  17.657  0.00  0.00    +0.000 A 
ATOM     15  C   UNL     1       2.686   7.197  18.454  0.00  0.00    +0.000 A 
ATOM     16  C   UNL     1       2.220   5.883  18.622  0.00  0.00    +0.000 A 
BRANCH  11  17
ATOM     17  C   UNL     1       2.384   3.369  18.153  0.00  0.00    +0.000 C 
BRANCH  17  23
ATOM     18  C   UNL     1       4.525   2.276  20.219  0.00  0.00    +0.000 C 
ATOM     19  N   UNL     1       3.122   2.505  20.446  0.00  0.00    +0.000 N 
ATOM     20  C   UNL     1       2.476   2.295  21.627  0.00  0.00    +0.000 A 
ATOM     21  N   UNL     1       1.210   2.606  21.497  0.00  0.00    +0.000 NA
ATOM     22  N   UNL     1       1.016   3.025  20.206  0.00  0.00    +0.000 NA
ATOM     23  C   UNL     1       2.170   2.959  19.568  0.00  0.00    +0.000 A 
ENDBRANCH  17  23
ENDBRANCH  11  17
ENDBRANCH   1  15
BRANCH   8  24
ATOM     24  C   UNL     1      -0.356   9.666  22.741  0.00  0.00    +0.000 C 
ATOM     25  F   UNL     1      -0.982   8.461  22.673  0.00  0.00    +0.000 F 
ATOM     26  F   UNL     1       0.769   9.468  23.479  0.00  0.00    +0.000 F 
ATOM     27  F   UNL     1      -1.163  10.464  23.492  0.00  0.00    +0.000 F 
ENDBRANCH   8  24
TORSDOF 4
ENDMDL
MODEL 3
REMARK VINA RESULT:      -8.6      2.304      3.823
REMARK  Name = 
REMARK  5 active torsions:
REMARK  status: ('A' for Active; 'I' for Inactive)
REMARK    1  A    between atoms: C_1  and  N_2
REMARK    2  A    between atoms: C_6  and  C_7
REMARK    3  A    between atoms: C_7  and  C_8
REMARK    4  A    between atoms: C_12  and  N_13
REMARK    5  A    between atoms: C_20  and  C_21
REMARK                            x       y       z     vdW  Elec       q    Type
REMARK                         _______ _______ _______ _____ _____    ______ ____
ROOT
ATOM      1  N   UNL     1       2.209   8.138  18.921  0.00  0.00    +0.000 N 
ATOM      2  C   UNL     1       1.581   8.096  20.244  0.00  0.00    +0.000 C 
ATOM      3  C   UNL     1       0.758   9.355  20.273  0.00  0.00    +0.000 A 
ATOM      4  C   UNL     1       0.914  10.021  19.067  0.00  0.00    +0.000 A 
ATOM      5  C   UNL     1       0.258  11.193  18.792  0.00  0.00    +0.000 A 
ATOM      6  N   UNL     1      -0.563  11.757  19.704  0.00  0.00    +0.000 NA
ATOM      7  C   UNL     1      -0.701  11.113  20.897  0.00  0.00    +0.000 A 
ATOM      8  C   UNL     1      -0.069   9.912  21.239  0.00  0.00    +0.000 A 
ATOM      9  C   UNL     1       1.827   9.286  18.216  0.00  0.00    +0.000 C 
ATOM     10  O   UNL     1       2.118   9.704  17.113  0.00  0.00    +0.000 OA
ENDROOT
BRANCH   1  15
ATOM     11  C   UNL     1       3.453   4.686  18.061  0.00  0.00    +0.000 A 
ATOM     12  C   UNL     1       4.435   5.004  17.114  0.00  0.00    +0.000 A 
ATOM     13  C   UNL     1       4.725   6.328  16.830  0.00  0.00    +0.000 A 
ATOM     14  C   UNL     1       4.015   7.345  17.465  0.00  0.00    +0.000 A 
ATOM     15  C   UNL     1       2.986   7.074  18.380  0.00  0.00    +0.000 A 
ATOM     16  C   UNL     1       2.739   5.728  18.697  0.00  0.00    +0.000 A 
BRANCH  11  17
ATOM     17  C   UNL     1       3.241   3.231  18.418  0.00  0.00    +0.000 C 
BRANCH  17  23
ATOM     18  C   UNL     1       0.240   2.982  19.407  0.00  0.00    +0.000 C 
ATOM     19  N   UNL     1       1.438   2.857  20.195  0.00  0.00    +0.000 N 
ATOM     20  C   UNL     1       1.472   2.588  21.530  0.00  0.00    +0.000 A 
ATOM     21  N   UNL     1       2.716   2.535  21.937  0.00  0.00    +0.000 NA
ATOM     22  N   UNL     1       3.518   2.777  20.851  0.00  0.00    +0.000 NA
ATOM     23  C   UNL     1       2.746   2.978  19.799  0.00  0.00    +0.000 A 
ENDBRANCH  17  23
ENDBRANCH  11  17
ENDBRANCH   1  15
BRANCH   8  24
ATOM     24  C   UNL     1      -0.310   9.335  22.594  0.00  0.00    +0.000 C 
ATOM     25  F   UNL     1       0.832   9.166  23.313  0.00  0.00    +0.000 F 
ATOM     26  F   UNL     1      -1.123  10.118  23.352  0.00  0.00    +0.000 F 
ATOM     27  F   UNL     1      -0.903   8.113  22.543  0.00  0.00    +0.000 F 
ENDBRANCH   8  24
TORSDOF 4
ENDMDL
MODEL 4
REMARK VINA RESULT:      -8.4      1.650      2.259
REMARK  Name = 
REMARK  5 active torsions:
REMARK  status: ('A' for Active; 'I' for Inactive)
REMARK    1  A    between atoms: C_1  and  N_2
REMARK    2  A    between atoms: C_6  and  C_7
REMARK    3  A    between atoms: C_7  and  C_8
REMARK    4  A    between atoms: C_12  and  N_13
REMARK    5  A    between atoms: C_20  and  C_21
REMARK                            x       y       z     vdW  Elec       q    Type
REMARK                         _______ _______ _______ _____ _____    ______ ____
ROOT
ATOM      1  N   UNL     1       2.042   7.171  19.725  0.00  0.00    +0.000 N 
ATOM      2  C   UNL     1       1.358   7.596  20.948  0.00  0.00    +0.000 C 
ATOM      3  C   UNL     1       0.958   9.014  20.642  0.00  0.00    +0.000 A 
ATOM      4  C   UNL     1       1.378   9.332  19.359  0.00  0.00    +0.000 A 
ATOM      5  C   UNL     1       1.128  10.555  18.793  0.00  0.00    +0.000 A 
ATOM      6  N   UNL     1       0.468  11.513  19.478  0.00  0.00    +0.000 NA
ATOM      7  C   UNL     1       0.073  11.207  20.746  0.00  0.00    +0.000 A 
ATOM      8  C   UNL     1       0.287   9.978  21.380  0.00  0.00    +0.000 A 
ATOM      9  C   UNL     1       2.070   8.200  18.776  0.00  0.00    +0.000 C 
ATOM     10  O   UNL     1       2.537   8.270  17.657  0.00  0.00    +0.000 OA
ENDROOT
BRANCH   1  15
ATOM     11  C   UNL     1       3.588   4.141  18.100  0.00  0.00    +0.000 A 
ATOM     12  C   UNL     1       3.528   3.231  19.163  0.00  0.00    +0.000 A 
ATOM     13  C   UNL     1       2.923   3.593  20.355  0.00  0.00    +0.000 A 
ATOM     14  C   UNL     1       2.401   4.875  20.507  0.00  0.00    +0.000 A 
ATOM     15  C   UNL     1       2.486   5.838  19.489  0.00  0.00    +0.000 A 
ATOM     16  C   UNL     1       3.055   5.441  18.268  0.00  0.00    +0.000 A 
BRANCH  11  17
ATOM     17  C   UNL     1       4.162   3.673  16.781  0.00  0.00    +0.000 C 
BRANCH  17  23
ATOM     18  C   UNL     1       5.515   4.071  13.943  0.00  0.00    +0.000 C 
ATOM     19  N   UNL     1       6.093   4.330  15.235  0.00  0.00    +0.000 N 
ATOM     20  C   UNL     1       7.347   4.818  15.448  0.00  0.00    +0.000 A 
ATOM     21  N   UNL     1       7.558   4.943  16.735  0.00  0.00    +0.000 NA
ATOM     22  N   UNL     1       6.423   4.526  17.383  0.00  0.00    +0.000 NA
ATOM     23  C   UNL     1       5.539   4.151  16.478  0.00  0.00    +0.000 A 
ENDBRANCH  17  23
ENDBRANCH  11  17
ENDBRANCH   1  15
BRANCH   8  24
ATOM     24  C   UNL     1      -0.194   9.801  22.782  0.00  0.00    +0.000 C 
ATOM     25  F   UNL     1      -0.800  10.911  23.283  0.00  0.00    +0.000 F 
ATOM     26  F   UNL     1      -1.098   8.791  22.895  0.00  0.00    +0.000 F 
ATOM     27  F   UNL     1       0.814   9.504  23.646  0.00  0.00    +0.000 F 
ENDBRANCH   8  24
TORSDOF 4
ENDMDL
MODEL 5
REMARK VINA RESULT:      -8.3      1.154      1.808
REMARK  Name = 
REMARK  5 active torsions:
REMARK  status: ('A' for Active; 'I' for Inactive)
REMARK    1  A    between atoms: C_1  and  N_2
REMARK    2  A    between atoms: C_6  and  C_7
REMARK    3  A    between atoms: C_7  and  C_8
REMARK    4  A    between atoms: C_12  and  N_13
REMARK    5  A    between atoms: C_20  and  C_21
REMARK                            x       y       z     vdW  Elec       q    Type
REMARK                         _______ _______ _______ _____ _____    ______ ____
ROOT
ATOM      1  N   UNL     1       2.142   7.361  19.510  0.00  0.00    +0.000 N 
ATOM      2  C   UNL     1       1.475   7.708  20.767  0.00  0.00    +0.000 C 
ATOM      3  C   UNL     1       0.931   9.084  20.498  0.00  0.00    +0.000 A 
ATOM      4  C   UNL     1       1.263   9.454  19.203  0.00  0.00    +0.000 A 
ATOM      5  C   UNL     1       0.874  10.653  18.665  0.00  0.00    +0.000 A 
ATOM      6  N   UNL     1       0.158  11.538  19.391  0.00  0.00    +0.000 NA
ATOM      7  C   UNL     1      -0.152  11.183  20.671  0.00  0.00    +0.000 A 
ATOM      8  C   UNL     1       0.204   9.974  21.278  0.00  0.00    +0.000 A 
ATOM      9  C   UNL     1       2.032   8.398  18.576  0.00  0.00    +0.000 C 
ATOM     10  O   UNL     1       2.441   8.523  17.439  0.00  0.00    +0.000 OA
ENDROOT
BRANCH   1  15
ATOM     11  C   UNL     1       4.614   4.583  18.895  0.00  0.00    +0.000 A 
ATOM     12  C   UNL     1       3.753   3.478  18.900  0.00  0.00    +0.000 A 
ATOM     13  C   UNL     1       2.386   3.662  19.027  0.00  0.00    +0.000 A 
ATOM     14  C   UNL     1       1.870   4.947  19.182  0.00  0.00    +0.000 A 
ATOM     15  C   UNL     1       2.699   6.079  19.237  0.00  0.00    +0.000 A 
ATOM     16  C   UNL     1       4.077   5.882  19.055  0.00  0.00    +0.000 A 
BRANCH  11  17
ATOM     17  C   UNL     1       6.088   4.347  18.649  0.00  0.00    +0.000 C 
BRANCH  17  23
ATOM     18  C   UNL     1       5.500   3.240  15.737  0.00  0.00    +0.000 C 
ATOM     19  N   UNL     1       6.322   4.364  16.100  0.00  0.00    +0.000 N 
ATOM     20  C   UNL     1       6.985   5.165  15.220  0.00  0.00    +0.000 A 
ATOM     21  N   UNL     1       7.633   6.097  15.874  0.00  0.00    +0.000 NA
ATOM     22  N   UNL     1       7.396   5.905  17.211  0.00  0.00    +0.000 NA
ATOM     23  C   UNL     1       6.608   4.855  17.349  0.00  0.00    +0.000 A 
ENDBRANCH  17  23
ENDBRANCH  11  17
ENDBRANCH   1  15
BRANCH   8  24
ATOM     24  C   UNL     1      -0.197   9.738  22.695  0.00  0.00    +0.000 C 
ATOM     25  F   UNL     1      -1.028   8.672  22.845  0.00  0.00    +0.000 F 
ATOM     26  F   UNL     1       0.870   9.503  23.504  0.00  0.00    +0.000 F 
ATOM     27  F   UNL     1      -0.853  10.800  23.235  0.00  0.00    +0.000 F 
ENDBRANCH   8  24
TORSDOF 4
ENDMDL
MODEL 6
REMARK VINA RESULT:      -8.3      1.246      1.764
REMARK  Name = 
REMARK  5 active torsions:
REMARK  status: ('A' for Active; 'I' for Inactive)
REMARK    1  A    between atoms: C_1  and  N_2
REMARK    2  A    between atoms: C_6  and  C_7
REMARK    3  A    between atoms: C_7  and  C_8
REMARK    4  A    between atoms: C_12  and  N_13
REMARK    5  A    between atoms: C_20  and  C_21
REMARK                            x       y       z     vdW  Elec       q    Type
REMARK                         _______ _______ _______ _____ _____    ______ ____
ROOT
ATOM      1  N   UNL     1       1.901   7.319  20.027  0.00  0.00    +0.000 N 
ATOM      2  C   UNL     1       1.215   7.827  21.218  0.00  0.00    +0.000 C 
ATOM      3  C   UNL     1       0.781   9.205  20.802  0.00  0.00    +0.000 A 
ATOM      4  C   UNL     1       1.184   9.428  19.494  0.00  0.00    +0.000 A 
ATOM      5  C   UNL     1       0.901  10.595  18.833  0.00  0.00    +0.000 A 
ATOM      6  N   UNL     1       0.225  11.591  19.445  0.00  0.00    +0.000 NA
ATOM      7  C   UNL     1      -0.155  11.380  20.737  0.00  0.00    +0.000 A 
ATOM      8  C   UNL     1       0.092  10.212  21.466  0.00  0.00    +0.000 A 
ATOM      9  C   UNL     1       1.898   8.269  18.998  0.00  0.00    +0.000 C 
ATOM     10  O   UNL     1       2.355   8.258  17.873  0.00  0.00    +0.000 OA
ENDROOT
BRANCH   1  15
ATOM     11  C   UNL     1       4.092   4.351  19.256  0.00  0.00    +0.000 A 
ATOM     12  C   UNL     1       3.342   3.328  19.851  0.00  0.00    +0.000 A 
ATOM     13  C   UNL     1       2.112   3.608  20.422  0.00  0.00    +0.000 A 
ATOM     14  C   UNL     1       1.634   4.916  20.432  0.00  0.00    +0.000 A 
ATOM     15  C   UNL     1       2.373   5.982  19.896  0.00  0.00    +0.000 A 
ATOM     16  C   UNL     1       3.595   5.675  19.275  0.00  0.00    +0.000 A 
BRANCH  11  17
ATOM     17  C   UNL     1       5.380   3.985  18.552  0.00  0.00    +0.000 C 
BRANCH  17  23
ATOM     18  C   UNL     1       5.649   6.068  16.178  0.00  0.00    +0.000 C 
ATOM     19  N   UNL     1       6.447   5.991  17.373  0.00  0.00    +0.000 N 
ATOM     20  C   UNL     1       7.466   6.837  17.690  0.00  0.00    +0.000 A 
ATOM     21  N   UNL     1       7.979   6.496  18.846  0.00  0.00    +0.000 NA
ATOM     22  N   UNL     1       7.288   5.401  19.299  0.00  0.00    +0.000 NA
ATOM     23  C   UNL     1       6.366   5.092  18.407  0.00  0.00    +0.000 A 
ENDBRANCH  17  23
ENDBRANCH  11  17
ENDBRANCH   1  15
BRANCH   8  24
ATOM     24  C   UNL     1      -0.375  10.137  22.881  0.00  0.00    +0.000 C 
ATOM     25  F   UNL     1      -0.830  11.328  23.357  0.00  0.00    +0.000 F 
ATOM     26  F   UNL     1      -1.392   9.250  23.045  0.00  0.00    +0.000 F 
ATOM     27  F   UNL     1       0.609   9.746  23.735  0.00  0.00    +0.000 F 
ENDBRANCH   8  24
TORSDOF 4
ENDMDL
MODEL 7
REMARK VINA RESULT:      -8.3      1.379      1.915
REMARK  Name = 
REMARK  5 active torsions:
REMARK  status: ('A' for Active; 'I' for Inactive)
REMARK    1  A    between atoms: C_1  and  N_2
REMARK    2  A    between atoms: C_6  and  C_7
REMARK    3  A    between atoms: C_7  and  C_8
REMARK    4  A    between atoms: C_12  and  N_13
REMARK    5  A    between atoms: C_20  and  C_21
REMARK                            x       y       z     vdW  Elec       q    Type
REMARK                         _______ _______ _______ _____ _____    ______ ____
ROOT
ATOM      1  N   UNL     1       2.075   7.312  19.722  0.00  0.00    +0.000 N 
ATOM      2  C   UNL     1       1.395   7.700  20.960  0.00  0.00    +0.000 C 
ATOM      3  C   UNL     1       0.879   9.078  20.650  0.00  0.00    +0.000 A 
ATOM      4  C   UNL     1       1.237   9.411  19.352  0.00  0.00    +0.000 A 
ATOM      5  C   UNL     1       0.878  10.603  18.780  0.00  0.00    +0.000 A 
ATOM      6  N   UNL     1       0.167  11.517  19.474  0.00  0.00    +0.000 NA
ATOM      7  C   UNL     1      -0.169  11.199  20.757  0.00  0.00    +0.000 A 
ATOM      8  C   UNL     1       0.157   9.998  21.397  0.00  0.00    +0.000 A 
ATOM      9  C   UNL     1       1.997   8.328  18.762  0.00  0.00    +0.000 C 
ATOM     10  O   UNL     1       2.426   8.418  17.629  0.00  0.00    +0.000 OA
ENDROOT
BRANCH   1  15
ATOM     11  C   UNL     1       4.486   4.509  18.987  0.00  0.00    +0.000 A 
ATOM     12  C   UNL     1       3.665   3.402  19.238  0.00  0.00    +0.000 A 
ATOM     13  C   UNL     1       2.332   3.585  19.566  0.00  0.00    +0.000 A 
ATOM     14  C   UNL     1       1.815   4.874  19.677  0.00  0.00    +0.000 A 
ATOM     15  C   UNL     1       2.613   6.014  19.488  0.00  0.00    +0.000 A 
ATOM     16  C   UNL     1       3.949   5.813  19.105  0.00  0.00    +0.000 A 
BRANCH  11  17
ATOM     17  C   UNL     1       5.907   4.264  18.530  0.00  0.00    +0.000 C 
BRANCH  17  23
ATOM     18  C   UNL     1       7.320   6.728  17.123  0.00  0.00    +0.000 C 
ATOM     19  N   UNL     1       6.788   5.546  16.498  0.00  0.00    +0.000 N 
ATOM     20  C   UNL     1       6.823   5.285  15.161  0.00  0.00    +0.000 A 
ATOM     21  N   UNL     1       6.261   4.125  14.924  0.00  0.00    +0.000 NA
ATOM     22  N   UNL     1       5.843   3.614  16.126  0.00  0.00    +0.000 NA
ATOM     23  C   UNL     1       6.157   4.474  17.077  0.00  0.00    +0.000 A 
ENDBRANCH  17  23
ENDBRANCH  11  17
ENDBRANCH   1  15
BRANCH   8  24
ATOM     24  C   UNL     1      -0.270   9.803  22.814  0.00  0.00    +0.000 C 
ATOM     25  F   UNL     1      -1.115   8.750  22.977  0.00  0.00    +0.000 F 
ATOM     26  F   UNL     1       0.782   9.579  23.646  0.00  0.00    +0.000 F 
ATOM     27  F   UNL     1      -0.923  10.886  23.315  0.00  0.00    +0.000 F 
ENDBRANCH   8  24
TORSDOF 4
ENDMDL
MODEL 8
REMARK VINA RESULT:      -8.2      4.113      8.297
REMARK  Name = 
REMARK  5 active torsions:
REMARK  status: ('A' for Active; 'I' for Inactive)
REMARK    1  A    between atoms: C_1  and  N_2
REMARK    2  A    between atoms: C_6  and  C_7
REMARK    3  A    between atoms: C_7  and  C_8
REMARK    4  A    between atoms: C_12  and  N_13
REMARK    5  A    between atoms: C_20  and  C_21
REMARK                            x       y       z     vdW  Elec       q    Type
REMARK                         _______ _______ _______ _____ _____    ______ ____
ROOT
ATOM      1  N   UNL     1       2.420   7.086  19.252  0.00  0.00    +0.000 N 
ATOM      2  C   UNL     1       3.377   7.268  18.158  0.00  0.00    +0.000 C 
ATOM      3  C   UNL     1       3.742   5.857  17.784  0.00  0.00    +0.000 A 
ATOM      4  C   UNL     1       3.038   4.981  18.596  0.00  0.00    +0.000 A 
ATOM      5  C   UNL     1       3.146   3.621  18.465  0.00  0.00    +0.000 A 
ATOM      6  N   UNL     1       3.966   3.077  17.540  0.00  0.00    +0.000 NA
ATOM      7  C   UNL     1       4.673   3.938  16.756  0.00  0.00    +0.000 A 
ATOM      8  C   UNL     1       4.603   5.334  16.829  0.00  0.00    +0.000 A 
ATOM      9  C   UNL     1       2.219   5.728  19.528  0.00  0.00    +0.000 C 
ATOM     10  O   UNL     1       1.530   5.153  20.346  0.00  0.00    +0.000 OA
ENDROOT
BRANCH   1  15
ATOM     11  C   UNL     1       0.325  10.188  19.695  0.00  0.00    +0.000 A 
ATOM     12  C   UNL     1       0.077  10.126  21.073  0.00  0.00    +0.000 A 
ATOM     13  C   UNL     1       0.653   9.127  21.839  0.00  0.00    +0.000 A 
ATOM     14  C   UNL     1       1.455   8.163  21.233  0.00  0.00    +0.000 A 
ATOM     15  C   UNL     1       1.688   8.153  19.848  0.00  0.00    +0.000 A 
ATOM     16  C   UNL     1       1.140   9.201  19.092  0.00  0.00    +0.000 A 
BRANCH  11  17
ATOM     17  C   UNL     1      -0.238  11.354  18.913  0.00  0.00    +0.000 C 
BRANCH  17  23
ATOM     18  C   UNL     1      -2.954  12.585  19.988  0.00  0.00    +0.000 C 
ATOM     19  N   UNL     1      -2.770  11.721  18.852  0.00  0.00    +0.000 N 
ATOM     20  C   UNL     1      -3.765  11.294  18.024  0.00  0.00    +0.000 A 
ATOM     21  N   UNL     1      -3.261  10.528  17.089  0.00  0.00    +0.000 NA
ATOM     22  N   UNL     1      -1.909  10.443  17.306  0.00  0.00    +0.000 NA
ATOM     23  C   UNL     1      -1.613  11.159  18.375  0.00  0.00    +0.000 A 
ENDBRANCH  17  23
ENDBRANCH  11  17
ENDBRANCH   1  15
BRANCH   8  24
ATOM     24  C   UNL     1       5.453   6.144  15.909  0.00  0.00    +0.000 C 
ATOM     25  F   UNL     1       4.739   7.025  15.158  0.00  0.00    +0.000 F 
ATOM     26  F   UNL     1       6.383   6.879  16.575  0.00  0.00    +0.000 F 
ATOM     27  F   UNL     1       6.144   5.375  15.025  0.00  0.00    +0.000 F 
ENDBRANCH   8  24
TORSDOF 4
ENDMDL
MODEL 9
REMARK VINA RESULT:      -8.2      4.101      8.303
REMARK  Name = 
REMARK  5 active torsions:
REMARK  status: ('A' for Active; 'I' for Inactive)
REMARK    1  A    between atoms: C_1  and  N_2
REMARK    2  A    between atoms: C_6  and  C_7
REMARK    3  A    between atoms: C_7  and  C_8
REMARK    4  A    between atoms: C_12  and  N_13
REMARK    5  A    between atoms: C_20  and  C_21
REMARK                            x       y       z     vdW  Elec       q    Type
REMARK                         _______ _______ _______ _____ _____    ______ ____
ROOT
ATOM      1  N   UNL     1       2.425   7.085  19.232  0.00  0.00    +0.000 N 
ATOM      2  C   UNL     1       3.386   7.260  18.141  0.00  0.00    +0.000 C 
ATOM      3  C   UNL     1       3.749   5.847  17.774  0.00  0.00    +0.000 A 
ATOM      4  C   UNL     1       3.040   4.976  18.587  0.00  0.00    +0.000 A 
ATOM      5  C   UNL     1       3.145   3.615  18.462  0.00  0.00    +0.000 A 
ATOM      6  N   UNL     1       3.967   3.065  17.542  0.00  0.00    +0.000 NA
ATOM      7  C   UNL     1       4.679   3.921  16.756  0.00  0.00    +0.000 A 
ATOM      8  C   UNL     1       4.612   5.318  16.824  0.00  0.00    +0.000 A 
ATOM      9  C   UNL     1       2.220   5.729  19.513  0.00  0.00    +0.000 C 
ATOM     10  O   UNL     1       1.526   5.158  20.331  0.00  0.00    +0.000 OA
ENDROOT
BRANCH   1  15
ATOM     11  C   UNL     1       0.390  10.229  19.658  0.00  0.00    +0.000 A 
ATOM     12  C   UNL     1       0.079  10.141  21.021  0.00  0.00    +0.000 A 
ATOM     13  C   UNL     1       0.594   9.109  21.787  0.00  0.00    +0.000 A 
ATOM     14  C   UNL     1       1.399   8.139  21.194  0.00  0.00    +0.000 A 
ATOM     15  C   UNL     1       1.693   8.156  19.821  0.00  0.00    +0.000 A 
ATOM     16  C   UNL     1       1.207   9.236  19.067  0.00  0.00    +0.000 A 
BRANCH  11  17
ATOM     17  C   UNL     1      -0.108  11.427  18.881  0.00  0.00    +0.000 C 
BRANCH  17  23
ATOM     18  C   UNL     1      -2.053   9.939  16.869  0.00  0.00    +0.000 C 
ATOM     19  N   UNL     1      -2.407  10.878  17.901  0.00  0.00    +0.000 N 
ATOM     20  C   UNL     1      -3.676  11.275  18.195  0.00  0.00    +0.000 A 
ATOM     21  N   UNL     1      -3.652  12.130  19.188  0.00  0.00    +0.000 NA
ATOM     22  N   UNL     1      -2.341  12.302  19.553  0.00  0.00    +0.000 NA
ATOM     23  C   UNL     1      -1.588  11.550  18.773  0.00  0.00    +0.000 A 
ENDBRANCH  17  23
ENDBRANCH  11  17
ENDBRANCH   1  15
BRANCH   8  24
ATOM     24  C   UNL     1       5.468   6.122  15.903  0.00  0.00    +0.000 C 
ATOM     25  F   UNL     1       6.166   5.359  15.020  0.00  0.00    +0.000 F 
ATOM     26  F   UNL     1       4.744   6.999  15.158  0.00  0.00    +0.000 F 
ATOM     27  F   UNL     1       6.393   6.865  16.568  0.00  0.00    +0.000 F 
ENDBRANCH   8  24
TORSDOF 4
ENDMDL
