MODEL 1
REMARK VINA RESULT:      -8.1      0.000      0.000
REMARK  Name = 
REMARK  5 active torsions:
REMARK  status: ('A' for Active; 'I' for Inactive)
REMARK    1  A    between atoms: C_1  and  C_2
REMARK    2  A    between atoms: C_5  and  C_6
REMARK    3  A    between atoms: C_12  and  N_13
REMARK    4  A    between atoms: C_14  and  C_16
REMARK    5  A    between atoms: C_17  and  C_18
REMARK                            x       y       z     vdW  Elec       q    Type
REMARK                         _______ _______ _______ _____ _____    ______ ____
ROOT
ATOM      1  N   UNL     1       2.366   7.474  19.439  0.00  0.00    +0.000 N 
ATOM      2  C   UNL     1       1.570   8.418  18.811  0.00  0.00    +0.000 C 
ATOM      3  O   UNL     1       1.175   8.309  17.647  0.00  0.00    +0.000 OA
ATOM      4  H   UNL     1       2.852   7.773  20.283  0.00  0.00    +0.000 HD
ENDROOT
BRANCH   2   5
ATOM      5  C   UNL     1       1.268   9.693  19.566  0.00  0.00    +0.000 A 
ATOM      6  C   UNL     1       0.585   9.647  20.738  0.00  0.00    +0.000 A 
ATOM      7  C   UNL     1       0.249   8.390  21.513  0.00  0.00    +0.000 C 
ATOM      8  C   UNL     1       0.082  10.911  21.327  0.00  0.00    +0.000 A 
ATOM      9  C   UNL     1      -0.735  10.976  22.469  0.00  0.00    +0.000 A 
ATOM     10  C   UNL     1      -1.233  12.198  22.938  0.00  0.00    +0.000 A 
ATOM     11  C   UNL     1      -0.929  13.381  22.271  0.00  0.00    +0.000 A 
ATOM     12  C   UNL     1      -0.120  13.340  21.141  0.00  0.00    +0.000 A 
ATOM     13  C   UNL     1       0.372  12.112  20.687  0.00  0.00    +0.000 A 
ATOM     14  O   UNL     1       1.178  12.149  19.543  0.00  0.00    +0.000 OA
ATOM     15  C   UNL     1       1.670  10.989  18.973  0.00  0.00    +0.000 A 
ATOM     16  O   UNL     1       2.432  11.045  18.008  0.00  0.00    +0.000 OA
ENDBRANCH   2   5
BRANCH   1  23
ATOM     17  C   UNL     1       1.170   4.965  20.475  0.00  0.00    +0.000 C 
ATOM     18  C   UNL     1       2.200   5.018  19.380  0.00  0.00    +0.000 A 
ATOM     19  C   UNL     1       2.626   3.794  18.831  0.00  0.00    +0.000 A 
ATOM     20  C   UNL     1       3.587   3.751  17.820  0.00  0.00    +0.000 A 
ATOM     21  C   UNL     1       4.130   4.929  17.307  0.00  0.00    +0.000 A 
ATOM     22  C   UNL     1       3.680   6.147  17.834  0.00  0.00    +0.000 A 
ATOM     23  C   UNL     1       2.750   6.218  18.886  0.00  0.00    +0.000 A 
BRANCH  21  24
ATOM     24  C   UNL     1       5.150   4.855  16.255  0.00  0.00    +0.000 A 
ATOM     25  N   UNL     1       5.480   5.830  15.425  0.00  0.00    +0.000 NA
ATOM     26  C   UNL     1       6.438   5.323  14.589  0.00  0.00    +0.000 A 
ATOM     27  C   UNL     1       6.714   4.018  14.907  0.00  0.00    +0.000 A 
ATOM     28  N   UNL     1       5.892   3.730  15.960  0.00  0.00    +0.000 N 
ATOM     29  H   UNL     1       5.820   2.840  16.430  0.00  0.00    +0.000 HD
ENDBRANCH  21  24
ENDBRANCH   1  23
TORSDOF 3
ENDMDL
MODEL 2
REMARK VINA RESULT:      -7.9      2.278      3.869
REMARK  Name = 
REMARK  5 active torsions:
REMARK  status: ('A' for Active; 'I' for Inactive)
REMARK    1  A    between atoms: C_1  and  C_2
REMARK    2  A    between atoms: C_5  and  C_6
REMARK    3  A    between atoms: C_12  and  N_13
REMARK    4  A    between atoms: C_14  and  C_16
REMARK    5  A    between atoms: C_17  and  C_18
REMARK                            x       y       z     vdW  Elec       q    Type
REMARK                         _______ _______ _______ _____ _____    ______ ____
ROOT
ATOM      1  N   UNL     1       4.448   6.258  18.298  0.00  0.00    +0.000 N 
ATOM      2  C   UNL     1       3.129   5.869  18.456  0.00  0.00    +0.000 C 
ATOM      3  O   UNL     1       2.634   4.893  17.886  0.00  0.00    +0.000 OA
ATOM      4  H   UNL     1       4.685   7.206  18.586  0.00  0.00    +0.000 HD
ENDROOT
BRANCH   2   5
ATOM      5  C   UNL     1       2.232   6.758  19.287  0.00  0.00    +0.000 A 
ATOM      6  C   UNL     1       1.948   8.019  18.872  0.00  0.00    +0.000 A 
ATOM      7  C   UNL     1       2.279   8.594  17.511  0.00  0.00    +0.000 C 
ATOM      8  C   UNL     1       1.284   8.953  19.813  0.00  0.00    +0.000 A 
ATOM      9  C   UNL     1       1.048  10.311  19.537  0.00  0.00    +0.000 A 
ATOM     10  C   UNL     1       0.476  11.159  20.494  0.00  0.00    +0.000 A 
ATOM     11  C   UNL     1       0.133  10.666  21.750  0.00  0.00    +0.000 A 
ATOM     12  C   UNL     1       0.354   9.326  22.043  0.00  0.00    +0.000 A 
ATOM     13  C   UNL     1       0.924   8.492  21.075  0.00  0.00    +0.000 A 
ATOM     14  O   UNL     1       1.119   7.155  21.443  0.00  0.00    +0.000 OA
ATOM     15  C   UNL     1       1.728   6.256  20.586  0.00  0.00    +0.000 A 
ATOM     16  O   UNL     1       1.830   5.070  20.899  0.00  0.00    +0.000 OA
ENDBRANCH   2   5
BRANCH   1  23
ATOM     17  C   UNL     1       7.085   5.663  19.521  0.00  0.00    +0.000 C 
ATOM     18  C   UNL     1       6.698   5.271  18.121  0.00  0.00    +0.000 A 
ATOM     19  C   UNL     1       7.660   4.594  17.348  0.00  0.00    +0.000 A 
ATOM     20  C   UNL     1       7.388   4.204  16.035  0.00  0.00    +0.000 A 
ATOM     21  C   UNL     1       6.140   4.454  15.465  0.00  0.00    +0.000 A 
ATOM     22  C   UNL     1       5.173   5.100  16.249  0.00  0.00    +0.000 A 
ATOM     23  C   UNL     1       5.436   5.547  17.556  0.00  0.00    +0.000 A 
BRANCH  21  24
ATOM     24  C   UNL     1       5.885   4.048  14.078  0.00  0.00    +0.000 A 
ATOM     25  N   UNL     1       4.713   4.070  13.466  0.00  0.00    +0.000 NA
ATOM     26  C   UNL     1       4.922   3.575  12.207  0.00  0.00    +0.000 A 
ATOM     27  C   UNL     1       6.241   3.246  12.030  0.00  0.00    +0.000 A 
ATOM     28  N   UNL     1       6.842   3.546  13.220  0.00  0.00    +0.000 N 
ATOM     29  H   UNL     1       7.815   3.404  13.446  0.00  0.00    +0.000 HD
ENDBRANCH  21  24
ENDBRANCH   1  23
TORSDOF 3
ENDMDL
MODEL 3
REMARK VINA RESULT:      -7.9      3.260      8.123
REMARK  Name = 
REMARK  5 active torsions:
REMARK  status: ('A' for Active; 'I' for Inactive)
REMARK    1  A    between atoms: C_1  and  C_2
REMARK    2  A    between atoms: C_5  and  C_6
REMARK    3  A    between atoms: C_12  and  N_13
REMARK    4  A    between atoms: C_14  and  C_16
REMARK    5  A    between atoms: C_17  and  C_18
REMARK                            x       y       z     vdW  Elec       q    Type
REMARK                         _______ _______ _______ _____ _____    ______ ____
ROOT
ATOM      1  N   UNL     1       1.319   9.769  19.426  0.00  0.00    +0.000 N 
ATOM      2  C   UNL     1       1.858   8.811  18.583  0.00  0.00    +0.000 C 
ATOM      3  O   UNL     1       1.954   8.956  17.362  0.00  0.00    +0.000 OA
ATOM      4  H   UNL     1       1.039   9.457  20.355  0.00  0.00    +0.000 HD
ENDROOT
BRANCH   2   5
ATOM      5  C   UNL     1       2.243   7.481  19.191  0.00  0.00    +0.000 A 
ATOM      6  C   UNL     1       3.135   6.676  18.561  0.00  0.00    +0.000 A 
ATOM      7  C   UNL     1       3.981   7.063  17.366  0.00  0.00    +0.000 C 
ATOM      8  C   UNL     1       3.306   5.281  19.035  0.00  0.00    +0.000 A 
ATOM      9  C   UNL     1       4.109   4.324  18.392  0.00  0.00    +0.000 A 
ATOM     10  C   UNL     1       4.176   3.003  18.851  0.00  0.00    +0.000 A 
ATOM     11  C   UNL     1       3.435   2.610  19.961  0.00  0.00    +0.000 A 
ATOM     12  C   UNL     1       2.636   3.541  20.615  0.00  0.00    +0.000 A 
ATOM     13  C   UNL     1       2.583   4.857  20.145  0.00  0.00    +0.000 A 
ATOM     14  O   UNL     1       1.755   5.737  20.853  0.00  0.00    +0.000 OA
ATOM     15  C   UNL     1       1.581   7.047  20.442  0.00  0.00    +0.000 A 
ATOM     16  O   UNL     1       0.904   7.824  21.114  0.00  0.00    +0.000 OA
ENDBRANCH   2   5
BRANCH   1  23
ATOM     17  C   UNL     1      -1.544  10.314  18.875  0.00  0.00    +0.000 C 
ATOM     18  C   UNL     1      -0.453  11.342  18.754  0.00  0.00    +0.000 A 
ATOM     19  C   UNL     1      -0.822  12.635  18.338  0.00  0.00    +0.000 A 
ATOM     20  C   UNL     1       0.129  13.646  18.189  0.00  0.00    +0.000 A 
ATOM     21  C   UNL     1       1.472  13.404  18.477  0.00  0.00    +0.000 A 
ATOM     22  C   UNL     1       1.832  12.124  18.921  0.00  0.00    +0.000 A 
ATOM     23  C   UNL     1       0.903  11.074  19.034  0.00  0.00    +0.000 A 
BRANCH  21  24
ATOM     24  C   UNL     1       2.454  14.479  18.296  0.00  0.00    +0.000 A 
ATOM     25  N   UNL     1       2.239  15.768  18.502  0.00  0.00    +0.000 NA
ATOM     26  C   UNL     1       3.402  16.413  18.177  0.00  0.00    +0.000 A 
ATOM     27  C   UNL     1       4.355  15.514  17.768  0.00  0.00    +0.000 A 
ATOM     28  N   UNL     1       3.744  14.294  17.845  0.00  0.00    +0.000 N 
ATOM     29  H   UNL     1       4.156  13.408  17.592  0.00  0.00    +0.000 HD
ENDBRANCH  21  24
ENDBRANCH   1  23
TORSDOF 3
ENDMDL
MODEL 4
REMARK VINA RESULT:      -7.8      2.790      4.487
REMARK  Name = 
REMARK  5 active torsions:
REMARK  status: ('A' for Active; 'I' for Inactive)
REMARK    1  A    between atoms: C_1  and  C_2
REMARK    2  A    between atoms: C_5  and  C_6
REMARK    3  A    between atoms: C_12  and  N_13
REMARK    4  A    between atoms: C_14  and  C_16
REMARK    5  A    between atoms: C_17  and  C_18
REMARK                            x       y       z     vdW  Elec       q    Type
REMARK                         _______ _______ _______ _____ _____    ______ ____
ROOT
ATOM      1  N   UNL     1       0.980   9.546  20.533  0.00  0.00    +0.000 N 
ATOM      2  C   UNL     1      -0.294  10.046  20.319  0.00  0.00    +0.000 C 
ATOM      3  O   UNL     1      -1.025   9.673  19.397  0.00  0.00    +0.000 OA
ATOM      4  H   UNL     1       1.593  10.095  21.135  0.00  0.00    +0.000 HD
ENDROOT
BRANCH   2   5
ATOM      5  C   UNL     1      -0.756  11.185  21.199  0.00  0.00    +0.000 A 
ATOM      6  C   UNL     1      -0.965  12.416  20.669  0.00  0.00    +0.000 A 
ATOM      7  C   UNL     1      -0.984  12.747  19.192  0.00  0.00    +0.000 C 
ATOM      8  C   UNL     1      -1.169  13.568  21.581  0.00  0.00    +0.000 A 
ATOM      9  C   UNL     1      -1.277  14.902  21.152  0.00  0.00    +0.000 A 
ATOM     10  C   UNL     1      -1.401  15.953  22.069  0.00  0.00    +0.000 A 
ATOM     11  C   UNL     1      -1.414  15.692  23.436  0.00  0.00    +0.000 A 
ATOM     12  C   UNL     1      -1.311  14.379  23.882  0.00  0.00    +0.000 A 
ATOM     13  C   UNL     1      -1.191  13.341  22.954  0.00  0.00    +0.000 A 
ATOM     14  O   UNL     1      -1.090  12.046  23.477  0.00  0.00    +0.000 OA
ATOM     15  C   UNL     1      -0.908  10.950  22.654  0.00  0.00    +0.000 A 
ATOM     16  O   UNL     1      -0.891   9.814  23.126  0.00  0.00    +0.000 OA
ENDBRANCH   2   5
BRANCH   1  23
ATOM     17  C   UNL     1       2.066  10.024  17.815  0.00  0.00    +0.000 C 
ATOM     18  C   UNL     1       2.087   8.689  18.508  0.00  0.00    +0.000 A 
ATOM     19  C   UNL     1       2.645   7.603  17.806  0.00  0.00    +0.000 A 
ATOM     20  C   UNL     1       2.694   6.327  18.371  0.00  0.00    +0.000 A 
ATOM     21  C   UNL     1       2.213   6.103  19.660  0.00  0.00    +0.000 A 
ATOM     22  C   UNL     1       1.686   7.193  20.367  0.00  0.00    +0.000 A 
ATOM     23  C   UNL     1       1.581   8.478  19.806  0.00  0.00    +0.000 A 
BRANCH  21  24
ATOM     24  C   UNL     1       2.261   4.749  20.223  0.00  0.00    +0.000 A 
ATOM     25  N   UNL     1       3.284   3.914  20.148  0.00  0.00    +0.000 NA
ATOM     26  C   UNL     1       2.889   2.758  20.767  0.00  0.00    +0.000 A 
ATOM     27  C   UNL     1       1.607   2.876  21.239  0.00  0.00    +0.000 A 
ATOM     28  N   UNL     1       1.217   4.139  20.888  0.00  0.00    +0.000 N 
ATOM     29  H   UNL     1       0.312   4.550  21.061  0.00  0.00    +0.000 HD
ENDBRANCH  21  24
ENDBRANCH   1  23
TORSDOF 3
ENDMDL
MODEL 5
REMARK VINA RESULT:      -7.8      1.491      2.215
REMARK  Name = 
REMARK  5 active torsions:
REMARK  status: ('A' for Active; 'I' for Inactive)
REMARK    1  A    between atoms: C_1  and  C_2
REMARK    2  A    between atoms: C_5  and  C_6
REMARK    3  A    between atoms: C_12  and  N_13
REMARK    4  A    between atoms: C_14  and  C_16
REMARK    5  A    between atoms: C_17  and  C_18
REMARK                            x       y       z     vdW  Elec       q    Type
REMARK                         _______ _______ _______ _____ _____    ______ ____
ROOT
ATOM      1  N   UNL     1       3.742   6.549  18.140  0.00  0.00    +0.000 N 
ATOM      2  C   UNL     1       2.387   6.826  18.205  0.00  0.00    +0.000 C 
ATOM      3  O   UNL     1       1.528   6.162  17.618  0.00  0.00    +0.000 OA
ATOM      4  H   UNL     1       4.377   7.293  18.426  0.00  0.00    +0.000 HD
ENDROOT
BRANCH   2   5
ATOM      5  C   UNL     1       1.962   8.073  18.947  0.00  0.00    +0.000 A 
ATOM      6  C   UNL     1       1.537   7.990  20.233  0.00  0.00    +0.000 A 
ATOM      7  C   UNL     1       1.635   6.764  21.115  0.00  0.00    +0.000 C 
ATOM      8  C   UNL     1       0.891   9.171  20.854  0.00  0.00    +0.000 A 
ATOM      9  C   UNL     1       0.308   9.167  22.133  0.00  0.00    +0.000 A 
ATOM     10  C   UNL     1      -0.347  10.297  22.638  0.00  0.00    +0.000 A 
ATOM     11  C   UNL     1      -0.438  11.454  21.870  0.00  0.00    +0.000 A 
ATOM     12  C   UNL     1       0.134  11.482  20.603  0.00  0.00    +0.000 A 
ATOM     13  C   UNL     1       0.787  10.346  20.115  0.00  0.00    +0.000 A 
ATOM     14  O   UNL     1       1.336  10.447  18.831  0.00  0.00    +0.000 OA
ATOM     15  C   UNL     1       1.953   9.367  18.226  0.00  0.00    +0.000 A 
ATOM     16  O   UNL     1       2.489   9.494  17.126  0.00  0.00    +0.000 OA
ENDBRANCH   2   5
BRANCH   1  23
ATOM     17  C   UNL     1       3.406   3.834  19.285  0.00  0.00    +0.000 C 
ATOM     18  C   UNL     1       4.185   4.129  18.032  0.00  0.00    +0.000 A 
ATOM     19  C   UNL     1       4.800   3.044  17.380  0.00  0.00    +0.000 A 
ATOM     20  C   UNL     1       5.551   3.230  16.219  0.00  0.00    +0.000 A 
ATOM     21  C   UNL     1       5.687   4.500  15.658  0.00  0.00    +0.000 A 
ATOM     22  C   UNL     1       5.047   5.574  16.293  0.00  0.00    +0.000 A 
ATOM     23  C   UNL     1       4.325   5.423  17.489  0.00  0.00    +0.000 A 
BRANCH  21  24
ATOM     24  C   UNL     1       6.496   4.671  14.446  0.00  0.00    +0.000 A 
ATOM     25  N   UNL     1       7.524   5.492  14.308  0.00  0.00    +0.000 NA
ATOM     26  C   UNL     1       7.955   5.362  13.015  0.00  0.00    +0.000 A 
ATOM     27  C   UNL     1       7.190   4.445  12.341  0.00  0.00    +0.000 A 
ATOM     28  N   UNL     1       6.268   4.015  13.253  0.00  0.00    +0.000 N 
ATOM     29  H   UNL     1       5.529   3.350  13.081  0.00  0.00    +0.000 HD
ENDBRANCH  21  24
ENDBRANCH   1  23
TORSDOF 3
ENDMDL
MODEL 6
REMARK VINA RESULT:      -7.8      1.850      2.205
REMARK  Name = 
REMARK  5 active torsions:
REMARK  status: ('A' for Active; 'I' for Inactive)
REMARK    1  A    between atoms: C_1  and  C_2
REMARK    2  A    between atoms: C_5  and  C_6
REMARK    3  A    between atoms: C_12  and  N_13
REMARK    4  A    between atoms: C_14  and  C_16
REMARK    5  A    between atoms: C_17  and  C_18
REMARK                            x       y       z     vdW  Elec       q    Type
REMARK                         _______ _______ _______ _____ _____    ______ ____
ROOT
ATOM      1  N   UNL     1       1.722   7.023  20.342  0.00  0.00    +0.000 N 
ATOM      2  C   UNL     1       1.588   8.243  19.699  0.00  0.00    +0.000 C 
ATOM      3  O   UNL     1       2.156   8.519  18.639  0.00  0.00    +0.000 OA
ATOM      4  H   UNL     1       1.441   6.987  21.321  0.00  0.00    +0.000 HD
ENDROOT
BRANCH   2   5
ATOM      5  C   UNL     1       0.790   9.319  20.400  0.00  0.00    +0.000 A 
ATOM      6  C   UNL     1      -0.083  10.086  19.699  0.00  0.00    +0.000 A 
ATOM      7  C   UNL     1      -0.518   9.843  18.270  0.00  0.00    +0.000 C 
ATOM      8  C   UNL     1      -0.661  11.290  20.344  0.00  0.00    +0.000 A 
ATOM      9  C   UNL     1      -1.480  12.221  19.682  0.00  0.00    +0.000 A 
ATOM     10  C   UNL     1      -1.940  13.374  20.329  0.00  0.00    +0.000 A 
ATOM     11  C   UNL     1      -1.585  13.624  21.651  0.00  0.00    +0.000 A 
ATOM     12  C   UNL     1      -0.778  12.716  22.326  0.00  0.00    +0.000 A 
ATOM     13  C   UNL     1      -0.329  11.567  21.667  0.00  0.00    +0.000 A 
ATOM     14  O   UNL     1       0.481  10.699  22.410  0.00  0.00    +0.000 OA
ATOM     15  C   UNL     1       1.029   9.564  21.840  0.00  0.00    +0.000 A 
ATOM     16  O   UNL     1       1.681   8.778  22.527  0.00  0.00    +0.000 OA
ENDBRANCH   2   5
BRANCH   1  23
ATOM     17  C   UNL     1       0.562   4.304  20.584  0.00  0.00    +0.000 C 
ATOM     18  C   UNL     1       1.898   4.597  19.957  0.00  0.00    +0.000 A 
ATOM     19  C   UNL     1       2.641   3.504  19.473  0.00  0.00    +0.000 A 
ATOM     20  C   UNL     1       3.895   3.685  18.887  0.00  0.00    +0.000 A 
ATOM     21  C   UNL     1       4.432   4.964  18.742  0.00  0.00    +0.000 A 
ATOM     22  C   UNL     1       3.675   6.053  19.197  0.00  0.00    +0.000 A 
ATOM     23  C   UNL     1       2.432   5.896  19.834  0.00  0.00    +0.000 A 
BRANCH  21  24
ATOM     24  C   UNL     1       5.759   5.126  18.138  0.00  0.00    +0.000 A 
ATOM     25  N   UNL     1       6.190   6.193  17.486  0.00  0.00    +0.000 NA
ATOM     26  C   UNL     1       7.458   5.904  17.060  0.00  0.00    +0.000 A 
ATOM     27  C   UNL     1       7.825   4.643  17.456  0.00  0.00    +0.000 A 
ATOM     28  N   UNL     1       6.742   4.158  18.135  0.00  0.00    +0.000 N 
ATOM     29  H   UNL     1       6.662   3.239  18.544  0.00  0.00    +0.000 HD
ENDBRANCH  21  24
ENDBRANCH   1  23
TORSDOF 3
ENDMDL
MODEL 7
REMARK VINA RESULT:      -7.7      3.417      6.341
REMARK  Name = 
REMARK  5 active torsions:
REMARK  status: ('A' for Active; 'I' for Inactive)
REMARK    1  A    between atoms: C_1  and  C_2
REMARK    2  A    between atoms: C_5  and  C_6
REMARK    3  A    between atoms: C_12  and  N_13
REMARK    4  A    between atoms: C_14  and  C_16
REMARK    5  A    between atoms: C_17  and  C_18
REMARK                            x       y       z     vdW  Elec       q    Type
REMARK                         _______ _______ _______ _____ _____    ______ ____
ROOT
ATOM      1  N   UNL     1       0.596  12.490  20.144  0.00  0.00    +0.000 N 
ATOM      2  C   UNL     1       1.463  13.489  20.554  0.00  0.00    +0.000 C 
ATOM      3  O   UNL     1       2.149  13.417  21.576  0.00  0.00    +0.000 OA
ATOM      4  H   UNL     1      -0.110  12.748  19.455  0.00  0.00    +0.000 HD
ENDROOT
BRANCH   2   5
ATOM      5  C   UNL     1       1.476  14.774  19.757  0.00  0.00    +0.000 A 
ATOM      6  C   UNL     1       0.344  15.511  19.632  0.00  0.00    +0.000 A 
ATOM      7  C   UNL     1      -0.940  15.290  20.403  0.00  0.00    +0.000 C 
ATOM      8  C   UNL     1       0.311  16.620  18.649  0.00  0.00    +0.000 A 
ATOM      9  C   UNL     1      -0.837  17.374  18.350  0.00  0.00    +0.000 A 
ATOM     10  C   UNL     1      -0.819  18.365  17.361  0.00  0.00    +0.000 A 
ATOM     11  C   UNL     1       0.347  18.619  16.645  0.00  0.00    +0.000 A 
ATOM     12  C   UNL     1       1.495  17.888  16.926  0.00  0.00    +0.000 A 
ATOM     13  C   UNL     1       1.462  16.904  17.919  0.00  0.00    +0.000 A 
ATOM     14  O   UNL     1       2.655  16.207  18.145  0.00  0.00    +0.000 OA
ATOM     15  C   UNL     1       2.721  15.173  19.061  0.00  0.00    +0.000 A 
ATOM     16  O   UNL     1       3.794  14.618  19.296  0.00  0.00    +0.000 OA
ENDBRANCH   2   5
BRANCH   1  23
ATOM     17  C   UNL     1      -1.053  12.215  22.594  0.00  0.00    +0.000 C 
ATOM     18  C   UNL     1      -0.319  11.076  21.941  0.00  0.00    +0.000 A 
ATOM     19  C   UNL     1      -0.415   9.810  22.548  0.00  0.00    +0.000 A 
ATOM     20  C   UNL     1       0.244   8.701  22.014  0.00  0.00    +0.000 A 
ATOM     21  C   UNL     1       0.995   8.817  20.845  0.00  0.00    +0.000 A 
ATOM     22  C   UNL     1       1.063  10.073  20.226  0.00  0.00    +0.000 A 
ATOM     23  C   UNL     1       0.450  11.216  20.767  0.00  0.00    +0.000 A 
BRANCH  21  24
ATOM     24  C   UNL     1       1.691   7.639  20.314  0.00  0.00    +0.000 A 
ATOM     25  N   UNL     1       2.324   7.570  19.155  0.00  0.00    +0.000 NA
ATOM     26  C   UNL     1       2.789   6.287  19.042  0.00  0.00    +0.000 A 
ATOM     27  C   UNL     1       2.448   5.550  20.147  0.00  0.00    +0.000 A 
ATOM     28  N   UNL     1       1.751   6.414  20.945  0.00  0.00    +0.000 N 
ATOM     29  H   UNL     1       1.329   6.190  21.834  0.00  0.00    +0.000 HD
ENDBRANCH  21  24
ENDBRANCH   1  23
TORSDOF 3
ENDMDL
MODEL 8
REMARK VINA RESULT:      -7.6      2.698      4.349
REMARK  Name = 
REMARK  5 active torsions:
REMARK  status: ('A' for Active; 'I' for Inactive)
REMARK    1  A    between atoms: C_1  and  C_2
REMARK    2  A    between atoms: C_5  and  C_6
REMARK    3  A    between atoms: C_12  and  N_13
REMARK    4  A    between atoms: C_14  and  C_16
REMARK    5  A    between atoms: C_17  and  C_18
REMARK                            x       y       z     vdW  Elec       q    Type
REMARK                         _______ _______ _______ _____ _____    ______ ____
ROOT
ATOM      1  N   UNL     1       0.494   8.889  20.194  0.00  0.00    +0.000 N 
ATOM      2  C   UNL     1       0.731   9.894  21.116  0.00  0.00    +0.000 C 
ATOM      3  O   UNL     1       1.838  10.112  21.616  0.00  0.00    +0.000 OA
ATOM      4  H   UNL     1      -0.478   8.618  20.049  0.00  0.00    +0.000 HD
ENDROOT
BRANCH   2   5
ATOM      5  C   UNL     1      -0.459  10.685  21.610  0.00  0.00    +0.000 A 
ATOM      6  C   UNL     1      -1.131  11.507  20.764  0.00  0.00    +0.000 A 
ATOM      7  C   UNL     1      -0.940  11.572  19.263  0.00  0.00    +0.000 C 
ATOM      8  C   UNL     1      -2.124  12.457  21.320  0.00  0.00    +0.000 A 
ATOM      9  C   UNL     1      -2.791  13.432  20.560  0.00  0.00    +0.000 A 
ATOM     10  C   UNL     1      -3.669  14.345  21.157  0.00  0.00    +0.000 A 
ATOM     11  C   UNL     1      -3.894  14.305  22.530  0.00  0.00    +0.000 A 
ATOM     12  C   UNL     1      -3.247  13.346  23.301  0.00  0.00    +0.000 A 
ATOM     13  C   UNL     1      -2.375  12.440  22.689  0.00  0.00    +0.000 A 
ATOM     14  O   UNL     1      -1.758  11.505  23.529  0.00  0.00    +0.000 OA
ATOM     15  C   UNL     1      -0.833  10.600  23.040  0.00  0.00    +0.000 A 
ATOM     16  O   UNL     1      -0.353   9.742  23.780  0.00  0.00    +0.000 OA
ENDBRANCH   2   5
BRANCH   1  23
ATOM     17  C   UNL     1       2.017   9.798  17.817  0.00  0.00    +0.000 C 
ATOM     18  C   UNL     1       2.209   8.461  18.479  0.00  0.00    +0.000 A 
ATOM     19  C   UNL     1       3.162   7.590  17.917  0.00  0.00    +0.000 A 
ATOM     20  C   UNL     1       3.394   6.326  18.461  0.00  0.00    +0.000 A 
ATOM     21  C   UNL     1       2.703   5.904  19.597  0.00  0.00    +0.000 A 
ATOM     22  C   UNL     1       1.778   6.787  20.172  0.00  0.00    +0.000 A 
ATOM     23  C   UNL     1       1.489   8.046  19.618  0.00  0.00    +0.000 A 
BRANCH  21  24
ATOM     24  C   UNL     1       2.955   4.564  20.139  0.00  0.00    +0.000 A 
ATOM     25  N   UNL     1       3.866   3.711  19.705  0.00  0.00    +0.000 NA
ATOM     26  C   UNL     1       3.730   2.578  20.462  0.00  0.00    +0.000 A 
ATOM     27  C   UNL     1       2.726   2.730  21.383  0.00  0.00    +0.000 A 
ATOM     28  N   UNL     1       2.239   3.989  21.169  0.00  0.00    +0.000 N 
ATOM     29  H   UNL     1       1.471   4.419  21.662  0.00  0.00    +0.000 HD
ENDBRANCH  21  24
ENDBRANCH   1  23
TORSDOF 3
ENDMDL
MODEL 9
REMARK VINA RESULT:      -7.6      3.642      9.067
REMARK  Name = 
REMARK  5 active torsions:
REMARK  status: ('A' for Active; 'I' for Inactive)
REMARK    1  A    between atoms: C_1  and  C_2
REMARK    2  A    between atoms: C_5  and  C_6
REMARK    3  A    between atoms: C_12  and  N_13
REMARK    4  A    between atoms: C_14  and  C_16
REMARK    5  A    between atoms: C_17  and  C_18
REMARK                            x       y       z     vdW  Elec       q    Type
REMARK                         _______ _______ _______ _____ _____    ______ ____
ROOT
ATOM      1  N   UNL     1       0.608  11.681  20.831  0.00  0.00    +0.000 N 
ATOM      2  C   UNL     1       0.145  10.625  20.063  0.00  0.00    +0.000 C 
ATOM      3  O   UNL     1      -0.925  10.647  19.449  0.00  0.00    +0.000 OA
ATOM      4  H   UNL     1       1.347  11.473  21.501  0.00  0.00    +0.000 HD
ENDROOT
BRANCH   2   5
ATOM      5  C   UNL     1       0.951   9.346  20.077  0.00  0.00    +0.000 A 
ATOM      6  C   UNL     1       1.702   9.001  19.001  0.00  0.00    +0.000 A 
ATOM      7  C   UNL     1       1.999   9.891  17.813  0.00  0.00    +0.000 C 
ATOM      8  C   UNL     1       2.276   7.635  18.932  0.00  0.00    +0.000 A 
ATOM      9  C   UNL     1       2.969   7.129  17.819  0.00  0.00    +0.000 A 
ATOM     10  C   UNL     1       3.428   5.806  17.788  0.00  0.00    +0.000 A 
ATOM     11  C   UNL     1       3.199   4.961  18.869  0.00  0.00    +0.000 A 
ATOM     12  C   UNL     1       2.519   5.442  19.982  0.00  0.00    +0.000 A 
ATOM     13  C   UNL     1       2.069   6.765  19.998  0.00  0.00    +0.000 A 
ATOM     14  O   UNL     1       1.390   7.178  21.151  0.00  0.00    +0.000 OA
ATOM     15  C   UNL     1       0.850   8.448  21.251  0.00  0.00    +0.000 A 
ATOM     16  O   UNL     1       0.317   8.816  22.297  0.00  0.00    +0.000 OA
ENDBRANCH   2   5
BRANCH   1  23
ATOM     17  C   UNL     1      -1.350  12.204  22.998  0.00  0.00    +0.000 C 
ATOM     18  C   UNL     1      -0.958  13.215  21.955  0.00  0.00    +0.000 A 
ATOM     19  C   UNL     1      -1.577  14.478  22.011  0.00  0.00    +0.000 A 
ATOM     20  C   UNL     1      -1.281  15.470  21.074  0.00  0.00    +0.000 A 
ATOM     21  C   UNL     1      -0.339  15.241  20.072  0.00  0.00    +0.000 A 
ATOM     22  C   UNL     1       0.298  13.992  20.038  0.00  0.00    +0.000 A 
ATOM     23  C   UNL     1      -0.015  12.959  20.938  0.00  0.00    +0.000 A 
BRANCH  21  24
ATOM     24  C   UNL     1      -0.058  16.295  19.091  0.00  0.00    +0.000 A 
ATOM     25  N   UNL     1       1.100  16.911  18.925  0.00  0.00    +0.000 NA
ATOM     26  C   UNL     1       0.908  17.841  17.939  0.00  0.00    +0.000 A 
ATOM     27  C   UNL     1      -0.383  17.800  17.481  0.00  0.00    +0.000 A 
ATOM     28  N   UNL     1      -0.988  16.821  18.218  0.00  0.00    +0.000 N 
ATOM     29  H   UNL     1      -1.956  16.543  18.155  0.00  0.00    +0.000 HD
ENDBRANCH  21  24
ENDBRANCH   1  23
TORSDOF 3
ENDMDL
