MODEL 1
REMARK VINA RESULT:      -9.3      0.000      0.000
REMARK  Name = 
REMARK  5 active torsions:
REMARK  status: ('A' for Active; 'I' for Inactive)
REMARK    1  A    between atoms: C_2  and  C_3
REMARK    2  A    between atoms: C_3  and  C_4
REMARK    3  A    between atoms: C_6  and  C_7
REMARK    4  A    between atoms: N_21  and  C_22
REMARK    5  A    between atoms: C_22  and  C_23
REMARK                            x       y       z     vdW  Elec       q    Type
REMARK                         _______ _______ _______ _____ _____    ______ ____
ROOT
ATOM      1  C   UNL     1       3.745   3.817  19.959  0.00  0.00    +0.000 C 
ATOM      2  S   UNL     1       4.988   4.851  19.150  0.00  0.00    +0.000 S 
ATOM      3  C   UNL     1       4.885   3.889  17.695  0.00  0.00    +0.000 C 
ATOM      4  N   UNL     1       4.031   2.917  17.706  0.00  0.00    +0.000 NA
ATOM      5  C   UNL     1       3.343   2.812  18.895  0.00  0.00    +0.000 C 
ATOM      6  O   UNL     1       2.475   1.971  19.104  0.00  0.00    +0.000 OA
ENDROOT
BRANCH   3   7
ATOM      7  C   UNL     1       5.747   4.255  16.537  0.00  0.00    +0.000 A 
ATOM      8  C   UNL     1       5.432   3.700  15.352  0.00  0.00    +0.000 A 
ATOM      9  C   UNL     1       6.180   4.039  14.148  0.00  0.00    +0.000 A 
ATOM     10  C   UNL     1       5.918   3.465  12.903  0.00  0.00    +0.000 A 
ATOM     11  C   UNL     1       6.651   3.866  11.777  0.00  0.00    +0.000 A 
ATOM     12  C   UNL     1       7.642   4.843  11.887  0.00  0.00    +0.000 A 
ATOM     13  C   UNL     1       7.911   5.416  13.125  0.00  0.00    +0.000 A 
ATOM     14  C   UNL     1       7.180   5.003  14.236  0.00  0.00    +0.000 A 
ATOM     15  O   UNL     1       7.509   5.586  15.468  0.00  0.00    +0.000 OA
ATOM     16  C   UNL     1       6.915   5.165  16.653  0.00  0.00    +0.000 A 
ATOM     17  O   UNL     1       7.381   5.525  17.727  0.00  0.00    +0.000 OA
ENDBRANCH   3   7
BRANCH   1  18
ATOM     18  C   UNL     1       2.549   4.578  20.512  0.00  0.00    +0.000 C 
BRANCH  18  20
ATOM     19  O   UNL     1       1.900   5.717  18.497  0.00  0.00    +0.000 OA
ATOM     20  C   UNL     1       2.194   5.797  19.684  0.00  0.00    +0.000 C 
ATOM     21  N   UNL     1       2.224   6.985  20.370  0.00  0.00    +0.000 N 
ATOM     22  H   UNL     1       2.358   6.995  21.373  0.00  0.00    +0.000 HD
BRANCH  21  23
ATOM     23  C   UNL     1       1.865   8.235  19.738  0.00  0.00    +0.000 C 
BRANCH  23  24
ATOM     24  C   UNL     1       0.968   9.057  20.623  0.00  0.00    +0.000 A 
ATOM     25  C   UNL     1       0.877   8.789  21.996  0.00  0.00    +0.000 A 
ATOM     26  C   UNL     1       0.077   9.581  22.820  0.00  0.00    +0.000 A 
ATOM     27  C   UNL     1      -0.644  10.645  22.281  0.00  0.00    +0.000 A 
ATOM     28  C   UNL     1      -0.575  10.912  20.915  0.00  0.00    +0.000 A 
ATOM     29  C   UNL     1       0.226  10.121  20.089  0.00  0.00    +0.000 A 
ENDBRANCH  23  24
ENDBRANCH  21  23
ENDBRANCH  18  20
ENDBRANCH   1  18
TORSDOF 5
ENDMDL
MODEL 2
REMARK VINA RESULT:      -9.2      2.272      8.061
REMARK  Name = 
REMARK  5 active torsions:
REMARK  status: ('A' for Active; 'I' for Inactive)
REMARK    1  A    between atoms: C_2  and  C_3
REMARK    2  A    between atoms: C_3  and  C_4
REMARK    3  A    between atoms: C_6  and  C_7
REMARK    4  A    between atoms: N_21  and  C_22
REMARK    5  A    between atoms: C_22  and  C_23
REMARK                            x       y       z     vdW  Elec       q    Type
REMARK                         _______ _______ _______ _____ _____    ______ ____
ROOT
ATOM      1  C   UNL     1       3.032   3.421  18.756  0.00  0.00    +0.000 C 
ATOM      2  S   UNL     1       1.701   4.629  18.566  0.00  0.00    +0.000 S 
ATOM      3  C   UNL     1       2.583   5.797  19.521  0.00  0.00    +0.000 C 
ATOM      4  N   UNL     1       3.751   5.432  19.942  0.00  0.00    +0.000 NA
ATOM      5  C   UNL     1       4.093   4.155  19.555  0.00  0.00    +0.000 C 
ATOM      6  O   UNL     1       5.165   3.628  19.833  0.00  0.00    +0.000 OA
ENDROOT
BRANCH   3   7
ATOM      7  C   UNL     1       1.966   7.130  19.764  0.00  0.00    +0.000 A 
ATOM      8  C   UNL     1       1.319   7.290  20.933  0.00  0.00    +0.000 A 
ATOM      9  C   UNL     1       0.730   8.575  21.288  0.00  0.00    +0.000 A 
ATOM     10  C   UNL     1       0.017   8.784  22.471  0.00  0.00    +0.000 A 
ATOM     11  C   UNL     1      -0.491  10.056  22.768  0.00  0.00    +0.000 A 
ATOM     12  C   UNL     1      -0.285  11.125  21.894  0.00  0.00    +0.000 A 
ATOM     13  C   UNL     1       0.421  10.923  20.712  0.00  0.00    +0.000 A 
ATOM     14  C   UNL     1       0.913   9.652  20.426  0.00  0.00    +0.000 A 
ATOM     15  O   UNL     1       1.589   9.490  19.209  0.00  0.00    +0.000 OA
ATOM     16  C   UNL     1       2.023   8.241  18.780  0.00  0.00    +0.000 A 
ATOM     17  O   UNL     1       2.402   8.093  17.624  0.00  0.00    +0.000 OA
ENDBRANCH   3   7
BRANCH   1  18
ATOM     18  C   UNL     1       3.578   2.868  17.447  0.00  0.00    +0.000 C 
BRANCH  18  20
ATOM     19  O   UNL     1       4.062   4.896  16.252  0.00  0.00    +0.000 OA
ATOM     20  C   UNL     1       4.483   3.847  16.727  0.00  0.00    +0.000 C 
ATOM     21  N   UNL     1       5.799   3.469  16.658  0.00  0.00    +0.000 N 
ATOM     22  H   UNL     1       6.126   2.654  17.161  0.00  0.00    +0.000 HD
BRANCH  21  23
ATOM     23  C   UNL     1       6.800   4.313  16.045  0.00  0.00    +0.000 C 
BRANCH  23  24
ATOM     24  C   UNL     1       7.251   5.397  16.986  0.00  0.00    +0.000 A 
ATOM     25  C   UNL     1       7.718   5.082  18.269  0.00  0.00    +0.000 A 
ATOM     26  C   UNL     1       8.175   6.086  19.122  0.00  0.00    +0.000 A 
ATOM     27  C   UNL     1       8.166   7.416  18.705  0.00  0.00    +0.000 A 
ATOM     28  C   UNL     1       7.688   7.744  17.438  0.00  0.00    +0.000 A 
ATOM     29  C   UNL     1       7.231   6.741  16.582  0.00  0.00    +0.000 A 
ENDBRANCH  23  24
ENDBRANCH  21  23
ENDBRANCH  18  20
ENDBRANCH   1  18
TORSDOF 5
ENDMDL
MODEL 3
REMARK VINA RESULT:      -9.1      0.704      1.166
REMARK  Name = 
REMARK  5 active torsions:
REMARK  status: ('A' for Active; 'I' for Inactive)
REMARK    1  A    between atoms: C_2  and  C_3
REMARK    2  A    between atoms: C_3  and  C_4
REMARK    3  A    between atoms: C_6  and  C_7
REMARK    4  A    between atoms: N_21  and  C_22
REMARK    5  A    between atoms: C_22  and  C_23
REMARK                            x       y       z     vdW  Elec       q    Type
REMARK                         _______ _______ _______ _____ _____    ______ ____
ROOT
ATOM      1  C   UNL     1       3.691   4.745  20.191  0.00  0.00    +0.000 C 
ATOM      2  S   UNL     1       4.671   5.752  19.053  0.00  0.00    +0.000 S 
ATOM      3  C   UNL     1       4.952   4.368  18.023  0.00  0.00    +0.000 C 
ATOM      4  N   UNL     1       4.393   3.258  18.384  0.00  0.00    +0.000 NA
ATOM      5  C   UNL     1       3.664   3.371  19.547  0.00  0.00    +0.000 C 
ATOM      6  O   UNL     1       3.041   2.441  20.048  0.00  0.00    +0.000 OA
ENDROOT
BRANCH   3   7
ATOM      7  C   UNL     1       5.776   4.549  16.796  0.00  0.00    +0.000 A 
ATOM      8  C   UNL     1       5.320   3.967  15.672  0.00  0.00    +0.000 A 
ATOM      9  C   UNL     1       6.024   4.133  14.408  0.00  0.00    +0.000 A 
ATOM     10  C   UNL     1       5.614   3.520  13.221  0.00  0.00    +0.000 A 
ATOM     11  C   UNL     1       6.317   3.754  12.032  0.00  0.00    +0.000 A 
ATOM     12  C   UNL     1       7.425   4.603  12.017  0.00  0.00    +0.000 A 
ATOM     13  C   UNL     1       7.841   5.214  13.195  0.00  0.00    +0.000 A 
ATOM     14  C   UNL     1       7.138   4.966  14.372  0.00  0.00    +0.000 A 
ATOM     15  O   UNL     1       7.615   5.578  15.539  0.00  0.00    +0.000 OA
ATOM     16  C   UNL     1       7.052   5.310  16.782  0.00  0.00    +0.000 A 
ATOM     17  O   UNL     1       7.626   5.675  17.801  0.00  0.00    +0.000 OA
ENDBRANCH   3   7
BRANCH   1  18
ATOM     18  C   UNL     1       2.292   5.278  20.465  0.00  0.00    +0.000 C 
BRANCH  18  20
ATOM     19  O   UNL     1       2.073   6.729  18.561  0.00  0.00    +0.000 OA
ATOM     20  C   UNL     1       2.022   6.603  19.780  0.00  0.00    +0.000 C 
ATOM     21  N   UNL     1       1.712   7.635  20.627  0.00  0.00    +0.000 N 
ATOM     22  H   UNL     1       1.566   7.463  21.614  0.00  0.00    +0.000 HD
BRANCH  21  23
ATOM     23  C   UNL     1       1.381   8.951  20.130  0.00  0.00    +0.000 C 
BRANCH  23  24
ATOM     24  C   UNL     1       0.557   9.721  21.127  0.00  0.00    +0.000 A 
ATOM     25  C   UNL     1       0.073  11.000  20.820  0.00  0.00    +0.000 A 
ATOM     26  C   UNL     1      -0.727  11.691  21.730  0.00  0.00    +0.000 A 
ATOM     27  C   UNL     1      -1.048  11.114  22.957  0.00  0.00    +0.000 A 
ATOM     28  C   UNL     1      -0.560   9.850  23.281  0.00  0.00    +0.000 A 
ATOM     29  C   UNL     1       0.239   9.156  22.372  0.00  0.00    +0.000 A 
ENDBRANCH  23  24
ENDBRANCH  21  23
ENDBRANCH  18  20
ENDBRANCH   1  18
TORSDOF 5
ENDMDL
MODEL 4
REMARK VINA RESULT:      -8.9      2.774      7.970
REMARK  Name = 
REMARK  5 active torsions:
REMARK  status: ('A' for Active; 'I' for Inactive)
REMARK    1  A    between atoms: C_2  and  C_3
REMARK    2  A    between atoms: C_3  and  C_4
REMARK    3  A    between atoms: C_6  and  C_7
REMARK    4  A    between atoms: N_21  and  C_22
REMARK    5  A    between atoms: C_22  and  C_23
REMARK                            x       y       z     vdW  Elec       q    Type
REMARK                         _______ _______ _______ _____ _____    ______ ____
ROOT
ATOM      1  C   UNL     1       1.836   2.685  19.933  0.00  0.00    +0.000 C 
ATOM      2  S   UNL     1       1.192   4.175  19.136  0.00  0.00    +0.000 S 
ATOM      3  C   UNL     1       1.745   5.162  20.469  0.00  0.00    +0.000 C 
ATOM      4  N   UNL     1       2.374   4.549  21.418  0.00  0.00    +0.000 NA
ATOM      5  C   UNL     1       2.492   3.192  21.203  0.00  0.00    +0.000 C 
ATOM      6  O   UNL     1       3.070   2.433  21.973  0.00  0.00    +0.000 OA
ENDROOT
BRANCH   3   7
ATOM      7  C   UNL     1       1.493   6.629  20.420  0.00  0.00    +0.000 A 
ATOM      8  C   UNL     1       0.693   7.135  21.375  0.00  0.00    +0.000 A 
ATOM      9  C   UNL     1       0.431   8.567  21.447  0.00  0.00    +0.000 A 
ATOM     10  C   UNL     1      -0.420   9.139  22.395  0.00  0.00    +0.000 A 
ATOM     11  C   UNL     1      -0.597  10.529  22.431  0.00  0.00    +0.000 A 
ATOM     12  C   UNL     1       0.077  11.354  21.529  0.00  0.00    +0.000 A 
ATOM     13  C   UNL     1       0.924  10.791  20.579  0.00  0.00    +0.000 A 
ATOM     14  C   UNL     1       1.084   9.408  20.550  0.00  0.00    +0.000 A 
ATOM     15  O   UNL     1       1.921   8.885  19.555  0.00  0.00    +0.000 OA
ATOM     16  C   UNL     1       2.063   7.514  19.371  0.00  0.00    +0.000 A 
ATOM     17  O   UNL     1       2.612   7.089  18.362  0.00  0.00    +0.000 OA
ENDBRANCH   3   7
BRANCH   1  18
ATOM     18  C   UNL     1       2.796   1.872  19.076  0.00  0.00    +0.000 C 
BRANCH  18  20
ATOM     19  O   UNL     1       2.493   2.653  16.823  0.00  0.00    +0.000 OA
ATOM     20  C   UNL     1       3.215   2.596  17.813  0.00  0.00    +0.000 C 
ATOM     21  N   UNL     1       4.453   3.183  17.871  0.00  0.00    +0.000 N 
ATOM     22  H   UNL     1       4.967   3.212  18.743  0.00  0.00    +0.000 HD
BRANCH  21  23
ATOM     23  C   UNL     1       4.981   3.952  16.767  0.00  0.00    +0.000 C 
BRANCH  23  24
ATOM     24  C   UNL     1       5.953   4.997  17.244  0.00  0.00    +0.000 A 
ATOM     25  C   UNL     1       5.894   6.307  16.752  0.00  0.00    +0.000 A 
ATOM     26  C   UNL     1       6.769   7.283  17.229  0.00  0.00    +0.000 A 
ATOM     27  C   UNL     1       7.716   6.959  18.199  0.00  0.00    +0.000 A 
ATOM     28  C   UNL     1       7.796   5.655  18.685  0.00  0.00    +0.000 A 
ATOM     29  C   UNL     1       6.921   4.677  18.210  0.00  0.00    +0.000 A 
ENDBRANCH  23  24
ENDBRANCH  21  23
ENDBRANCH  18  20
ENDBRANCH   1  18
TORSDOF 5
ENDMDL
MODEL 5
REMARK VINA RESULT:      -8.9      2.540      8.036
REMARK  Name = 
REMARK  5 active torsions:
REMARK  status: ('A' for Active; 'I' for Inactive)
REMARK    1  A    between atoms: C_2  and  C_3
REMARK    2  A    between atoms: C_3  and  C_4
REMARK    3  A    between atoms: C_6  and  C_7
REMARK    4  A    between atoms: N_21  and  C_22
REMARK    5  A    between atoms: C_22  and  C_23
REMARK                            x       y       z     vdW  Elec       q    Type
REMARK                         _______ _______ _______ _____ _____    ______ ____
ROOT
ATOM      1  C   UNL     1       2.519   3.130  19.994  0.00  0.00    +0.000 C 
ATOM      2  S   UNL     1       1.159   4.321  20.013  0.00  0.00    +0.000 S 
ATOM      3  C   UNL     1       2.286   5.652  20.135  0.00  0.00    +0.000 C 
ATOM      4  N   UNL     1       3.542   5.344  20.132  0.00  0.00    +0.000 NA
ATOM      5  C   UNL     1       3.769   3.989  20.036  0.00  0.00    +0.000 C 
ATOM      6  O   UNL     1       4.890   3.491  19.997  0.00  0.00    +0.000 OA
ENDROOT
BRANCH   3   7
ATOM      7  C   UNL     1       1.745   7.038  20.202  0.00  0.00    +0.000 A 
ATOM      8  C   UNL     1       1.095   7.378  21.329  0.00  0.00    +0.000 A 
ATOM      9  C   UNL     1       0.579   8.728  21.514  0.00  0.00    +0.000 A 
ATOM     10  C   UNL     1      -0.134   9.122  22.648  0.00  0.00    +0.000 A 
ATOM     11  C   UNL     1      -0.568  10.448  22.779  0.00  0.00    +0.000 A 
ATOM     12  C   UNL     1      -0.290  11.387  21.784  0.00  0.00    +0.000 A 
ATOM     13  C   UNL     1       0.417  11.001  20.649  0.00  0.00    +0.000 A 
ATOM     14  C   UNL     1       0.836   9.678  20.530  0.00  0.00    +0.000 A 
ATOM     15  O   UNL     1       1.516   9.329  19.355  0.00  0.00    +0.000 OA
ATOM     16  C   UNL     1       1.880   8.014  19.090  0.00  0.00    +0.000 A 
ATOM     17  O   UNL     1       2.263   7.703  17.968  0.00  0.00    +0.000 OA
ENDBRANCH   3   7
BRANCH   1  18
ATOM     18  C   UNL     1       2.514   2.181  18.804  0.00  0.00    +0.000 C 
BRANCH  18  20
ATOM     19  O   UNL     1       2.245   3.379  16.737  0.00  0.00    +0.000 OA
ATOM     20  C   UNL     1       3.008   2.834  17.528  0.00  0.00    +0.000 C 
ATOM     21  N   UNL     1       4.364   2.771  17.338  0.00  0.00    +0.000 N 
ATOM     22  H   UNL     1       4.969   2.416  18.068  0.00  0.00    +0.000 HD
BRANCH  21  23
ATOM     23  C   UNL     1       5.000   3.387  16.195  0.00  0.00    +0.000 C 
BRANCH  23  24
ATOM     24  C   UNL     1       5.649   4.692  16.568  0.00  0.00    +0.000 A 
ATOM     25  C   UNL     1       4.936   5.896  16.481  0.00  0.00    +0.000 A 
ATOM     26  C   UNL     1       5.528   7.098  16.869  0.00  0.00    +0.000 A 
ATOM     27  C   UNL     1       6.838   7.111  17.343  0.00  0.00    +0.000 A 
ATOM     28  C   UNL     1       7.563   5.923  17.420  0.00  0.00    +0.000 A 
ATOM     29  C   UNL     1       6.973   4.719  17.033  0.00  0.00    +0.000 A 
ENDBRANCH  23  24
ENDBRANCH  21  23
ENDBRANCH  18  20
ENDBRANCH   1  18
TORSDOF 5
ENDMDL
MODEL 6
REMARK VINA RESULT:      -8.9      1.669      2.205
REMARK  Name = 
REMARK  5 active torsions:
REMARK  status: ('A' for Active; 'I' for Inactive)
REMARK    1  A    between atoms: C_2  and  C_3
REMARK    2  A    between atoms: C_3  and  C_4
REMARK    3  A    between atoms: C_6  and  C_7
REMARK    4  A    between atoms: N_21  and  C_22
REMARK    5  A    between atoms: C_22  and  C_23
REMARK                            x       y       z     vdW  Elec       q    Type
REMARK                         _______ _______ _______ _____ _____    ______ ____
ROOT
ATOM      1  C   UNL     1       3.455   5.832  19.704  0.00  0.00    +0.000 C 
ATOM      2  S   UNL     1       4.279   6.589  18.284  0.00  0.00    +0.000 S 
ATOM      3  C   UNL     1       4.856   5.028  17.748  0.00  0.00    +0.000 C 
ATOM      4  N   UNL     1       4.498   4.007  18.457  0.00  0.00    +0.000 NA
ATOM      5  C   UNL     1       3.711   4.345  19.537  0.00  0.00    +0.000 C 
ATOM      6  O   UNL     1       3.251   3.523  20.322  0.00  0.00    +0.000 OA
ENDROOT
BRANCH   3   7
ATOM      7  C   UNL     1       5.683   4.962  16.511  0.00  0.00    +0.000 A 
ATOM      8  C   UNL     1       5.174   4.259  15.483  0.00  0.00    +0.000 A 
ATOM      9  C   UNL     1       5.881   4.181  14.211  0.00  0.00    +0.000 A 
ATOM     10  C   UNL     1       5.415   3.436  13.126  0.00  0.00    +0.000 A 
ATOM     11  C   UNL     1       6.126   3.437  11.918  0.00  0.00    +0.000 A 
ATOM     12  C   UNL     1       7.298   4.183  11.784  0.00  0.00    +0.000 A 
ATOM     13  C   UNL     1       7.770   4.924  12.862  0.00  0.00    +0.000 A 
ATOM     14  C   UNL     1       7.058   4.909  14.059  0.00  0.00    +0.000 A 
ATOM     15  O   UNL     1       7.590   5.645  15.126  0.00  0.00    +0.000 OA
ATOM     16  C   UNL     1       7.015   5.608  16.392  0.00  0.00    +0.000 A 
ATOM     17  O   UNL     1       7.624   6.071  17.350  0.00  0.00    +0.000 OA
ENDBRANCH   3   7
BRANCH   1  18
ATOM     18  C   UNL     1       1.972   6.149  19.820  0.00  0.00    +0.000 C 
BRANCH  18  20
ATOM     19  O   UNL     1       1.688   7.942  21.394  0.00  0.00    +0.000 OA
ATOM     20  C   UNL     1       1.707   7.586  20.222  0.00  0.00    +0.000 C 
ATOM     21  N   UNL     1       1.499   8.446  19.174  0.00  0.00    +0.000 N 
ATOM     22  H   UNL     1       1.636   8.136  18.220  0.00  0.00    +0.000 HD
BRANCH  21  23
ATOM     23  C   UNL     1       1.279   9.859  19.385  0.00  0.00    +0.000 C 
BRANCH  23  24
ATOM     24  C   UNL     1      -0.092  10.274  18.923  0.00  0.00    +0.000 A 
ATOM     25  C   UNL     1      -0.849  11.190  19.665  0.00  0.00    +0.000 A 
ATOM     26  C   UNL     1      -2.102  11.605  19.212  0.00  0.00    +0.000 A 
ATOM     27  C   UNL     1      -2.613  11.104  18.015  0.00  0.00    +0.000 A 
ATOM     28  C   UNL     1      -1.877  10.179  17.276  0.00  0.00    +0.000 A 
ATOM     29  C   UNL     1      -0.623   9.764  17.728  0.00  0.00    +0.000 A 
ENDBRANCH  23  24
ENDBRANCH  21  23
ENDBRANCH  18  20
ENDBRANCH   1  18
TORSDOF 5
ENDMDL
MODEL 7
REMARK VINA RESULT:      -8.8      1.718      9.028
REMARK  Name = 
REMARK  5 active torsions:
REMARK  status: ('A' for Active; 'I' for Inactive)
REMARK    1  A    between atoms: C_2  and  C_3
REMARK    2  A    between atoms: C_3  and  C_4
REMARK    3  A    between atoms: C_6  and  C_7
REMARK    4  A    between atoms: N_21  and  C_22
REMARK    5  A    between atoms: C_22  and  C_23
REMARK                            x       y       z     vdW  Elec       q    Type
REMARK                         _______ _______ _______ _____ _____    ______ ____
ROOT
ATOM      1  C   UNL     1       3.071   3.624  18.598  0.00  0.00    +0.000 C 
ATOM      2  S   UNL     1       1.727   4.822  18.440  0.00  0.00    +0.000 S 
ATOM      3  C   UNL     1       2.565   5.947  19.483  0.00  0.00    +0.000 C 
ATOM      4  N   UNL     1       3.727   5.576  19.914  0.00  0.00    +0.000 NA
ATOM      5  C   UNL     1       4.099   4.327  19.466  0.00  0.00    +0.000 C 
ATOM      6  O   UNL     1       5.172   3.800  19.743  0.00  0.00    +0.000 OA
ENDROOT
BRANCH   3   7
ATOM      7  C   UNL     1       1.920   7.255  19.783  0.00  0.00    +0.000 A 
ATOM      8  C   UNL     1       1.251   7.344  20.947  0.00  0.00    +0.000 A 
ATOM      9  C   UNL     1       0.634   8.599  21.357  0.00  0.00    +0.000 A 
ATOM     10  C   UNL     1      -0.102   8.735  22.536  0.00  0.00    +0.000 A 
ATOM     11  C   UNL     1      -0.637   9.981  22.890  0.00  0.00    +0.000 A 
ATOM     12  C   UNL     1      -0.435  11.097  22.075  0.00  0.00    +0.000 A 
ATOM     13  C   UNL     1       0.294  10.968  20.897  0.00  0.00    +0.000 A 
ATOM     14  C   UNL     1       0.813   9.721  20.555  0.00  0.00    +0.000 A 
ATOM     15  O   UNL     1       1.512   9.634  19.343  0.00  0.00    +0.000 OA
ATOM     16  C   UNL     1       1.975   8.416  18.858  0.00  0.00    +0.000 A 
ATOM     17  O   UNL     1       2.376   8.334  17.703  0.00  0.00    +0.000 OA
ENDBRANCH   3   7
BRANCH   1  18
ATOM     18  C   UNL     1       3.661   3.154  17.276  0.00  0.00    +0.000 C 
BRANCH  18  20
ATOM     19  O   UNL     1       4.279   5.321  16.442  0.00  0.00    +0.000 OA
ATOM     20  C   UNL     1       4.612   4.162  16.664  0.00  0.00    +0.000 C 
ATOM     21  N   UNL     1       5.864   3.676  16.388  0.00  0.00    +0.000 N 
ATOM     22  H   UNL     1       6.133   2.749  16.692  0.00  0.00    +0.000 HD
BRANCH  21  23
ATOM     23  C   UNL     1       6.903   4.522  15.846  0.00  0.00    +0.000 C 
BRANCH  23  24
ATOM     24  C   UNL     1       6.956   4.428  14.345  0.00  0.00    +0.000 A 
ATOM     25  C   UNL     1       6.158   3.504  13.657  0.00  0.00    +0.000 A 
ATOM     26  C   UNL     1       6.178   3.450  12.264  0.00  0.00    +0.000 A 
ATOM     27  C   UNL     1       6.998   4.316  11.542  0.00  0.00    +0.000 A 
ATOM     28  C   UNL     1       7.809   5.229  12.215  0.00  0.00    +0.000 A 
ATOM     29  C   UNL     1       7.790   5.285  13.609  0.00  0.00    +0.000 A 
ENDBRANCH  23  24
ENDBRANCH  21  23
ENDBRANCH  18  20
ENDBRANCH   1  18
TORSDOF 5
ENDMDL
MODEL 8
REMARK VINA RESULT:      -8.8      1.303      1.828
REMARK  Name = 
REMARK  5 active torsions:
REMARK  status: ('A' for Active; 'I' for Inactive)
REMARK    1  A    between atoms: C_2  and  C_3
REMARK    2  A    between atoms: C_3  and  C_4
REMARK    3  A    between atoms: C_6  and  C_7
REMARK    4  A    between atoms: N_21  and  C_22
REMARK    5  A    between atoms: C_22  and  C_23
REMARK                            x       y       z     vdW  Elec       q    Type
REMARK                         _______ _______ _______ _____ _____    ______ ____
ROOT
ATOM      1  C   UNL     1       3.775   4.419  19.797  0.00  0.00    +0.000 C 
ATOM      2  S   UNL     1       4.088   5.378  18.297  0.00  0.00    +0.000 S 
ATOM      3  C   UNL     1       5.338   4.260  17.805  0.00  0.00    +0.000 C 
ATOM      4  N   UNL     1       5.542   3.246  18.582  0.00  0.00    +0.000 NA
ATOM      5  C   UNL     1       4.719   3.235  19.688  0.00  0.00    +0.000 C 
ATOM      6  O   UNL     1       4.739   2.351  20.538  0.00  0.00    +0.000 OA
ENDROOT
BRANCH   3   7
ATOM      7  C   UNL     1       6.060   4.515  16.528  0.00  0.00    +0.000 A 
ATOM      8  C   UNL     1       5.650   3.816  15.454  0.00  0.00    +0.000 A 
ATOM      9  C   UNL     1       6.255   4.036  14.147  0.00  0.00    +0.000 A 
ATOM     10  C   UNL     1       5.892   3.311  13.009  0.00  0.00    +0.000 A 
ATOM     11  C   UNL     1       6.488   3.601  11.774  0.00  0.00    +0.000 A 
ATOM     12  C   UNL     1       7.441   4.615  11.665  0.00  0.00    +0.000 A 
ATOM     13  C   UNL     1       7.810   5.339  12.795  0.00  0.00    +0.000 A 
ATOM     14  C   UNL     1       7.215   5.035  14.018  0.00  0.00    +0.000 A 
ATOM     15  O   UNL     1       7.642   5.768  15.133  0.00  0.00    +0.000 OA
ATOM     16  C   UNL     1       7.192   5.470  16.414  0.00  0.00    +0.000 A 
ATOM     17  O   UNL     1       7.748   5.969  17.386  0.00  0.00    +0.000 OA
ENDBRANCH   3   7
BRANCH   1  18
ATOM     18  C   UNL     1       2.329   3.984  19.982  0.00  0.00    +0.000 C 
BRANCH  18  20
ATOM     19  O   UNL     1       0.206   4.994  20.481  0.00  0.00    +0.000 OA
ATOM     20  C   UNL     1       1.423   5.121  20.411  0.00  0.00    +0.000 C 
ATOM     21  N   UNL     1       2.073   6.290  20.716  0.00  0.00    +0.000 N 
ATOM     22  H   UNL     1       3.084   6.319  20.756  0.00  0.00    +0.000 HD
BRANCH  21  23
ATOM     23  C   UNL     1       1.359   7.455  21.186  0.00  0.00    +0.000 C 
BRANCH  23  24
ATOM     24  C   UNL     1       1.345   8.544  20.147  0.00  0.00    +0.000 A 
ATOM     25  C   UNL     1       0.752   9.784  20.419  0.00  0.00    +0.000 A 
ATOM     26  C   UNL     1       0.779  10.805  19.469  0.00  0.00    +0.000 A 
ATOM     27  C   UNL     1       1.396  10.596  18.236  0.00  0.00    +0.000 A 
ATOM     28  C   UNL     1       1.976   9.362  17.948  0.00  0.00    +0.000 A 
ATOM     29  C   UNL     1       1.950   8.339  18.897  0.00  0.00    +0.000 A 
ENDBRANCH  23  24
ENDBRANCH  21  23
ENDBRANCH  18  20
ENDBRANCH   1  18
TORSDOF 5
ENDMDL
MODEL 9
REMARK VINA RESULT:      -8.5      3.179      5.497
REMARK  Name = 
REMARK  5 active torsions:
REMARK  status: ('A' for Active; 'I' for Inactive)
REMARK    1  A    between atoms: C_2  and  C_3
REMARK    2  A    between atoms: C_3  and  C_4
REMARK    3  A    between atoms: C_6  and  C_7
REMARK    4  A    between atoms: N_21  and  C_22
REMARK    5  A    between atoms: C_22  and  C_23
REMARK                            x       y       z     vdW  Elec       q    Type
REMARK                         _______ _______ _______ _____ _____    ______ ____
ROOT
ATOM      1  C   UNL     1       0.993   9.877  19.820  0.00  0.00    +0.000 C 
ATOM      2  S   UNL     1       1.673   9.129  18.321  0.00  0.00    +0.000 S 
ATOM      3  C   UNL     1       2.130   7.693  19.208  0.00  0.00    +0.000 C 
ATOM      4  N   UNL     1       1.822   7.670  20.464  0.00  0.00    +0.000 NA
ATOM      5  C   UNL     1       1.177   8.812  20.886  0.00  0.00    +0.000 C 
ATOM      6  O   UNL     1       0.782   8.981  22.035  0.00  0.00    +0.000 OA
ENDROOT
BRANCH   3   7
ATOM      7  C   UNL     1       2.807   6.588  18.474  0.00  0.00    +0.000 A 
ATOM      8  C   UNL     1       3.719   6.947  17.553  0.00  0.00    +0.000 A 
ATOM      9  C   UNL     1       4.476   5.939  16.821  0.00  0.00    +0.000 A 
ATOM     10  C   UNL     1       5.407   6.257  15.830  0.00  0.00    +0.000 A 
ATOM     11  C   UNL     1       6.128   5.238  15.193  0.00  0.00    +0.000 A 
ATOM     12  C   UNL     1       5.930   3.902  15.543  0.00  0.00    +0.000 A 
ATOM     13  C   UNL     1       5.001   3.577  16.527  0.00  0.00    +0.000 A 
ATOM     14  C   UNL     1       4.286   4.599  17.147  0.00  0.00    +0.000 A 
ATOM     15  O   UNL     1       3.339   4.222  18.108  0.00  0.00    +0.000 OA
ATOM     16  C   UNL     1       2.498   5.154  18.706  0.00  0.00    +0.000 A 
ATOM     17  O   UNL     1       1.537   4.773  19.363  0.00  0.00    +0.000 OA
ENDBRANCH   3   7
BRANCH   1  18
ATOM     18  C   UNL     1      -0.455  10.327  19.703  0.00  0.00    +0.000 C 
BRANCH  18  20
ATOM     19  O   UNL     1      -1.177  12.608  19.468  0.00  0.00    +0.000 OA
ATOM     20  C   UNL     1      -0.670  11.749  20.181  0.00  0.00    +0.000 C 
ATOM     21  N   UNL     1      -0.259  11.991  21.467  0.00  0.00    +0.000 N 
ATOM     22  H   UNL     1       0.048  11.230  22.059  0.00  0.00    +0.000 HD
BRANCH  21  23
ATOM     23  C   UNL     1      -0.436  13.283  22.089  0.00  0.00    +0.000 C 
BRANCH  23  24
ATOM     24  C   UNL     1      -1.647  13.298  22.982  0.00  0.00    +0.000 A 
ATOM     25  C   UNL     1      -2.522  12.204  23.019  0.00  0.00    +0.000 A 
ATOM     26  C   UNL     1      -3.620  12.205  23.879  0.00  0.00    +0.000 A 
ATOM     27  C   UNL     1      -3.859  13.300  24.707  0.00  0.00    +0.000 A 
ATOM     28  C   UNL     1      -3.006  14.402  24.668  0.00  0.00    +0.000 A 
ATOM     29  C   UNL     1      -1.906  14.403  23.809  0.00  0.00    +0.000 A 
ENDBRANCH  23  24
ENDBRANCH  21  23
ENDBRANCH  18  20
ENDBRANCH   1  18
TORSDOF 5
ENDMDL
