MODEL 1
REMARK VINA RESULT:      -8.3      0.000      0.000
REMARK  Name = 
REMARK  6 active torsions:
REMARK  status: ('A' for Active; 'I' for Inactive)
REMARK    1  A    between atoms: C_1  and  C_2
REMARK    2  A    between atoms: C_5  and  S_6
REMARK    3  A    between atoms: S_6  and  N_9
REMARK    4  A    between atoms: N_9  and  C_10
REMARK    5  A    between atoms: C_11  and  C_12
REMARK    6  A    between atoms: C_20  and  C_21
REMARK                            x       y       z     vdW  Elec       q    Type
REMARK                         _______ _______ _______ _____ _____    ______ ____
ROOT
ATOM      1  C   UNL     1       0.824  11.409  20.067  0.00  0.00    +0.000 A 
ATOM      2  C   UNL     1       0.331  10.272  19.516  0.00  0.00    +0.000 A 
ATOM      3  C   UNL     1      -0.997  10.510  18.875  0.00  0.00    +0.000 A 
ATOM      4  C   UNL     1      -1.292  10.029  17.598  0.00  0.00    +0.000 A 
ATOM      5  C   UNL     1      -2.394  10.534  16.901  0.00  0.00    +0.000 A 
ATOM      6  C   UNL     1      -2.596  10.180  15.456  0.00  0.00    +0.000 C 
ATOM      7  C   UNL     1      -3.257  11.444  17.535  0.00  0.00    +0.000 A 
ATOM      8  C   UNL     1      -3.018  11.864  18.845  0.00  0.00    +0.000 A 
ATOM      9  C   UNL     1      -1.866  11.435  19.486  0.00  0.00    +0.000 A 
ATOM     10  N   UNL     1      -1.464  12.014  20.699  0.00  0.00    +0.000 N 
ATOM     11  C   UNL     1      -0.145  11.976  21.107  0.00  0.00    +0.000 A 
ATOM     12  O   UNL     1       0.233  12.438  22.172  0.00  0.00    +0.000 OA
ATOM     13  H   UNL     1      -2.086  12.597  21.243  0.00  0.00    +0.000 HD
ENDROOT
BRANCH   2  14
ATOM     14  C   UNL     1       1.229   9.123  19.232  0.00  0.00    +0.000 A 
ATOM     15  C   UNL     1       1.408   8.140  20.219  0.00  0.00    +0.000 A 
ATOM     16  C   UNL     1       2.216   7.022  19.988  0.00  0.00    +0.000 A 
ATOM     17  C   UNL     1       2.857   6.871  18.762  0.00  0.00    +0.000 A 
ATOM     18  C   UNL     1       2.696   7.838  17.773  0.00  0.00    +0.000 A 
ATOM     19  C   UNL     1       1.892   8.959  18.007  0.00  0.00    +0.000 A 
ENDBRANCH   2  14
BRANCH   1  20
ATOM     20  N   UNL     1       1.117  12.349  18.999  0.00  0.00    +0.000 N 
ATOM     21  H   UNL     1       0.772  12.180  18.057  0.00  0.00    +0.000 HD
BRANCH  20  22
ATOM     22  S   UNL     1       2.273  13.539  19.140  0.00  0.00    +0.000 S 
ATOM     23  O   UNL     1       3.197  13.320  18.041  0.00  0.00    +0.000 OA
ATOM     24  O   UNL     1       2.741  13.564  20.509  0.00  0.00    +0.000 OA
BRANCH  22  29
ATOM     25  C   UNL     1      -0.706  18.621  17.647  0.00  0.00    +0.000 C 
ATOM     26  C   UNL     1       0.044  17.392  18.072  0.00  0.00    +0.000 A 
ATOM     27  C   UNL     1      -0.642  16.296  18.609  0.00  0.00    +0.000 A 
ATOM     28  C   UNL     1       0.040  15.130  18.957  0.00  0.00    +0.000 A 
ATOM     29  C   UNL     1       1.424  15.061  18.780  0.00  0.00    +0.000 A 
ATOM     30  C   UNL     1       2.135  16.171  18.314  0.00  0.00    +0.000 A 
ATOM     31  C   UNL     1       1.441  17.334  17.958  0.00  0.00    +0.000 A 
ENDBRANCH  22  29
ENDBRANCH  20  22
ENDBRANCH   1  20
TORSDOF 4
ENDMDL
MODEL 2
REMARK VINA RESULT:      -8.2      2.640      6.551
REMARK  Name = 
REMARK  6 active torsions:
REMARK  status: ('A' for Active; 'I' for Inactive)
REMARK    1  A    between atoms: C_1  and  C_2
REMARK    2  A    between atoms: C_5  and  S_6
REMARK    3  A    between atoms: S_6  and  N_9
REMARK    4  A    between atoms: N_9  and  C_10
REMARK    5  A    between atoms: C_11  and  C_12
REMARK    6  A    between atoms: C_20  and  C_21
REMARK                            x       y       z     vdW  Elec       q    Type
REMARK                         _______ _______ _______ _____ _____    ______ ____
ROOT
ATOM      1  C   UNL     1      -1.012  11.049  21.181  0.00  0.00    +0.000 A 
ATOM      2  C   UNL     1      -1.173  11.834  20.087  0.00  0.00    +0.000 A 
ATOM      3  C   UNL     1      -0.264  13.018  20.128  0.00  0.00    +0.000 A 
ATOM      4  C   UNL     1       0.490  13.403  19.018  0.00  0.00    +0.000 A 
ATOM      5  C   UNL     1       1.558  14.292  19.175  0.00  0.00    +0.000 A 
ATOM      6  C   UNL     1       2.499  14.546  18.034  0.00  0.00    +0.000 C 
ATOM      7  C   UNL     1       1.796  14.873  20.433  0.00  0.00    +0.000 A 
ATOM      8  C   UNL     1       0.992  14.559  21.531  0.00  0.00    +0.000 A 
ATOM      9  C   UNL     1       0.002  13.599  21.383  0.00  0.00    +0.000 A 
ATOM     10  N   UNL     1      -0.665  13.081  22.504  0.00  0.00    +0.000 N 
ATOM     11  C   UNL     1      -1.273  11.842  22.464  0.00  0.00    +0.000 A 
ATOM     12  O   UNL     1      -1.892  11.376  23.408  0.00  0.00    +0.000 OA
ATOM     13  H   UNL     1      -0.605  13.523  23.411  0.00  0.00    +0.000 HD
ENDROOT
BRANCH   2  14
ATOM     14  C   UNL     1      -1.832  11.299  18.867  0.00  0.00    +0.000 A 
ATOM     15  C   UNL     1      -3.096  11.795  18.504  0.00  0.00    +0.000 A 
ATOM     16  C   UNL     1      -3.743  11.348  17.348  0.00  0.00    +0.000 A 
ATOM     17  C   UNL     1      -3.133  10.398  16.535  0.00  0.00    +0.000 A 
ATOM     18  C   UNL     1      -1.883   9.890  16.881  0.00  0.00    +0.000 A 
ATOM     19  C   UNL     1      -1.239  10.333  18.041  0.00  0.00    +0.000 A 
ENDBRANCH   2  14
BRANCH   1  20
ATOM     20  N   UNL     1       0.318  10.467  21.138  0.00  0.00    +0.000 N 
ATOM     21  H   UNL     1       1.027  10.853  20.520  0.00  0.00    +0.000 HD
BRANCH  20  22
ATOM     22  S   UNL     1       0.672   8.982  21.804  0.00  0.00    +0.000 S 
ATOM     23  O   UNL     1      -0.611   8.339  22.032  0.00  0.00    +0.000 OA
ATOM     24  O   UNL     1       1.607   9.178  22.891  0.00  0.00    +0.000 OA
BRANCH  22  29
ATOM     25  C   UNL     1       3.643   5.895  17.495  0.00  0.00    +0.000 C 
ATOM     26  C   UNL     1       2.854   6.643  18.530  0.00  0.00    +0.000 A 
ATOM     27  C   UNL     1       2.514   6.027  19.740  0.00  0.00    +0.000 A 
ATOM     28  C   UNL     1       1.828   6.733  20.729  0.00  0.00    +0.000 A 
ATOM     29  C   UNL     1       1.465   8.062  20.503  0.00  0.00    +0.000 A 
ATOM     30  C   UNL     1       1.731   8.670  19.272  0.00  0.00    +0.000 A 
ATOM     31  C   UNL     1       2.429   7.959  18.289  0.00  0.00    +0.000 A 
ENDBRANCH  22  29
ENDBRANCH  20  22
ENDBRANCH   1  20
TORSDOF 4
ENDMDL
MODEL 3
REMARK VINA RESULT:      -8.0      6.012      8.893
REMARK  Name = 
REMARK  6 active torsions:
REMARK  status: ('A' for Active; 'I' for Inactive)
REMARK    1  A    between atoms: C_1  and  C_2
REMARK    2  A    between atoms: C_5  and  S_6
REMARK    3  A    between atoms: S_6  and  N_9
REMARK    4  A    between atoms: N_9  and  C_10
REMARK    5  A    between atoms: C_11  and  C_12
REMARK    6  A    between atoms: C_20  and  C_21
REMARK                            x       y       z     vdW  Elec       q    Type
REMARK                         _______ _______ _______ _____ _____    ______ ____
ROOT
ATOM      1  C   UNL     1       4.709   6.014  17.667  0.00  0.00    +0.000 A 
ATOM      2  C   UNL     1       3.399   5.968  18.018  0.00  0.00    +0.000 A 
ATOM      3  C   UNL     1       2.962   4.569  18.305  0.00  0.00    +0.000 A 
ATOM      4  C   UNL     1       2.211   4.253  19.439  0.00  0.00    +0.000 A 
ATOM      5  C   UNL     1       2.098   2.922  19.851  0.00  0.00    +0.000 A 
ATOM      6  C   UNL     1       1.475   2.595  21.176  0.00  0.00    +0.000 C 
ATOM      7  C   UNL     1       2.654   1.902  19.059  0.00  0.00    +0.000 A 
ATOM      8  C   UNL     1       3.333   2.203  17.876  0.00  0.00    +0.000 A 
ATOM      9  C   UNL     1       3.525   3.534  17.535  0.00  0.00    +0.000 A 
ATOM     10  N   UNL     1       4.399   3.886  16.495  0.00  0.00    +0.000 N 
ATOM     11  C   UNL     1       4.975   5.140  16.440  0.00  0.00    +0.000 A 
ATOM     12  O   UNL     1       5.711   5.492  15.531  0.00  0.00    +0.000 OA
ATOM     13  H   UNL     1       4.747   3.202  15.837  0.00  0.00    +0.000 HD
ENDROOT
BRANCH   2  14
ATOM     14  C   UNL     1       2.697   7.197  18.471  0.00  0.00    +0.000 A 
ATOM     15  C   UNL     1       2.513   8.249  17.558  0.00  0.00    +0.000 A 
ATOM     16  C   UNL     1       1.830   9.413  17.925  0.00  0.00    +0.000 A 
ATOM     17  C   UNL     1       1.319   9.541  19.213  0.00  0.00    +0.000 A 
ATOM     18  C   UNL     1       1.497   8.511  20.133  0.00  0.00    +0.000 A 
ATOM     19  C   UNL     1       2.186   7.350  19.767  0.00  0.00    +0.000 A 
ENDBRANCH   2  14
BRANCH   1  20
ATOM     20  N   UNL     1       5.507   5.630  18.818  0.00  0.00    +0.000 N 
ATOM     21  H   UNL     1       5.088   5.590  19.743  0.00  0.00    +0.000 HD
BRANCH  20  22
ATOM     22  S   UNL     1       7.171   5.562  18.776  0.00  0.00    +0.000 S 
ATOM     23  O   UNL     1       7.502   4.797  17.587  0.00  0.00    +0.000 OA
ATOM     24  O   UNL     1       7.646   5.148  20.079  0.00  0.00    +0.000 OA
BRANCH  22  29
ATOM     25  C   UNL     1       8.803  11.352  17.917  0.00  0.00    +0.000 C 
ATOM     26  C   UNL     1       8.439   9.904  18.082  0.00  0.00    +0.000 A 
ATOM     27  C   UNL     1       9.067   9.126  19.061  0.00  0.00    +0.000 A 
ATOM     28  C   UNL     1       8.697   7.795  19.258  0.00  0.00    +0.000 A 
ATOM     29  C   UNL     1       7.700   7.231  18.459  0.00  0.00    +0.000 A 
ATOM     30  C   UNL     1       7.114   7.971  17.428  0.00  0.00    +0.000 A 
ATOM     31  C   UNL     1       7.484   9.309  17.244  0.00  0.00    +0.000 A 
ENDBRANCH  22  29
ENDBRANCH  20  22
ENDBRANCH   1  20
TORSDOF 4
ENDMDL
MODEL 4
REMARK VINA RESULT:      -7.8      2.770      6.650
REMARK  Name = 
REMARK  6 active torsions:
REMARK  status: ('A' for Active; 'I' for Inactive)
REMARK    1  A    between atoms: C_1  and  C_2
REMARK    2  A    between atoms: C_5  and  S_6
REMARK    3  A    between atoms: S_6  and  N_9
REMARK    4  A    between atoms: N_9  and  C_10
REMARK    5  A    between atoms: C_11  and  C_12
REMARK    6  A    between atoms: C_20  and  C_21
REMARK                            x       y       z     vdW  Elec       q    Type
REMARK                         _______ _______ _______ _____ _____    ______ ____
ROOT
ATOM      1  C   UNL     1      -0.381  11.770  20.386  0.00  0.00    +0.000 A 
ATOM      2  C   UNL     1      -1.561  12.437  20.406  0.00  0.00    +0.000 A 
ATOM      3  C   UNL     1      -2.357  12.174  19.170  0.00  0.00    +0.000 A 
ATOM      4  C   UNL     1      -3.716  11.859  19.225  0.00  0.00    +0.000 A 
ATOM      5  C   UNL     1      -4.348  11.305  18.108  0.00  0.00    +0.000 A 
ATOM      6  C   UNL     1      -5.746  10.771  18.223  0.00  0.00    +0.000 C 
ATOM      7  C   UNL     1      -3.635  11.168  16.905  0.00  0.00    +0.000 A 
ATOM      8  C   UNL     1      -2.297  11.562  16.816  0.00  0.00    +0.000 A 
ATOM      9  C   UNL     1      -1.655  12.014  17.959  0.00  0.00    +0.000 A 
ATOM     10  N   UNL     1      -0.263  12.190  17.976  0.00  0.00    +0.000 N 
ATOM     11  C   UNL     1       0.446  12.164  19.160  0.00  0.00    +0.000 A 
ATOM     12  O   UNL     1       1.652  12.350  19.214  0.00  0.00    +0.000 OA
ATOM     13  H   UNL     1       0.282  12.201  17.124  0.00  0.00    +0.000 HD
ENDROOT
BRANCH   2  14
ATOM     14  C   UNL     1      -2.110  12.958  21.686  0.00  0.00    +0.000 A 
ATOM     15  C   UNL     1      -2.133  14.346  21.901  0.00  0.00    +0.000 A 
ATOM     16  C   UNL     1      -2.668  14.886  23.074  0.00  0.00    +0.000 A 
ATOM     17  C   UNL     1      -3.191  14.045  24.051  0.00  0.00    +0.000 A 
ATOM     18  C   UNL     1      -3.172  12.666  23.858  0.00  0.00    +0.000 A 
ATOM     19  C   UNL     1      -2.630  12.125  22.687  0.00  0.00    +0.000 A 
ENDBRANCH   2  14
BRANCH   1  20
ATOM     20  N   UNL     1      -0.656  10.345  20.447  0.00  0.00    +0.000 N 
ATOM     21  H   UNL     1      -1.540   9.978  20.106  0.00  0.00    +0.000 HD
BRANCH  20  22
ATOM     22  S   UNL     1       0.262   9.290  21.350  0.00  0.00    +0.000 S 
ATOM     23  O   UNL     1      -0.676   8.329  21.904  0.00  0.00    +0.000 OA
ATOM     24  O   UNL     1       1.130  10.061  22.215  0.00  0.00    +0.000 OA
BRANCH  22  29
ATOM     25  C   UNL     1       3.876   6.346  17.452  0.00  0.00    +0.000 C 
ATOM     26  C   UNL     1       2.933   7.049  18.385  0.00  0.00    +0.000 A 
ATOM     27  C   UNL     1       2.620   6.487  19.628  0.00  0.00    +0.000 A 
ATOM     28  C   UNL     1       1.787   7.159  20.523  0.00  0.00    +0.000 A 
ATOM     29  C   UNL     1       1.249   8.398  20.168  0.00  0.00    +0.000 A 
ATOM     30  C   UNL     1       1.491   8.939  18.902  0.00  0.00    +0.000 A 
ATOM     31  C   UNL     1       2.336   8.263  18.014  0.00  0.00    +0.000 A 
ENDBRANCH  22  29
ENDBRANCH  20  22
ENDBRANCH   1  20
TORSDOF 4
ENDMDL
MODEL 5
REMARK VINA RESULT:      -7.8      0.506      1.025
REMARK  Name = 
REMARK  6 active torsions:
REMARK  status: ('A' for Active; 'I' for Inactive)
REMARK    1  A    between atoms: C_1  and  C_2
REMARK    2  A    between atoms: C_5  and  S_6
REMARK    3  A    between atoms: S_6  and  N_9
REMARK    4  A    between atoms: N_9  and  C_10
REMARK    5  A    between atoms: C_11  and  C_12
REMARK    6  A    between atoms: C_20  and  C_21
REMARK                            x       y       z     vdW  Elec       q    Type
REMARK                         _______ _______ _______ _____ _____    ______ ____
ROOT
ATOM      1  C   UNL     1       0.390  11.448  20.388  0.00  0.00    +0.000 A 
ATOM      2  C   UNL     1      -0.037  10.349  19.718  0.00  0.00    +0.000 A 
ATOM      3  C   UNL     1      -1.326  10.609  19.010  0.00  0.00    +0.000 A 
ATOM      4  C   UNL     1      -1.524  10.226  17.682  0.00  0.00    +0.000 A 
ATOM      5  C   UNL     1      -2.591  10.761  16.954  0.00  0.00    +0.000 A 
ATOM      6  C   UNL     1      -2.689  10.520  15.476  0.00  0.00    +0.000 C 
ATOM      7  C   UNL     1      -3.517  11.600  17.598  0.00  0.00    +0.000 A 
ATOM      8  C   UNL     1      -3.375  11.920  18.950  0.00  0.00    +0.000 A 
ATOM      9  C   UNL     1      -2.256  11.464  19.632  0.00  0.00    +0.000 A 
ATOM     10  N   UNL     1      -1.949  11.954  20.911  0.00  0.00    +0.000 N 
ATOM     11  C   UNL     1      -0.659  11.910  21.402  0.00  0.00    +0.000 A 
ATOM     12  O   UNL     1      -0.363  12.294  22.522  0.00  0.00    +0.000 OA
ATOM     13  H   UNL     1      -2.620  12.478  21.455  0.00  0.00    +0.000 HD
ENDROOT
BRANCH   2  14
ATOM     14  C   UNL     1       0.907   9.244  19.405  0.00  0.00    +0.000 A 
ATOM     15  C   UNL     1       1.523   9.214  18.143  0.00  0.00    +0.000 A 
ATOM     16  C   UNL     1       2.443   8.214  17.812  0.00  0.00    +0.000 A 
ATOM     17  C   UNL     1       2.763   7.230  18.742  0.00  0.00    +0.000 A 
ATOM     18  C   UNL     1       2.159   7.241  19.997  0.00  0.00    +0.000 A 
ATOM     19  C   UNL     1       1.234   8.237  20.325  0.00  0.00    +0.000 A 
ENDBRANCH   2  14
BRANCH   1  20
ATOM     20  N   UNL     1       0.728  12.475  19.418  0.00  0.00    +0.000 N 
ATOM     21  H   UNL     1       0.330  12.450  18.483  0.00  0.00    +0.000 HD
BRANCH  20  22
ATOM     22  S   UNL     1       1.998  13.532  19.632  0.00  0.00    +0.000 S 
ATOM     23  O   UNL     1       3.063  13.043  18.773  0.00  0.00    +0.000 OA
ATOM     24  O   UNL     1       2.213  13.709  21.052  0.00  0.00    +0.000 OA
BRANCH  22  29
ATOM     25  C   UNL     1       0.039  18.631  16.970  0.00  0.00    +0.000 C 
ATOM     26  C   UNL     1       0.541  17.406  17.678  0.00  0.00    +0.000 A 
ATOM     27  C   UNL     1      -0.345  16.592  18.393  0.00  0.00    +0.000 A 
ATOM     28  C   UNL     1       0.103  15.422  19.009  0.00  0.00    +0.000 A 
ATOM     29  C   UNL     1       1.452  15.069  18.922  0.00  0.00    +0.000 A 
ATOM     30  C   UNL     1       2.364  15.909  18.274  0.00  0.00    +0.000 A 
ATOM     31  C   UNL     1       1.904  17.075  17.650  0.00  0.00    +0.000 A 
ENDBRANCH  22  29
ENDBRANCH  20  22
ENDBRANCH   1  20
TORSDOF 4
ENDMDL
MODEL 6
REMARK VINA RESULT:      -7.7      6.608      8.836
REMARK  Name = 
REMARK  6 active torsions:
REMARK  status: ('A' for Active; 'I' for Inactive)
REMARK    1  A    between atoms: C_1  and  C_2
REMARK    2  A    between atoms: C_5  and  S_6
REMARK    3  A    between atoms: S_6  and  N_9
REMARK    4  A    between atoms: N_9  and  C_10
REMARK    5  A    between atoms: C_11  and  C_12
REMARK    6  A    between atoms: C_20  and  C_21
REMARK                            x       y       z     vdW  Elec       q    Type
REMARK                         _______ _______ _______ _____ _____    ______ ____
ROOT
ATOM      1  C   UNL     1       5.367   4.036  18.758  0.00  0.00    +0.000 A 
ATOM      2  C   UNL     1       4.617   4.567  17.760  0.00  0.00    +0.000 A 
ATOM      3  C   UNL     1       3.529   5.436  18.300  0.00  0.00    +0.000 A 
ATOM      4  C   UNL     1       3.269   6.701  17.770  0.00  0.00    +0.000 A 
ATOM      5  C   UNL     1       2.484   7.609  18.488  0.00  0.00    +0.000 A 
ATOM      6  C   UNL     1       2.374   9.033  18.029  0.00  0.00    +0.000 C 
ATOM      7  C   UNL     1       1.878   7.202  19.688  0.00  0.00    +0.000 A 
ATOM      8  C   UNL     1       2.063   5.909  20.183  0.00  0.00    +0.000 A 
ATOM      9  C   UNL     1       2.925   5.053  19.514  0.00  0.00    +0.000 A 
ATOM     10  N   UNL     1       3.326   3.842  20.097  0.00  0.00    +0.000 N 
ATOM     11  C   UNL     1       4.499   3.220  19.718  0.00  0.00    +0.000 A 
ATOM     12  O   UNL     1       4.860   2.148  20.178  0.00  0.00    +0.000 OA
ATOM     13  H   UNL     1       2.854   3.457  20.904  0.00  0.00    +0.000 HD
ENDROOT
BRANCH   2  14
ATOM     14  C   UNL     1       5.135   4.605  16.367  0.00  0.00    +0.000 A 
ATOM     15  C   UNL     1       5.168   5.834  15.688  0.00  0.00    +0.000 A 
ATOM     16  C   UNL     1       5.676   5.928  14.388  0.00  0.00    +0.000 A 
ATOM     17  C   UNL     1       6.162   4.791  13.750  0.00  0.00    +0.000 A 
ATOM     18  C   UNL     1       6.132   3.563  14.405  0.00  0.00    +0.000 A 
ATOM     19  C   UNL     1       5.618   3.468  15.702  0.00  0.00    +0.000 A 
ENDBRANCH   2  14
BRANCH   1  20
ATOM     20  N   UNL     1       6.081   5.114  19.420  0.00  0.00    +0.000 N 
ATOM     21  H   UNL     1       5.570   5.895  19.825  0.00  0.00    +0.000 HD
BRANCH  20  22
ATOM     22  S   UNL     1       7.727   5.326  19.277  0.00  0.00    +0.000 S 
ATOM     23  O   UNL     1       8.137   4.472  18.176  0.00  0.00    +0.000 OA
ATOM     24  O   UNL     1       8.323   5.181  20.588  0.00  0.00    +0.000 OA
BRANCH  22  29
ATOM     25  C   UNL     1       8.259  11.134  17.574  0.00  0.00    +0.000 C 
ATOM     26  C   UNL     1       8.168   9.683  17.949  0.00  0.00    +0.000 A 
ATOM     27  C   UNL     1       8.943   9.176  18.998  0.00  0.00    +0.000 A 
ATOM     28  C   UNL     1       8.826   7.841  19.389  0.00  0.00    +0.000 A 
ATOM     29  C   UNL     1       7.937   7.000  18.715  0.00  0.00    +0.000 A 
ATOM     30  C   UNL     1       7.210   7.471  17.618  0.00  0.00    +0.000 A 
ATOM     31  C   UNL     1       7.326   8.814  17.239  0.00  0.00    +0.000 A 
ENDBRANCH  22  29
ENDBRANCH  20  22
ENDBRANCH   1  20
TORSDOF 4
ENDMDL
MODEL 7
REMARK VINA RESULT:      -7.7      2.771      6.687
REMARK  Name = 
REMARK  6 active torsions:
REMARK  status: ('A' for Active; 'I' for Inactive)
REMARK    1  A    between atoms: C_1  and  C_2
REMARK    2  A    between atoms: C_5  and  S_6
REMARK    3  A    between atoms: S_6  and  N_9
REMARK    4  A    between atoms: N_9  and  C_10
REMARK    5  A    between atoms: C_11  and  C_12
REMARK    6  A    between atoms: C_20  and  C_21
REMARK                            x       y       z     vdW  Elec       q    Type
REMARK                         _______ _______ _______ _____ _____    ______ ____
ROOT
ATOM      1  C   UNL     1      -0.334  11.798  20.430  0.00  0.00    +0.000 A 
ATOM      2  C   UNL     1      -1.509  12.476  20.432  0.00  0.00    +0.000 A 
ATOM      3  C   UNL     1      -2.300  12.196  19.196  0.00  0.00    +0.000 A 
ATOM      4  C   UNL     1      -3.662  11.894  19.250  0.00  0.00    +0.000 A 
ATOM      5  C   UNL     1      -4.294  11.325  18.140  0.00  0.00    +0.000 A 
ATOM      6  C   UNL     1      -5.697  10.806  18.258  0.00  0.00    +0.000 C 
ATOM      7  C   UNL     1      -3.575  11.160  16.944  0.00  0.00    +0.000 A 
ATOM      8  C   UNL     1      -2.234  11.540  16.854  0.00  0.00    +0.000 A 
ATOM      9  C   UNL     1      -1.594  12.007  17.993  0.00  0.00    +0.000 A 
ATOM     10  N   UNL     1      -0.201  12.172  18.013  0.00  0.00    +0.000 N 
ATOM     11  C   UNL     1       0.503  12.161  19.201  0.00  0.00    +0.000 A 
ATOM     12  O   UNL     1       1.709  12.337  19.258  0.00  0.00    +0.000 OA
ATOM     13  H   UNL     1       0.349  12.161  17.164  0.00  0.00    +0.000 HD
ENDROOT
BRANCH   2  14
ATOM     14  C   UNL     1      -2.059  13.025  21.699  0.00  0.00    +0.000 A 
ATOM     15  C   UNL     1      -2.714  12.157  22.588  0.00  0.00    +0.000 A 
ATOM     16  C   UNL     1      -3.220  12.618  23.807  0.00  0.00    +0.000 A 
ATOM     17  C   UNL     1      -3.076  13.957  24.156  0.00  0.00    +0.000 A 
ATOM     18  C   UNL     1      -2.434  14.834  23.285  0.00  0.00    +0.000 A 
ATOM     19  C   UNL     1      -1.934  14.373  22.063  0.00  0.00    +0.000 A 
ENDBRANCH   2  14
BRANCH   1  20
ATOM     20  N   UNL     1      -0.622  10.377  20.516  0.00  0.00    +0.000 N 
ATOM     21  H   UNL     1      -1.487  10.005  20.133  0.00  0.00    +0.000 HD
BRANCH  20  22
ATOM     22  S   UNL     1       0.232   9.344  21.504  0.00  0.00    +0.000 S 
ATOM     23  O   UNL     1      -0.753   8.438  22.069  0.00  0.00    +0.000 OA
ATOM     24  O   UNL     1       1.090  10.134  22.362  0.00  0.00    +0.000 OA
BRANCH  22  29
ATOM     25  C   UNL     1       3.409   5.925  17.613  0.00  0.00    +0.000 C 
ATOM     26  C   UNL     1       2.679   6.788  18.601  0.00  0.00    +0.000 A 
ATOM     27  C   UNL     1       2.276   8.081  18.247  0.00  0.00    +0.000 A 
ATOM     28  C   UNL     1       1.550   8.869  19.140  0.00  0.00    +0.000 A 
ATOM     29  C   UNL     1       1.235   8.368  20.406  0.00  0.00    +0.000 A 
ATOM     30  C   UNL     1       1.693   7.108  20.803  0.00  0.00    +0.000 A 
ATOM     31  C   UNL     1       2.412   6.319  19.897  0.00  0.00    +0.000 A 
ENDBRANCH  22  29
ENDBRANCH  20  22
ENDBRANCH   1  20
TORSDOF 4
ENDMDL
MODEL 8
REMARK VINA RESULT:      -7.7      0.328      1.308
REMARK  Name = 
REMARK  6 active torsions:
REMARK  status: ('A' for Active; 'I' for Inactive)
REMARK    1  A    between atoms: C_1  and  C_2
REMARK    2  A    between atoms: C_5  and  S_6
REMARK    3  A    between atoms: S_6  and  N_9
REMARK    4  A    between atoms: N_9  and  C_10
REMARK    5  A    between atoms: C_11  and  C_12
REMARK    6  A    between atoms: C_20  and  C_21
REMARK                            x       y       z     vdW  Elec       q    Type
REMARK                         _______ _______ _______ _____ _____    ______ ____
ROOT
ATOM      1  C   UNL     1       0.777  11.292  20.310  0.00  0.00    +0.000 A 
ATOM      2  C   UNL     1       0.262  10.181  19.726  0.00  0.00    +0.000 A 
ATOM      3  C   UNL     1      -1.043  10.472  19.061  0.00  0.00    +0.000 A 
ATOM      4  C   UNL     1      -1.324  10.026  17.768  0.00  0.00    +0.000 A 
ATOM      5  C   UNL     1      -2.394  10.577  17.058  0.00  0.00    +0.000 A 
ATOM      6  C   UNL     1      -2.574  10.258  15.603  0.00  0.00    +0.000 C 
ATOM      7  C   UNL     1      -3.243  11.501  17.691  0.00  0.00    +0.000 A 
ATOM      8  C   UNL     1      -3.021  11.889  19.015  0.00  0.00    +0.000 A 
ATOM      9  C   UNL     1      -1.897  11.411  19.672  0.00  0.00    +0.000 A 
ATOM     10  N   UNL     1      -1.504  11.955  20.905  0.00  0.00    +0.000 N 
ATOM     11  C   UNL     1      -0.197  11.868  21.340  0.00  0.00    +0.000 A 
ATOM     12  O   UNL     1       0.171  12.297  22.422  0.00  0.00    +0.000 OA
ATOM     13  H   UNL     1      -2.121  12.545  21.447  0.00  0.00    +0.000 HD
ENDROOT
BRANCH   2  14
ATOM     14  C   UNL     1       1.131   9.011  19.438  0.00  0.00    +0.000 A 
ATOM     15  C   UNL     1       1.756   8.920  18.183  0.00  0.00    +0.000 A 
ATOM     16  C   UNL     1       2.608   7.855  17.875  0.00  0.00    +0.000 A 
ATOM     17  C   UNL     1       2.850   6.864  18.821  0.00  0.00    +0.000 A 
ATOM     18  C   UNL     1       2.235   6.934  20.069  0.00  0.00    +0.000 A 
ATOM     19  C   UNL     1       1.378   7.996  20.374  0.00  0.00    +0.000 A 
ENDBRANCH   2  14
BRANCH   1  20
ATOM     20  N   UNL     1       1.123  12.242  19.268  0.00  0.00    +0.000 N 
ATOM     21  H   UNL     1       0.896  12.044  18.296  0.00  0.00    +0.000 HD
BRANCH  20  22
ATOM     22  S   UNL     1       2.172  13.511  19.518  0.00  0.00    +0.000 S 
ATOM     23  O   UNL     1       3.201  13.375  18.502  0.00  0.00    +0.000 OA
ATOM     24  O   UNL     1       2.518  13.549  20.923  0.00  0.00    +0.000 OA
BRANCH  22  29
ATOM     25  C   UNL     1      -0.880  18.631  18.336  0.00  0.00    +0.000 C 
ATOM     26  C   UNL     1      -0.148  17.341  18.574  0.00  0.00    +0.000 A 
ATOM     27  C   UNL     1       1.201  17.219  18.220  0.00  0.00    +0.000 A 
ATOM     28  C   UNL     1       1.902  16.043  18.487  0.00  0.00    +0.000 A 
ATOM     29  C   UNL     1       1.248  14.972  19.100  0.00  0.00    +0.000 A 
ATOM     30  C   UNL     1      -0.117  15.050  19.392  0.00  0.00    +0.000 A 
ATOM     31  C   UNL     1      -0.812  16.238  19.131  0.00  0.00    +0.000 A 
ENDBRANCH  22  29
ENDBRANCH  20  22
ENDBRANCH   1  20
TORSDOF 4
ENDMDL
MODEL 9
REMARK VINA RESULT:      -7.4      2.028      2.958
REMARK  Name = 
REMARK  6 active torsions:
REMARK  status: ('A' for Active; 'I' for Inactive)
REMARK    1  A    between atoms: C_1  and  C_2
REMARK    2  A    between atoms: C_5  and  S_6
REMARK    3  A    between atoms: S_6  and  N_9
REMARK    4  A    between atoms: N_9  and  C_10
REMARK    5  A    between atoms: C_11  and  C_12
REMARK    6  A    between atoms: C_20  and  C_21
REMARK                            x       y       z     vdW  Elec       q    Type
REMARK                         _______ _______ _______ _____ _____    ______ ____
ROOT
ATOM      1  C   UNL     1      -1.501  12.379  20.128  0.00  0.00    +0.000 A 
ATOM      2  C   UNL     1      -1.536  11.159  19.537  0.00  0.00    +0.000 A 
ATOM      3  C   UNL     1      -2.611  11.086  18.503  0.00  0.00    +0.000 A 
ATOM      4  C   UNL     1      -2.375  10.549  17.236  0.00  0.00    +0.000 A 
ATOM      5  C   UNL     1      -3.282  10.787  16.198  0.00  0.00    +0.000 A 
ATOM      6  C   UNL     1      -2.934  10.396  14.792  0.00  0.00    +0.000 C 
ATOM      7  C   UNL     1      -4.476  11.477  16.467  0.00  0.00    +0.000 A 
ATOM      8  C   UNL     1      -4.761  11.942  17.753  0.00  0.00    +0.000 A 
ATOM      9  C   UNL     1      -3.807  11.788  18.747  0.00  0.00    +0.000 A 
ATOM     10  N   UNL     1      -3.945  12.446  19.979  0.00  0.00    +0.000 N 
ATOM     11  C   UNL     1      -2.848  12.711  20.775  0.00  0.00    +0.000 A 
ATOM     12  O   UNL     1      -2.936  13.248  21.867  0.00  0.00    +0.000 OA
ATOM     13  H   UNL     1      -4.818  12.871  20.261  0.00  0.00    +0.000 HD
ENDROOT
BRANCH   2  14
ATOM     14  C   UNL     1      -0.368  10.245  19.628  0.00  0.00    +0.000 A 
ATOM     15  C   UNL     1      -0.163   9.520  20.814  0.00  0.00    +0.000 A 
ATOM     16  C   UNL     1       0.903   8.622  20.936  0.00  0.00    +0.000 A 
ATOM     17  C   UNL     1       1.779   8.436  19.872  0.00  0.00    +0.000 A 
ATOM     18  C   UNL     1       1.595   9.150  18.691  0.00  0.00    +0.000 A 
ATOM     19  C   UNL     1       0.533  10.052  18.571  0.00  0.00    +0.000 A 
ENDBRANCH   2  14
BRANCH   1  20
ATOM     20  N   UNL     1      -1.095  13.359  19.136  0.00  0.00    +0.000 N 
ATOM     21  H   UNL     1      -1.019  13.097  18.157  0.00  0.00    +0.000 HD
BRANCH  20  22
ATOM     22  S   UNL     1      -0.423  14.827  19.544  0.00  0.00    +0.000 S 
ATOM     23  O   UNL     1      -0.343  14.832  20.994  0.00  0.00    +0.000 OA
ATOM     24  O   UNL     1      -1.137  15.871  18.838  0.00  0.00    +0.000 OA
BRANCH  22  29
ATOM     25  C   UNL     1       5.390  14.518  17.801  0.00  0.00    +0.000 C 
ATOM     26  C   UNL     1       3.937  14.606  18.171  0.00  0.00    +0.000 A 
ATOM     27  C   UNL     1       3.165  13.444  18.282  0.00  0.00    +0.000 A 
ATOM     28  C   UNL     1       1.829  13.513  18.678  0.00  0.00    +0.000 A 
ATOM     29  C   UNL     1       1.253  14.756  18.952  0.00  0.00    +0.000 A 
ATOM     30  C   UNL     1       1.988  15.932  18.775  0.00  0.00    +0.000 A 
ATOM     31  C   UNL     1       3.331  15.853  18.387  0.00  0.00    +0.000 A 
ENDBRANCH  22  29
ENDBRANCH  20  22
ENDBRANCH   1  20
TORSDOF 4
ENDMDL
