MODEL 1
REMARK VINA RESULT:      -9.6      0.000      0.000
REMARK  Name = 
REMARK  5 active torsions:
REMARK  status: ('A' for Active; 'I' for Inactive)
REMARK    1  A    between atoms: C_2  and  C_3
REMARK    2  A    between atoms: C_3  and  C_4
REMARK    3  A    between atoms: C_4  and  C_5
REMARK    4  A    between atoms: N_16  and  C_17
REMARK    5  A    between atoms: C_21  and  N_22
REMARK                            x       y       z     vdW  Elec       q    Type
REMARK                         _______ _______ _______ _____ _____    ______ ____
ROOT
ATOM      1  O   UNL     1       8.271   6.861  18.616  0.00  0.00    +0.000 OA
ATOM      2  C   UNL     1       7.768   7.712  17.888  0.00  0.00    +0.000 C 
ATOM      3  N   UNL     1       6.747   7.518  16.974  0.00  0.00    +0.000 N 
ATOM      4  H   UNL     1       6.542   8.284  16.345  0.00  0.00    +0.000 HD
ENDROOT
BRANCH   3   5
ATOM      5  C   UNL     1       6.015   6.326  16.772  0.00  0.00    +0.000 A 
ATOM      6  C   UNL     1       6.135   5.544  15.626  0.00  0.00    +0.000 A 
ATOM      7  C   UNL     1       5.369   4.392  15.481  0.00  0.00    +0.000 A 
ATOM      8  C   UNL     1       4.492   3.997  16.491  0.00  0.00    +0.000 A 
ATOM      9  C   UNL     1       4.368   4.733  17.673  0.00  0.00    +0.000 A 
ATOM     10  C   UNL     1       5.138   5.909  17.791  0.00  0.00    +0.000 A 
BRANCH   9  11
ATOM     11  N   UNL     1       3.504   4.307  18.723  0.00  0.00    +0.000 N 
ATOM     12  C   UNL     1       2.135   4.755  18.842  0.00  0.00    +0.000 C 
ATOM     13  C   UNL     1       1.732   4.377  20.251  0.00  0.00    +0.000 C 
ATOM     14  C   UNL     1       2.563   3.145  20.545  0.00  0.00    +0.000 C 
ATOM     15  C   UNL     1       3.804   3.354  19.711  0.00  0.00    +0.000 C 
ATOM     16  O   UNL     1       4.831   2.723  19.904  0.00  0.00    +0.000 OA
ENDBRANCH   9  11
ENDBRANCH   3   5
BRANCH   2  17
ATOM     17  C   UNL     1       8.280   9.139  17.935  0.00  0.00    +0.000 C 
BRANCH  17  18
ATOM     18  C   UNL     1       8.858   9.533  19.294  0.00  0.00    +0.000 C 
BRANCH  18  19
ATOM     19  C   UNL     1       9.825  10.732  19.253  0.00  0.00    +0.000 C 
ATOM     20  C   UNL     1       9.718  11.520  17.946  0.00  0.00    +0.000 C 
ATOM     21  C   UNL     1      10.562  12.761  17.993  0.00  0.00    +0.000 A 
ATOM     22  C   UNL     1      11.123  13.297  16.830  0.00  0.00    +0.000 A 
ATOM     23  C   UNL     1      11.834  14.495  16.885  0.00  0.00    +0.000 A 
ATOM     24  C   UNL     1      11.969  15.173  18.097  0.00  0.00    +0.000 A 
ATOM     25  C   UNL     1      11.403  14.649  19.260  0.00  0.00    +0.000 A 
ATOM     26  C   UNL     1      10.715  13.438  19.207  0.00  0.00    +0.000 A 
ATOM     27  N   UNL     1      10.152  12.904  20.370  0.00  0.00    +0.000 N 
ATOM     28  C   UNL     1       9.599  11.651  20.452  0.00  0.00    +0.000 C 
ATOM     29  O   UNL     1       9.060  11.277  21.492  0.00  0.00    +0.000 OA
ATOM     30  H   UNL     1      10.129  13.453  21.219  0.00  0.00    +0.000 HD
ENDBRANCH  18  19
ENDBRANCH  17  18
ENDBRANCH   2  17
TORSDOF 5
ENDMDL
MODEL 2
REMARK VINA RESULT:      -9.1      1.571      2.386
REMARK  Name = 
REMARK  5 active torsions:
REMARK  status: ('A' for Active; 'I' for Inactive)
REMARK    1  A    between atoms: C_2  and  C_3
REMARK    2  A    between atoms: C_3  and  C_4
REMARK    3  A    between atoms: C_4  and  C_5
REMARK    4  A    between atoms: N_16  and  C_17
REMARK    5  A    between atoms: C_21  and  N_22
REMARK                            x       y       z     vdW  Elec       q    Type
REMARK                         _______ _______ _______ _____ _____    ______ ____
ROOT
ATOM      1  O   UNL     1       8.218   7.030  18.646  0.00  0.00    +0.000 OA
ATOM      2  C   UNL     1       7.679   7.830  17.887  0.00  0.00    +0.000 C 
ATOM      3  N   UNL     1       6.640   7.566  17.011  0.00  0.00    +0.000 N 
ATOM      4  H   UNL     1       6.403   8.293  16.347  0.00  0.00    +0.000 HD
ENDROOT
BRANCH   3   5
ATOM      5  C   UNL     1       5.929   6.351  16.892  0.00  0.00    +0.000 A 
ATOM      6  C   UNL     1       6.205   5.400  15.913  0.00  0.00    +0.000 A 
ATOM      7  C   UNL     1       5.453   4.233  15.838  0.00  0.00    +0.000 A 
ATOM      8  C   UNL     1       4.431   3.993  16.756  0.00  0.00    +0.000 A 
ATOM      9  C   UNL     1       4.145   4.904  17.778  0.00  0.00    +0.000 A 
ATOM     10  C   UNL     1       4.906   6.091  17.823  0.00  0.00    +0.000 A 
BRANCH   9  11
ATOM     11  N   UNL     1       3.130   4.640  18.742  0.00  0.00    +0.000 N 
ATOM     12  C   UNL     1       2.351   5.685  19.366  0.00  0.00    +0.000 C 
ATOM     13  C   UNL     1       1.693   5.014  20.553  0.00  0.00    +0.000 C 
ATOM     14  C   UNL     1       1.530   3.575  20.106  0.00  0.00    +0.000 C 
ATOM     15  C   UNL     1       2.681   3.372  19.151  0.00  0.00    +0.000 C 
ATOM     16  O   UNL     1       3.056   2.263  18.811  0.00  0.00    +0.000 OA
ENDBRANCH   9  11
ENDBRANCH   3   5
BRANCH   2  17
ATOM     17  C   UNL     1       8.161   9.267  17.843  0.00  0.00    +0.000 C 
BRANCH  17  18
ATOM     18  C   UNL     1       9.231   9.582  18.890  0.00  0.00    +0.000 C 
BRANCH  18  19
ATOM     19  C   UNL     1       9.269  11.054  19.341  0.00  0.00    +0.000 C 
ATOM     20  C   UNL     1       9.302  11.194  20.863  0.00  0.00    +0.000 C 
ATOM     21  C   UNL     1       9.485  12.629  21.270  0.00  0.00    +0.000 A 
ATOM     22  C   UNL     1       8.959  13.112  22.472  0.00  0.00    +0.000 A 
ATOM     23  C   UNL     1       9.213  14.424  22.869  0.00  0.00    +0.000 A 
ATOM     24  C   UNL     1      10.008  15.252  22.076  0.00  0.00    +0.000 A 
ATOM     25  C   UNL     1      10.544  14.774  20.880  0.00  0.00    +0.000 A 
ATOM     26  C   UNL     1      10.268  13.470  20.473  0.00  0.00    +0.000 A 
ATOM     27  N   UNL     1      10.796  12.987  19.272  0.00  0.00    +0.000 N 
ATOM     28  C   UNL     1      10.455  11.783  18.711  0.00  0.00    +0.000 C 
ATOM     29  O   UNL     1      11.014  11.394  17.687  0.00  0.00    +0.000 OA
ATOM     30  H   UNL     1      11.479  13.533  18.765  0.00  0.00    +0.000 HD
ENDBRANCH  18  19
ENDBRANCH  17  18
ENDBRANCH   2  17
TORSDOF 5
ENDMDL
MODEL 3
REMARK VINA RESULT:      -9.1      2.341      9.905
REMARK  Name = 
REMARK  5 active torsions:
REMARK  status: ('A' for Active; 'I' for Inactive)
REMARK    1  A    between atoms: C_2  and  C_3
REMARK    2  A    between atoms: C_3  and  C_4
REMARK    3  A    between atoms: C_4  and  C_5
REMARK    4  A    between atoms: N_16  and  C_17
REMARK    5  A    between atoms: C_21  and  N_22
REMARK                            x       y       z     vdW  Elec       q    Type
REMARK                         _______ _______ _______ _____ _____    ______ ____
ROOT
ATOM      1  O   UNL     1       7.836   9.870  17.742  0.00  0.00    +0.000 OA
ATOM      2  C   UNL     1       8.466   9.118  18.480  0.00  0.00    +0.000 C 
ATOM      3  N   UNL     1       9.413   9.485  19.421  0.00  0.00    +0.000 N 
ATOM      4  H   UNL     1       9.949   8.740  19.847  0.00  0.00    +0.000 HD
ENDROOT
BRANCH   3   5
ATOM      5  C   UNL     1       9.769  10.803  19.786  0.00  0.00    +0.000 A 
ATOM      6  C   UNL     1      10.596  11.611  19.010  0.00  0.00    +0.000 A 
ATOM      7  C   UNL     1      10.924  12.893  19.437  0.00  0.00    +0.000 A 
ATOM      8  C   UNL     1      10.408  13.390  20.634  0.00  0.00    +0.000 A 
ATOM      9  C   UNL     1       9.544  12.626  21.425  0.00  0.00    +0.000 A 
ATOM     10  C   UNL     1       9.242  11.321  20.984  0.00  0.00    +0.000 A 
BRANCH   9  11
ATOM     11  N   UNL     1       8.983  13.149  22.626  0.00  0.00    +0.000 N 
ATOM     12  C   UNL     1       8.967  14.561  22.934  0.00  0.00    +0.000 C 
ATOM     13  C   UNL     1       8.644  14.625  24.411  0.00  0.00    +0.000 C 
ATOM     14  C   UNL     1       7.797  13.391  24.648  0.00  0.00    +0.000 C 
ATOM     15  C   UNL     1       8.303  12.415  23.613  0.00  0.00    +0.000 C 
ATOM     16  O   UNL     1       8.072  11.219  23.680  0.00  0.00    +0.000 OA
ENDBRANCH   9  11
ENDBRANCH   3   5
BRANCH   2  17
ATOM     17  C   UNL     1       8.240   7.620  18.397  0.00  0.00    +0.000 C 
BRANCH  17  18
ATOM     18  C   UNL     1       7.287   7.211  17.273  0.00  0.00    +0.000 C 
BRANCH  18  19
ATOM     19  C   UNL     1       6.298   6.092  17.652  0.00  0.00    +0.000 C 
ATOM     20  C   UNL     1       4.858   6.438  17.272  0.00  0.00    +0.000 C 
ATOM     21  C   UNL     1       3.940   5.274  17.519  0.00  0.00    +0.000 A 
ATOM     22  C   UNL     1       2.595   5.472  17.845  0.00  0.00    +0.000 A 
ATOM     23  C   UNL     1       1.742   4.378  17.988  0.00  0.00    +0.000 A 
ATOM     24  C   UNL     1       2.225   3.085  17.785  0.00  0.00    +0.000 A 
ATOM     25  C   UNL     1       3.564   2.881  17.449  0.00  0.00    +0.000 A 
ATOM     26  C   UNL     1       4.420   3.974  17.332  0.00  0.00    +0.000 A 
ATOM     27  N   UNL     1       5.764   3.776  17.003  0.00  0.00    +0.000 N 
ATOM     28  C   UNL     1       6.715   4.765  17.021  0.00  0.00    +0.000 C 
ATOM     29  O   UNL     1       7.864   4.529  16.651  0.00  0.00    +0.000 OA
ATOM     30  H   UNL     1       6.086   2.859  16.723  0.00  0.00    +0.000 HD
ENDBRANCH  18  19
ENDBRANCH  17  18
ENDBRANCH   2  17
TORSDOF 5
ENDMDL
MODEL 4
REMARK VINA RESULT:      -9.0      2.470     10.573
REMARK  Name = 
REMARK  5 active torsions:
REMARK  status: ('A' for Active; 'I' for Inactive)
REMARK    1  A    between atoms: C_2  and  C_3
REMARK    2  A    between atoms: C_3  and  C_4
REMARK    3  A    between atoms: C_4  and  C_5
REMARK    4  A    between atoms: N_16  and  C_17
REMARK    5  A    between atoms: C_21  and  N_22
REMARK                            x       y       z     vdW  Elec       q    Type
REMARK                         _______ _______ _______ _____ _____    ______ ____
ROOT
ATOM      1  O   UNL     1       9.044   9.050  19.262  0.00  0.00    +0.000 OA
ATOM      2  C   UNL     1       8.440   9.477  18.282  0.00  0.00    +0.000 C 
ATOM      3  N   UNL     1       8.612  10.711  17.679  0.00  0.00    +0.000 N 
ATOM      4  H   UNL     1       7.937  10.973  16.970  0.00  0.00    +0.000 HD
ENDROOT
BRANCH   3   5
ATOM      5  C   UNL     1       9.585  11.681  18.010  0.00  0.00    +0.000 A 
ATOM      6  C   UNL     1      10.906  11.362  18.312  0.00  0.00    +0.000 A 
ATOM      7  C   UNL     1      11.808  12.364  18.650  0.00  0.00    +0.000 A 
ATOM      8  C   UNL     1      11.405  13.699  18.666  0.00  0.00    +0.000 A 
ATOM      9  C   UNL     1      10.098  14.067  18.332  0.00  0.00    +0.000 A 
ATOM     10  C   UNL     1       9.193  13.033  18.013  0.00  0.00    +0.000 A 
BRANCH   9  11
ATOM     11  N   UNL     1       9.697  15.434  18.307  0.00  0.00    +0.000 N 
ATOM     12  C   UNL     1       8.785  16.002  19.274  0.00  0.00    +0.000 C 
ATOM     13  C   UNL     1       8.355  17.319  18.665  0.00  0.00    +0.000 C 
ATOM     14  C   UNL     1       9.552  17.739  17.835  0.00  0.00    +0.000 C 
ATOM     15  C   UNL     1      10.177  16.425  17.433  0.00  0.00    +0.000 C 
ATOM     16  O   UNL     1      10.985  16.341  16.523  0.00  0.00    +0.000 OA
ENDBRANCH   9  11
ENDBRANCH   3   5
BRANCH   2  17
ATOM     17  C   UNL     1       7.375   8.621  17.624  0.00  0.00    +0.000 C 
BRANCH  17  18
ATOM     18  C   UNL     1       7.773   7.150  17.492  0.00  0.00    +0.000 C 
BRANCH  18  19
ATOM     19  C   UNL     1       6.644   6.152  17.811  0.00  0.00    +0.000 C 
ATOM     20  C   UNL     1       5.270   6.677  17.393  0.00  0.00    +0.000 C 
ATOM     21  C   UNL     1       4.211   5.629  17.583  0.00  0.00    +0.000 A 
ATOM     22  C   UNL     1       2.888   5.982  17.870  0.00  0.00    +0.000 A 
ATOM     23  C   UNL     1       1.906   4.997  17.959  0.00  0.00    +0.000 A 
ATOM     24  C   UNL     1       2.236   3.659  17.740  0.00  0.00    +0.000 A 
ATOM     25  C   UNL     1       3.551   3.301  17.443  0.00  0.00    +0.000 A 
ATOM     26  C   UNL     1       4.537   4.285  17.379  0.00  0.00    +0.000 A 
ATOM     27  N   UNL     1       5.858   3.932  17.089  0.00  0.00    +0.000 N 
ATOM     28  C   UNL     1       6.919   4.797  17.162  0.00  0.00    +0.000 C 
ATOM     29  O   UNL     1       8.044   4.432  16.824  0.00  0.00    +0.000 OA
ATOM     30  H   UNL     1       6.076   2.988  16.797  0.00  0.00    +0.000 HD
ENDBRANCH  18  19
ENDBRANCH  17  18
ENDBRANCH   2  17
TORSDOF 5
ENDMDL
MODEL 5
REMARK VINA RESULT:      -8.9      1.762      2.618
REMARK  Name = 
REMARK  5 active torsions:
REMARK  status: ('A' for Active; 'I' for Inactive)
REMARK    1  A    between atoms: C_2  and  C_3
REMARK    2  A    between atoms: C_3  and  C_4
REMARK    3  A    between atoms: C_4  and  C_5
REMARK    4  A    between atoms: N_16  and  C_17
REMARK    5  A    between atoms: C_21  and  N_22
REMARK                            x       y       z     vdW  Elec       q    Type
REMARK                         _______ _______ _______ _____ _____    ______ ____
ROOT
ATOM      1  O   UNL     1       8.307   7.085  18.686  0.00  0.00    +0.000 OA
ATOM      2  C   UNL     1       7.762   7.855  17.900  0.00  0.00    +0.000 C 
ATOM      3  N   UNL     1       6.797   7.531  16.962  0.00  0.00    +0.000 N 
ATOM      4  H   UNL     1       6.552   8.247  16.290  0.00  0.00    +0.000 HD
ENDROOT
BRANCH   3   5
ATOM      5  C   UNL     1       6.178   6.272  16.793  0.00  0.00    +0.000 A 
ATOM      6  C   UNL     1       6.564   5.360  15.813  0.00  0.00    +0.000 A 
ATOM      7  C   UNL     1       5.899   4.145  15.687  0.00  0.00    +0.000 A 
ATOM      8  C   UNL     1       4.856   3.819  16.555  0.00  0.00    +0.000 A 
ATOM      9  C   UNL     1       4.463   4.690  17.575  0.00  0.00    +0.000 A 
ATOM     10  C   UNL     1       5.136   5.925  17.673  0.00  0.00    +0.000 A 
BRANCH   9  11
ATOM     11  N   UNL     1       3.426   4.339  18.489  0.00  0.00    +0.000 N 
ATOM     12  C   UNL     1       3.378   3.064  19.168  0.00  0.00    +0.000 C 
ATOM     13  C   UNL     1       1.969   2.975  19.713  0.00  0.00    +0.000 C 
ATOM     14  C   UNL     1       1.589   4.421  19.963  0.00  0.00    +0.000 C 
ATOM     15  C   UNL     1       2.386   5.176  18.926  0.00  0.00    +0.000 C 
ATOM     16  O   UNL     1       2.127   6.328  18.620  0.00  0.00    +0.000 OA
ENDBRANCH   9  11
ENDBRANCH   3   5
BRANCH   2  17
ATOM     17  C   UNL     1       8.146   9.322  17.895  0.00  0.00    +0.000 C 
BRANCH  17  18
ATOM     18  C   UNL     1       9.302   9.651  18.842  0.00  0.00    +0.000 C 
BRANCH  18  19
ATOM     19  C   UNL     1       9.331  11.113  19.329  0.00  0.00    +0.000 C 
ATOM     20  C   UNL     1       9.267  11.219  20.853  0.00  0.00    +0.000 C 
ATOM     21  C   UNL     1       9.443  12.641  21.303  0.00  0.00    +0.000 A 
ATOM     22  C   UNL     1       8.848  13.104  22.481  0.00  0.00    +0.000 A 
ATOM     23  C   UNL     1       9.093  14.404  22.923  0.00  0.00    +0.000 A 
ATOM     24  C   UNL     1       9.949  15.237  22.202  0.00  0.00    +0.000 A 
ATOM     25  C   UNL     1      10.554  14.778  21.032  0.00  0.00    +0.000 A 
ATOM     26  C   UNL     1      10.288  13.487  20.579  0.00  0.00    +0.000 A 
ATOM     27  N   UNL     1      10.885  13.022  19.403  0.00  0.00    +0.000 N 
ATOM     28  C   UNL     1      10.565  11.837  18.793  0.00  0.00    +0.000 C 
ATOM     29  O   UNL     1      11.183  11.463  17.798  0.00  0.00    +0.000 OA
ATOM     30  H   UNL     1      11.607  13.570  18.953  0.00  0.00    +0.000 HD
ENDBRANCH  18  19
ENDBRANCH  17  18
ENDBRANCH   2  17
TORSDOF 5
ENDMDL
MODEL 6
REMARK VINA RESULT:      -8.8      2.447      9.968
REMARK  Name = 
REMARK  5 active torsions:
REMARK  status: ('A' for Active; 'I' for Inactive)
REMARK    1  A    between atoms: C_2  and  C_3
REMARK    2  A    between atoms: C_3  and  C_4
REMARK    3  A    between atoms: C_4  and  C_5
REMARK    4  A    between atoms: N_16  and  C_17
REMARK    5  A    between atoms: C_21  and  N_22
REMARK                            x       y       z     vdW  Elec       q    Type
REMARK                         _______ _______ _______ _____ _____    ______ ____
ROOT
ATOM      1  O   UNL     1       7.983   9.911  17.688  0.00  0.00    +0.000 OA
ATOM      2  C   UNL     1       8.535   9.179  18.505  0.00  0.00    +0.000 C 
ATOM      3  N   UNL     1       9.416   9.567  19.499  0.00  0.00    +0.000 N 
ATOM      4  H   UNL     1       9.899   8.830  19.998  0.00  0.00    +0.000 HD
ENDROOT
BRANCH   3   5
ATOM      5  C   UNL     1       9.775  10.892  19.834  0.00  0.00    +0.000 A 
ATOM      6  C   UNL     1      10.873  11.547  19.280  0.00  0.00    +0.000 A 
ATOM      7  C   UNL     1      11.182  12.845  19.669  0.00  0.00    +0.000 A 
ATOM      8  C   UNL     1      10.384  13.512  20.598  0.00  0.00    +0.000 A 
ATOM      9  C   UNL     1       9.252  12.906  21.150  0.00  0.00    +0.000 A 
ATOM     10  C   UNL     1       8.968  11.581  20.759  0.00  0.00    +0.000 A 
BRANCH   9  11
ATOM     11  N   UNL     1       8.412  13.601  22.067  0.00  0.00    +0.000 N 
ATOM     12  C   UNL     1       8.529  13.459  23.501  0.00  0.00    +0.000 C 
ATOM     13  C   UNL     1       7.247  14.048  24.048  0.00  0.00    +0.000 C 
ATOM     14  C   UNL     1       6.873  15.106  23.029  0.00  0.00    +0.000 C 
ATOM     15  C   UNL     1       7.443  14.565  21.740  0.00  0.00    +0.000 C 
ATOM     16  O   UNL     1       7.096  14.987  20.649  0.00  0.00    +0.000 OA
ENDBRANCH   9  11
ENDBRANCH   3   5
BRANCH   2  17
ATOM     17  C   UNL     1       8.280   7.684  18.468  0.00  0.00    +0.000 C 
BRANCH  17  18
ATOM     18  C   UNL     1       7.368   7.251  17.319  0.00  0.00    +0.000 C 
BRANCH  18  19
ATOM     19  C   UNL     1       6.352   6.154  17.689  0.00  0.00    +0.000 C 
ATOM     20  C   UNL     1       4.923   6.528  17.295  0.00  0.00    +0.000 C 
ATOM     21  C   UNL     1       3.980   5.385  17.535  0.00  0.00    +0.000 A 
ATOM     22  C   UNL     1       2.635   5.611  17.848  0.00  0.00    +0.000 A 
ATOM     23  C   UNL     1       1.759   4.535  17.984  0.00  0.00    +0.000 A 
ATOM     24  C   UNL     1       2.217   3.232  17.788  0.00  0.00    +0.000 A 
ATOM     25  C   UNL     1       3.554   2.999  17.465  0.00  0.00    +0.000 A 
ATOM     26  C   UNL     1       4.434   4.075  17.354  0.00  0.00    +0.000 A 
ATOM     27  N   UNL     1       5.777   3.848  17.039  0.00  0.00    +0.000 N 
ATOM     28  C   UNL     1       6.747   4.817  17.064  0.00  0.00    +0.000 C 
ATOM     29  O   UNL     1       7.895   4.557  16.706  0.00  0.00    +0.000 OA
ATOM     30  H   UNL     1       6.082   2.924  16.763  0.00  0.00    +0.000 HD
ENDBRANCH  18  19
ENDBRANCH  17  18
ENDBRANCH   2  17
TORSDOF 5
ENDMDL
MODEL 7
REMARK VINA RESULT:      -8.8      2.191     10.540
REMARK  Name = 
REMARK  5 active torsions:
REMARK  status: ('A' for Active; 'I' for Inactive)
REMARK    1  A    between atoms: C_2  and  C_3
REMARK    2  A    between atoms: C_3  and  C_4
REMARK    3  A    between atoms: C_4  and  C_5
REMARK    4  A    between atoms: N_16  and  C_17
REMARK    5  A    between atoms: C_21  and  N_22
REMARK                            x       y       z     vdW  Elec       q    Type
REMARK                         _______ _______ _______ _____ _____    ______ ____
ROOT
ATOM      1  O   UNL     1       9.118   8.885  19.219  0.00  0.00    +0.000 OA
ATOM      2  C   UNL     1       8.475   9.392  18.303  0.00  0.00    +0.000 C 
ATOM      3  N   UNL     1       8.604  10.682  17.819  0.00  0.00    +0.000 N 
ATOM      4  H   UNL     1       7.903  10.997  17.160  0.00  0.00    +0.000 HD
ENDROOT
BRANCH   3   5
ATOM      5  C   UNL     1       9.569  11.637  18.214  0.00  0.00    +0.000 A 
ATOM      6  C   UNL     1      10.805  11.291  18.753  0.00  0.00    +0.000 A 
ATOM      7  C   UNL     1      11.701  12.281  19.141  0.00  0.00    +0.000 A 
ATOM      8  C   UNL     1      11.380  13.627  18.973  0.00  0.00    +0.000 A 
ATOM      9  C   UNL     1      10.165  14.017  18.402  0.00  0.00    +0.000 A 
ATOM     10  C   UNL     1       9.262  12.998  18.034  0.00  0.00    +0.000 A 
BRANCH   9  11
ATOM     11  N   UNL     1       9.853  15.392  18.190  0.00  0.00    +0.000 N 
ATOM     12  C   UNL     1      10.495  16.193  17.173  0.00  0.00    +0.000 C 
ATOM     13  C   UNL     1      10.159  17.621  17.544  0.00  0.00    +0.000 C 
ATOM     14  C   UNL     1       8.813  17.507  18.232  0.00  0.00    +0.000 C 
ATOM     15  C   UNL     1       8.850  16.127  18.845  0.00  0.00    +0.000 C 
ATOM     16  O   UNL     1       8.073  15.784  19.720  0.00  0.00    +0.000 OA
ENDBRANCH   9  11
ENDBRANCH   3   5
BRANCH   2  17
ATOM     17  C   UNL     1       7.406   8.581  17.596  0.00  0.00    +0.000 C 
BRANCH  17  18
ATOM     18  C   UNL     1       7.762   7.101  17.451  0.00  0.00    +0.000 C 
BRANCH  18  19
ATOM     19  C   UNL     1       6.632   6.131  17.843  0.00  0.00    +0.000 C 
ATOM     20  C   UNL     1       5.268   6.587  17.322  0.00  0.00    +0.000 C 
ATOM     21  C   UNL     1       4.213   5.553  17.593  0.00  0.00    +0.000 A 
ATOM     22  C   UNL     1       2.878   5.918  17.795  0.00  0.00    +0.000 A 
ATOM     23  C   UNL     1       1.903   4.937  17.961  0.00  0.00    +0.000 A 
ATOM     24  C   UNL     1       2.253   3.587  17.907  0.00  0.00    +0.000 A 
ATOM     25  C   UNL     1       3.581   3.215  17.696  0.00  0.00    +0.000 A 
ATOM     26  C   UNL     1       4.559   4.199  17.555  0.00  0.00    +0.000 A 
ATOM     27  N   UNL     1       5.892   3.833  17.351  0.00  0.00    +0.000 N 
ATOM     28  C   UNL     1       6.942   4.715  17.361  0.00  0.00    +0.000 C 
ATOM     29  O   UNL     1       8.081   4.328  17.104  0.00  0.00    +0.000 OA
ATOM     30  H   UNL     1       6.129   2.865  17.176  0.00  0.00    +0.000 HD
ENDBRANCH  18  19
ENDBRANCH  17  18
ENDBRANCH   2  17
TORSDOF 5
ENDMDL
MODEL 8
REMARK VINA RESULT:      -8.8      2.117     10.283
REMARK  Name = 
REMARK  5 active torsions:
REMARK  status: ('A' for Active; 'I' for Inactive)
REMARK    1  A    between atoms: C_2  and  C_3
REMARK    2  A    between atoms: C_3  and  C_4
REMARK    3  A    between atoms: C_4  and  C_5
REMARK    4  A    between atoms: N_16  and  C_17
REMARK    5  A    between atoms: C_21  and  N_22
REMARK                            x       y       z     vdW  Elec       q    Type
REMARK                         _______ _______ _______ _____ _____    ______ ____
ROOT
ATOM      1  O   UNL     1       7.130  10.018  17.540  0.00  0.00    +0.000 OA
ATOM      2  C   UNL     1       7.983   9.206  17.887  0.00  0.00    +0.000 C 
ATOM      3  N   UNL     1       9.082   9.457  18.692  0.00  0.00    +0.000 N 
ATOM      4  H   UNL     1       9.772   8.720  18.768  0.00  0.00    +0.000 HD
ENDROOT
BRANCH   3   5
ATOM      5  C   UNL     1       9.381  10.670  19.353  0.00  0.00    +0.000 A 
ATOM      6  C   UNL     1       9.466  10.781  20.738  0.00  0.00    +0.000 A 
ATOM      7  C   UNL     1       9.745  12.010  21.326  0.00  0.00    +0.000 A 
ATOM      8  C   UNL     1       9.964  13.136  20.533  0.00  0.00    +0.000 A 
ATOM      9  C   UNL     1       9.926  13.060  19.138  0.00  0.00    +0.000 A 
ATOM     10  C   UNL     1       9.621  11.809  18.562  0.00  0.00    +0.000 A 
BRANCH   9  11
ATOM     11  N   UNL     1      10.193  14.201  18.327  0.00  0.00    +0.000 N 
ATOM     12  C   UNL     1       9.311  15.345  18.268  0.00  0.00    +0.000 C 
ATOM     13  C   UNL     1       9.764  16.113  17.045  0.00  0.00    +0.000 C 
ATOM     14  C   UNL     1      11.244  15.802  16.953  0.00  0.00    +0.000 C 
ATOM     15  C   UNL     1      11.351  14.425  17.562  0.00  0.00    +0.000 C 
ATOM     16  O   UNL     1      12.332  13.718  17.403  0.00  0.00    +0.000 OA
ENDBRANCH   9  11
ENDBRANCH   3   5
BRANCH   2  17
ATOM     17  C   UNL     1       7.893   7.769  17.412  0.00  0.00    +0.000 C 
BRANCH  17  18
ATOM     18  C   UNL     1       7.916   6.749  18.552  0.00  0.00    +0.000 C 
BRANCH  18  19
ATOM     19  C   UNL     1       6.749   5.744  18.533  0.00  0.00    +0.000 C 
ATOM     20  C   UNL     1       5.425   6.400  18.139  0.00  0.00    +0.000 C 
ATOM     21  C   UNL     1       4.338   5.374  17.988  0.00  0.00    +0.000 A 
ATOM     22  C   UNL     1       3.001   5.696  18.240  0.00  0.00    +0.000 A 
ATOM     23  C   UNL     1       2.000   4.752  18.014  0.00  0.00    +0.000 A 
ATOM     24  C   UNL     1       2.329   3.491  17.515  0.00  0.00    +0.000 A 
ATOM     25  C   UNL     1       3.660   3.166  17.251  0.00  0.00    +0.000 A 
ATOM     26  C   UNL     1       4.661   4.103  17.502  0.00  0.00    +0.000 A 
ATOM     27  N   UNL     1       5.997   3.782  17.247  0.00  0.00    +0.000 N 
ATOM     28  C   UNL     1       7.061   4.569  17.609  0.00  0.00    +0.000 C 
ATOM     29  O   UNL     1       8.205   4.253  17.288  0.00  0.00    +0.000 OA
ATOM     30  H   UNL     1       6.227   2.925  16.761  0.00  0.00    +0.000 HD
ENDBRANCH  18  19
ENDBRANCH  17  18
ENDBRANCH   2  17
TORSDOF 5
ENDMDL
MODEL 9
REMARK VINA RESULT:      -8.7      5.825      8.878
REMARK  Name = 
REMARK  5 active torsions:
REMARK  status: ('A' for Active; 'I' for Inactive)
REMARK    1  A    between atoms: C_2  and  C_3
REMARK    2  A    between atoms: C_3  and  C_4
REMARK    3  A    between atoms: C_4  and  C_5
REMARK    4  A    between atoms: N_16  and  C_17
REMARK    5  A    between atoms: C_21  and  N_22
REMARK                            x       y       z     vdW  Elec       q    Type
REMARK                         _______ _______ _______ _____ _____    ______ ____
ROOT
ATOM      1  O   UNL     1       0.564   4.654  20.278  0.00  0.00    +0.000 OA
ATOM      2  C   UNL     1       1.698   4.838  20.713  0.00  0.00    +0.000 C 
ATOM      3  N   UNL     1       2.443   6.001  20.610  0.00  0.00    +0.000 N 
ATOM      4  H   UNL     1       3.415   5.949  20.889  0.00  0.00    +0.000 HD
ENDROOT
BRANCH   3   5
ATOM      5  C   UNL     1       2.008   7.234  20.074  0.00  0.00    +0.000 A 
ATOM      6  C   UNL     1       2.280   7.635  18.769  0.00  0.00    +0.000 A 
ATOM      7  C   UNL     1       1.839   8.872  18.311  0.00  0.00    +0.000 A 
ATOM      8  C   UNL     1       1.102   9.711  19.146  0.00  0.00    +0.000 A 
ATOM      9  C   UNL     1       0.775   9.331  20.451  0.00  0.00    +0.000 A 
ATOM     10  C   UNL     1       1.250   8.082  20.903  0.00  0.00    +0.000 A 
BRANCH   9  11
ATOM     11  N   UNL     1      -0.014  10.169  21.290  0.00  0.00    +0.000 N 
ATOM     12  C   UNL     1      -0.065  10.016  22.727  0.00  0.00    +0.000 C 
ATOM     13  C   UNL     1      -1.270  10.825  23.154  0.00  0.00    +0.000 C 
ATOM     14  C   UNL     1      -1.349  11.927  22.117  0.00  0.00    +0.000 C 
ATOM     15  C   UNL     1      -0.760  11.289  20.882  0.00  0.00    +0.000 C 
ATOM     16  O   UNL     1      -0.918  11.760  19.768  0.00  0.00    +0.000 OA
ENDBRANCH   9  11
ENDBRANCH   3   5
BRANCH   2  17
ATOM     17  C   UNL     1       2.418   3.716  21.434  0.00  0.00    +0.000 C 
BRANCH  17  18
ATOM     18  C   UNL     1       3.223   2.810  20.500  0.00  0.00    +0.000 C 
BRANCH  18  19
ATOM     19  C   UNL     1       3.771   3.515  19.245  0.00  0.00    +0.000 C 
ATOM     20  C   UNL     1       5.165   4.102  19.470  0.00  0.00    +0.000 C 
ATOM     21  C   UNL     1       5.731   4.654  18.193  0.00  0.00    +0.000 A 
ATOM     22  C   UNL     1       6.628   5.727  18.204  0.00  0.00    +0.000 A 
ATOM     23  C   UNL     1       7.205   6.168  17.015  0.00  0.00    +0.000 A 
ATOM     24  C   UNL     1       6.906   5.525  15.812  0.00  0.00    +0.000 A 
ATOM     25  C   UNL     1       6.021   4.447  15.795  0.00  0.00    +0.000 A 
ATOM     26  C   UNL     1       5.425   4.024  16.983  0.00  0.00    +0.000 A 
ATOM     27  N   UNL     1       4.532   2.949  16.971  0.00  0.00    +0.000 N 
ATOM     28  C   UNL     1       3.777   2.564  18.050  0.00  0.00    +0.000 C 
ATOM     29  O   UNL     1       3.064   1.564  17.984  0.00  0.00    +0.000 OA
ATOM     30  H   UNL     1       4.417   2.397  16.131  0.00  0.00    +0.000 HD
ENDBRANCH  18  19
ENDBRANCH  17  18
ENDBRANCH   2  17
TORSDOF 5
ENDMDL
