MODEL 1
REMARK VINA RESULT:      -9.1      0.000      0.000
REMARK  Name = 
REMARK  7 active torsions:
REMARK  status: ('A' for Active; 'I' for Inactive)
REMARK    1  A    between atoms: C_1  and  N_2
REMARK    2  A    between atoms: C_3  and  C_4
REMARK    3  A    between atoms: C_4  and  N_5
REMARK    4  A    between atoms: C_4  and  C_20
REMARK    5  A    between atoms: N_5  and  C_6
REMARK    6  A    between atoms: N_10  and  C_11
REMARK    7  A    between atoms: C_11  and  C_12
REMARK                            x       y       z     vdW  Elec       q    Type
REMARK                         _______ _______ _______ _____ _____    ______ ____
ROOT
ATOM      1  C   UNL     1       2.576   6.203  19.379  0.00  0.00    +0.000 C 
ENDROOT
BRANCH   1   4
ATOM      2  C   UNL     1       1.854   8.943  17.927  0.00  0.00    +0.000 C 
ATOM      3  N   UNL     1       1.545   8.587  19.291  0.00  0.00    +0.000 N 
ATOM      4  C   UNL     1       1.816   7.405  19.951  0.00  0.00    +0.000 A 
ATOM      5  N   UNL     1       1.361   7.463  21.193  0.00  0.00    +0.000 NA
ATOM      6  C   UNL     1       0.808   8.698  21.349  0.00  0.00    +0.000 A 
ATOM      7  C   UNL     1       0.190   9.250  22.479  0.00  0.00    +0.000 A 
ATOM      8  C   UNL     1      -0.283  10.559  22.409  0.00  0.00    +0.000 A 
ATOM      9  C   UNL     1      -0.152  11.304  21.237  0.00  0.00    +0.000 A 
ATOM     10  C   UNL     1       0.453  10.757  20.091  0.00  0.00    +0.000 A 
ATOM     11  C   UNL     1       0.920   9.439  20.181  0.00  0.00    +0.000 A 
ENDBRANCH   1   4
BRANCH   1  12
ATOM     12  C   UNL     1       1.891   4.837  19.557  0.00  0.00    +0.000 A 
ATOM     13  C   UNL     1       1.767   4.198  20.806  0.00  0.00    +0.000 A 
ATOM     14  C   UNL     1       1.278   2.894  20.907  0.00  0.00    +0.000 A 
ATOM     15  C   UNL     1       0.869   2.209  19.768  0.00  0.00    +0.000 A 
ATOM     16  C   UNL     1       0.921   2.838  18.528  0.00  0.00    +0.000 A 
ATOM     17  C   UNL     1       1.411   4.144  18.425  0.00  0.00    +0.000 A 
ENDBRANCH   1  12
BRANCH   1  18
ATOM     18  N   UNL     1       3.993   6.178  19.830  0.00  0.00    +0.000 NA
ATOM     19  H   UNL     1       4.038   5.685  20.723  0.00  0.00    +0.000 HD
BRANCH  18  20
ATOM     20  C   UNL     1       4.965   5.488  18.937  0.00  0.00    +0.000 C 
ATOM     21  C   UNL     1       4.964   3.955  19.004  0.00  0.00    +0.000 C 
ATOM     22  C   UNL     1       4.663   3.297  17.672  0.00  0.00    +0.000 C 
ATOM     23  C   UNL     1       5.566   3.865  16.594  0.00  0.00    +0.000 C 
ATOM     24  N   UNL     1       5.453   5.315  16.502  0.00  0.00    +0.000 N 
ATOM     25  C   UNL     1       4.779   6.029  17.487  0.00  0.00    +0.000 C 
ATOM     26  O   UNL     1       4.206   7.096  17.259  0.00  0.00    +0.000 OA
BRANCH  24  27
ATOM     27  C   UNL     1       5.798   5.962  15.240  0.00  0.00    +0.000 C 
BRANCH  27  28
ATOM     28  C   UNL     1       6.052   4.992  14.106  0.00  0.00    +0.000 A 
ATOM     29  C   UNL     1       5.021   4.158  13.634  0.00  0.00    +0.000 A 
ATOM     30  C   UNL     1       5.234   3.293  12.559  0.00  0.00    +0.000 A 
ATOM     31  C   UNL     1       6.475   3.249  11.927  0.00  0.00    +0.000 A 
ATOM     32  C   UNL     1       7.500   4.080  12.368  0.00  0.00    +0.000 A 
ATOM     33  C   UNL     1       7.296   4.946  13.442  0.00  0.00    +0.000 A 
ENDBRANCH  27  28
ENDBRANCH  24  27
ENDBRANCH  18  20
ENDBRANCH   1  18
TORSDOF 6
ENDMDL
MODEL 2
REMARK VINA RESULT:      -8.9      3.733      7.358
REMARK  Name = 
REMARK  7 active torsions:
REMARK  status: ('A' for Active; 'I' for Inactive)
REMARK    1  A    between atoms: C_1  and  N_2
REMARK    2  A    between atoms: C_3  and  C_4
REMARK    3  A    between atoms: C_4  and  N_5
REMARK    4  A    between atoms: C_4  and  C_20
REMARK    5  A    between atoms: N_5  and  C_6
REMARK    6  A    between atoms: N_10  and  C_11
REMARK    7  A    between atoms: C_11  and  C_12
REMARK                            x       y       z     vdW  Elec       q    Type
REMARK                         _______ _______ _______ _____ _____    ______ ____
ROOT
ATOM      1  C   UNL     1      -0.642  11.604  20.503  0.00  0.00    +0.000 C 
ENDROOT
BRANCH   1   4
ATOM      2  C   UNL     1      -0.276  13.963  18.396  0.00  0.00    +0.000 C 
ATOM      3  N   UNL     1       0.628  13.622  19.467  0.00  0.00    +0.000 N 
ATOM      4  C   UNL     1       0.497  12.627  20.416  0.00  0.00    +0.000 A 
ATOM      5  N   UNL     1       1.536  12.642  21.238  0.00  0.00    +0.000 NA
ATOM      6  C   UNL     1       2.358  13.640  20.810  0.00  0.00    +0.000 A 
ATOM      7  C   UNL     1       3.584  14.061  21.342  0.00  0.00    +0.000 A 
ATOM      8  C   UNL     1       4.265  15.100  20.710  0.00  0.00    +0.000 A 
ATOM      9  C   UNL     1       3.736  15.713  19.575  0.00  0.00    +0.000 A 
ATOM     10  C   UNL     1       2.500  15.311  19.038  0.00  0.00    +0.000 A 
ATOM     11  C   UNL     1       1.830  14.266  19.690  0.00  0.00    +0.000 A 
ENDBRANCH   1   4
BRANCH   1  12
ATOM     12  C   UNL     1      -1.865  12.040  21.326  0.00  0.00    +0.000 A 
ATOM     13  C   UNL     1      -2.959  12.731  20.769  0.00  0.00    +0.000 A 
ATOM     14  C   UNL     1      -3.977  13.244  21.574  0.00  0.00    +0.000 A 
ATOM     15  C   UNL     1      -3.947  13.052  22.951  0.00  0.00    +0.000 A 
ATOM     16  C   UNL     1      -2.911  12.319  23.522  0.00  0.00    +0.000 A 
ATOM     17  C   UNL     1      -1.890  11.804  22.718  0.00  0.00    +0.000 A 
ENDBRANCH   1  12
BRANCH   1  18
ATOM     18  N   UNL     1      -0.149  10.260  20.906  0.00  0.00    +0.000 NA
ATOM     19  H   UNL     1      -0.897   9.781  21.410  0.00  0.00    +0.000 HD
BRANCH  18  20
ATOM     20  C   UNL     1       0.253   9.339  19.807  0.00  0.00    +0.000 C 
ATOM     21  C   UNL     1       0.471   9.990  18.435  0.00  0.00    +0.000 C 
ATOM     22  C   UNL     1       1.871   9.786  17.890  0.00  0.00    +0.000 C 
ATOM     23  C   UNL     1       2.240   8.315  17.939  0.00  0.00    +0.000 C 
ATOM     24  N   UNL     1       2.114   7.770  19.285  0.00  0.00    +0.000 N 
ATOM     25  C   UNL     1       1.481   8.505  20.281  0.00  0.00    +0.000 C 
ATOM     26  O   UNL     1       1.768   8.390  21.475  0.00  0.00    +0.000 OA
BRANCH  24  27
ATOM     27  C   UNL     1       2.902   6.592  19.636  0.00  0.00    +0.000 C 
BRANCH  27  28
ATOM     28  C   UNL     1       2.142   5.289  19.507  0.00  0.00    +0.000 A 
ATOM     29  C   UNL     1       2.004   4.664  18.253  0.00  0.00    +0.000 A 
ATOM     30  C   UNL     1       1.345   3.439  18.131  0.00  0.00    +0.000 A 
ATOM     31  C   UNL     1       0.818   2.810  19.257  0.00  0.00    +0.000 A 
ATOM     32  C   UNL     1       0.962   3.404  20.507  0.00  0.00    +0.000 A 
ATOM     33  C   UNL     1       1.618   4.628  20.636  0.00  0.00    +0.000 A 
ENDBRANCH  27  28
ENDBRANCH  24  27
ENDBRANCH  18  20
ENDBRANCH   1  18
TORSDOF 6
ENDMDL
MODEL 3
REMARK VINA RESULT:      -8.5      1.080      1.751
REMARK  Name = 
REMARK  7 active torsions:
REMARK  status: ('A' for Active; 'I' for Inactive)
REMARK    1  A    between atoms: C_1  and  N_2
REMARK    2  A    between atoms: C_3  and  C_4
REMARK    3  A    between atoms: C_4  and  N_5
REMARK    4  A    between atoms: C_4  and  C_20
REMARK    5  A    between atoms: N_5  and  C_6
REMARK    6  A    between atoms: N_10  and  C_11
REMARK    7  A    between atoms: C_11  and  C_12
REMARK                            x       y       z     vdW  Elec       q    Type
REMARK                         _______ _______ _______ _____ _____    ______ ____
ROOT
ATOM      1  C   UNL     1       2.572   6.171  18.936  0.00  0.00    +0.000 C 
ENDROOT
BRANCH   1   4
ATOM      2  C   UNL     1       2.059   9.083  17.754  0.00  0.00    +0.000 C 
ATOM      3  N   UNL     1       1.703   8.617  19.073  0.00  0.00    +0.000 N 
ATOM      4  C   UNL     1       1.883   7.360  19.616  0.00  0.00    +0.000 A 
ATOM      5  N   UNL     1       1.410   7.327  20.853  0.00  0.00    +0.000 NA
ATOM      6  C   UNL     1       0.938   8.575  21.123  0.00  0.00    +0.000 A 
ATOM      7  C   UNL     1       0.338   9.055  22.296  0.00  0.00    +0.000 A 
ATOM      8  C   UNL     1      -0.046  10.394  22.350  0.00  0.00    +0.000 A 
ATOM      9  C   UNL     1       0.156  11.238  21.259  0.00  0.00    +0.000 A 
ATOM     10  C   UNL     1       0.743  10.767  20.071  0.00  0.00    +0.000 A 
ATOM     11  C   UNL     1       1.120   9.418  20.036  0.00  0.00    +0.000 A 
ENDBRANCH   1   4
BRANCH   1  12
ATOM     12  C   UNL     1       2.039   4.782  19.327  0.00  0.00    +0.000 A 
ATOM     13  C   UNL     1       2.197   4.234  20.615  0.00  0.00    +0.000 A 
ATOM     14  C   UNL     1       1.837   2.914  20.889  0.00  0.00    +0.000 A 
ATOM     15  C   UNL     1       1.280   2.118  19.894  0.00  0.00    +0.000 A 
ATOM     16  C   UNL     1       1.054   2.652  18.629  0.00  0.00    +0.000 A 
ATOM     17  C   UNL     1       1.414   3.974  18.352  0.00  0.00    +0.000 A 
ENDBRANCH   1  12
BRANCH   1  18
ATOM     18  N   UNL     1       4.052   6.251  19.048  0.00  0.00    +0.000 NA
ATOM     19  H   UNL     1       4.391   5.385  19.470  0.00  0.00    +0.000 HD
BRANCH  18  20
ATOM     20  C   UNL     1       4.810   6.404  17.774  0.00  0.00    +0.000 C 
ATOM     21  C   UNL     1       5.737   7.623  17.689  0.00  0.00    +0.000 C 
ATOM     22  C   UNL     1       7.189   7.258  17.449  0.00  0.00    +0.000 C 
ATOM     23  C   UNL     1       7.301   6.316  16.265  0.00  0.00    +0.000 C 
ATOM     24  N   UNL     1       6.480   5.125  16.442  0.00  0.00    +0.000 N 
ATOM     25  C   UNL     1       5.547   5.064  17.471  0.00  0.00    +0.000 C 
ATOM     26  O   UNL     1       5.212   4.003  18.002  0.00  0.00    +0.000 OA
BRANCH  24  27
ATOM     27  C   UNL     1       6.848   3.912  15.718  0.00  0.00    +0.000 C 
BRANCH  27  28
ATOM     28  C   UNL     1       6.447   3.926  14.259  0.00  0.00    +0.000 A 
ATOM     29  C   UNL     1       7.387   4.253  13.263  0.00  0.00    +0.000 A 
ATOM     30  C   UNL     1       7.039   4.224  11.910  0.00  0.00    +0.000 A 
ATOM     31  C   UNL     1       5.750   3.860  11.525  0.00  0.00    +0.000 A 
ATOM     32  C   UNL     1       4.814   3.515  12.495  0.00  0.00    +0.000 A 
ATOM     33  C   UNL     1       5.154   3.543  13.848  0.00  0.00    +0.000 A 
ENDBRANCH  27  28
ENDBRANCH  24  27
ENDBRANCH  18  20
ENDBRANCH   1  18
TORSDOF 6
ENDMDL
MODEL 4
REMARK VINA RESULT:      -8.5      3.119      6.442
REMARK  Name = 
REMARK  7 active torsions:
REMARK  status: ('A' for Active; 'I' for Inactive)
REMARK    1  A    between atoms: C_1  and  N_2
REMARK    2  A    between atoms: C_3  and  C_4
REMARK    3  A    between atoms: C_4  and  N_5
REMARK    4  A    between atoms: C_4  and  C_20
REMARK    5  A    between atoms: N_5  and  C_6
REMARK    6  A    between atoms: N_10  and  C_11
REMARK    7  A    between atoms: C_11  and  C_12
REMARK                            x       y       z     vdW  Elec       q    Type
REMARK                         _______ _______ _______ _____ _____    ______ ____
ROOT
ATOM      1  C   UNL     1       0.476  10.763  19.456  0.00  0.00    +0.000 C 
ENDROOT
BRANCH   1   4
ATOM      2  C   UNL     1      -1.745  12.178  21.245  0.00  0.00    +0.000 C 
ATOM      3  N   UNL     1      -1.896  11.737  19.880  0.00  0.00    +0.000 N 
ATOM      4  C   UNL     1      -0.956  11.144  19.060  0.00  0.00    +0.000 A 
ATOM      5  N   UNL     1      -1.480  10.898  17.869  0.00  0.00    +0.000 NA
ATOM      6  C   UNL     1      -2.775  11.315  17.919  0.00  0.00    +0.000 A 
ATOM      7  C   UNL     1      -3.753  11.275  16.916  0.00  0.00    +0.000 A 
ATOM      8  C   UNL     1      -5.033  11.741  17.212  0.00  0.00    +0.000 A 
ATOM      9  C   UNL     1      -5.335  12.243  18.477  0.00  0.00    +0.000 A 
ATOM     10  C   UNL     1      -4.360  12.303  19.489  0.00  0.00    +0.000 A 
ATOM     11  C   UNL     1      -3.078  11.831  19.171  0.00  0.00    +0.000 A 
ENDBRANCH   1   4
BRANCH   1  12
ATOM     12  C   UNL     1       1.483  11.925  19.504  0.00  0.00    +0.000 A 
ATOM     13  C   UNL     1       1.746  12.665  20.673  0.00  0.00    +0.000 A 
ATOM     14  C   UNL     1       2.549  13.806  20.642  0.00  0.00    +0.000 A 
ATOM     15  C   UNL     1       3.135  14.219  19.450  0.00  0.00    +0.000 A 
ATOM     16  C   UNL     1       2.944  13.472  18.292  0.00  0.00    +0.000 A 
ATOM     17  C   UNL     1       2.140  12.329  18.321  0.00  0.00    +0.000 A 
ENDBRANCH   1  12
BRANCH   1  18
ATOM     18  N   UNL     1       0.985   9.618  18.655  0.00  0.00    +0.000 NA
ATOM     19  H   UNL     1       1.523   9.988  17.870  0.00  0.00    +0.000 HD
BRANCH  18  20
ATOM     20  C   UNL     1       1.893   8.666  19.355  0.00  0.00    +0.000 C 
ATOM     21  C   UNL     1       1.395   8.137  20.706  0.00  0.00    +0.000 C 
ATOM     22  C   UNL     1       1.265   6.628  20.749  0.00  0.00    +0.000 C 
ATOM     23  C   UNL     1       2.552   5.981  20.272  0.00  0.00    +0.000 C 
ATOM     24  N   UNL     1       2.927   6.440  18.941  0.00  0.00    +0.000 N 
ATOM     25  C   UNL     1       2.275   7.525  18.365  0.00  0.00    +0.000 C 
ATOM     26  O   UNL     1       2.145   7.651  17.145  0.00  0.00    +0.000 OA
BRANCH  24  27
ATOM     27  C   UNL     1       3.777   5.581  18.121  0.00  0.00    +0.000 C 
BRANCH  27  28
ATOM     28  C   UNL     1       5.250   5.920  18.208  0.00  0.00    +0.000 A 
ATOM     29  C   UNL     1       5.819   6.863  17.332  0.00  0.00    +0.000 A 
ATOM     30  C   UNL     1       7.167   7.216  17.434  0.00  0.00    +0.000 A 
ATOM     31  C   UNL     1       7.970   6.641  18.417  0.00  0.00    +0.000 A 
ATOM     32  C   UNL     1       7.420   5.721  19.304  0.00  0.00    +0.000 A 
ATOM     33  C   UNL     1       6.075   5.363  19.207  0.00  0.00    +0.000 A 
ENDBRANCH  27  28
ENDBRANCH  24  27
ENDBRANCH  18  20
ENDBRANCH   1  18
TORSDOF 6
ENDMDL
MODEL 5
REMARK VINA RESULT:      -8.5      1.938      7.794
REMARK  Name = 
REMARK  7 active torsions:
REMARK  status: ('A' for Active; 'I' for Inactive)
REMARK    1  A    between atoms: C_1  and  N_2
REMARK    2  A    between atoms: C_3  and  C_4
REMARK    3  A    between atoms: C_4  and  N_5
REMARK    4  A    between atoms: C_4  and  C_20
REMARK    5  A    between atoms: N_5  and  C_6
REMARK    6  A    between atoms: N_10  and  C_11
REMARK    7  A    between atoms: C_11  and  C_12
REMARK                            x       y       z     vdW  Elec       q    Type
REMARK                         _______ _______ _______ _____ _____    ______ ____
ROOT
ATOM      1  C   UNL     1       3.917   5.288  19.477  0.00  0.00    +0.000 C 
ENDROOT
BRANCH   1   4
ATOM      2  C   UNL     1       7.028   5.657  18.911  0.00  0.00    +0.000 C 
ATOM      3  N   UNL     1       6.028   5.236  17.960  0.00  0.00    +0.000 N 
ATOM      4  C   UNL     1       4.677   5.039  18.168  0.00  0.00    +0.000 A 
ATOM      5  N   UNL     1       4.097   4.639  17.046  0.00  0.00    +0.000 NA
ATOM      6  C   UNL     1       5.073   4.595  16.097  0.00  0.00    +0.000 A 
ATOM      7  C   UNL     1       4.973   4.232  14.747  0.00  0.00    +0.000 A 
ATOM      8  C   UNL     1       6.117   4.290  13.954  0.00  0.00    +0.000 A 
ATOM      9  C   UNL     1       7.339   4.694  14.492  0.00  0.00    +0.000 A 
ATOM     10  C   UNL     1       7.457   5.047  15.848  0.00  0.00    +0.000 A 
ATOM     11  C   UNL     1       6.295   4.980  16.629  0.00  0.00    +0.000 A 
ENDBRANCH   1   4
BRANCH   1  12
ATOM     12  C   UNL     1       2.652   4.438  19.682  0.00  0.00    +0.000 A 
ATOM     13  C   UNL     1       2.284   3.897  20.930  0.00  0.00    +0.000 A 
ATOM     14  C   UNL     1       1.215   3.006  21.046  0.00  0.00    +0.000 A 
ATOM     15  C   UNL     1       0.467   2.659  19.926  0.00  0.00    +0.000 A 
ATOM     16  C   UNL     1       0.768   3.226  18.692  0.00  0.00    +0.000 A 
ATOM     17  C   UNL     1       1.838   4.118  18.573  0.00  0.00    +0.000 A 
ENDBRANCH   1  12
BRANCH   1  18
ATOM     18  N   UNL     1       3.658   6.735  19.700  0.00  0.00    +0.000 NA
ATOM     19  H   UNL     1       4.091   7.260  18.938  0.00  0.00    +0.000 HD
BRANCH  18  20
ATOM     20  C   UNL     1       2.230   7.161  19.725  0.00  0.00    +0.000 C 
ATOM     21  C   UNL     1       1.602   7.313  21.116  0.00  0.00    +0.000 C 
ATOM     22  C   UNL     1       1.077   8.708  21.388  0.00  0.00    +0.000 C 
ATOM     23  C   UNL     1       0.175   9.157  20.253  0.00  0.00    +0.000 C 
ATOM     24  N   UNL     1       0.854   9.091  18.965  0.00  0.00    +0.000 N 
ATOM     25  C   UNL     1       2.079   8.442  18.851  0.00  0.00    +0.000 C 
ATOM     26  O   UNL     1       2.924   8.762  18.012  0.00  0.00    +0.000 OA
BRANCH  24  27
ATOM     27  C   UNL     1       0.379   9.948  17.883  0.00  0.00    +0.000 C 
BRANCH  27  28
ATOM     28  C   UNL     1      -1.067  10.370  18.028  0.00  0.00    +0.000 A 
ATOM     29  C   UNL     1      -1.406  11.516  18.772  0.00  0.00    +0.000 A 
ATOM     30  C   UNL     1      -2.734  11.939  18.874  0.00  0.00    +0.000 A 
ATOM     31  C   UNL     1      -3.747  11.233  18.229  0.00  0.00    +0.000 A 
ATOM     32  C   UNL     1      -3.428  10.109  17.473  0.00  0.00    +0.000 A 
ATOM     33  C   UNL     1      -2.105   9.680  17.368  0.00  0.00    +0.000 A 
ENDBRANCH  27  28
ENDBRANCH  24  27
ENDBRANCH  18  20
ENDBRANCH   1  18
TORSDOF 6
ENDMDL
MODEL 6
REMARK VINA RESULT:      -8.4      3.249      7.055
REMARK  Name = 
REMARK  7 active torsions:
REMARK  status: ('A' for Active; 'I' for Inactive)
REMARK    1  A    between atoms: C_1  and  N_2
REMARK    2  A    between atoms: C_3  and  C_4
REMARK    3  A    between atoms: C_4  and  N_5
REMARK    4  A    between atoms: C_4  and  C_20
REMARK    5  A    between atoms: N_5  and  C_6
REMARK    6  A    between atoms: N_10  and  C_11
REMARK    7  A    between atoms: C_11  and  C_12
REMARK                            x       y       z     vdW  Elec       q    Type
REMARK                         _______ _______ _______ _____ _____    ______ ____
ROOT
ATOM      1  C   UNL     1      -0.628  11.707  20.593  0.00  0.00    +0.000 C 
ENDROOT
BRANCH   1   4
ATOM      2  C   UNL     1      -0.273  14.050  18.466  0.00  0.00    +0.000 C 
ATOM      3  N   UNL     1       0.653  13.695  19.514  0.00  0.00    +0.000 N 
ATOM      4  C   UNL     1       0.529  12.707  20.471  0.00  0.00    +0.000 A 
ATOM      5  N   UNL     1       1.589  12.704  21.264  0.00  0.00    +0.000 NA
ATOM      6  C   UNL     1       2.419  13.684  20.809  0.00  0.00    +0.000 A 
ATOM      7  C   UNL     1       3.667  14.082  21.306  0.00  0.00    +0.000 A 
ATOM      8  C   UNL     1       4.351  15.105  20.651  0.00  0.00    +0.000 A 
ATOM      9  C   UNL     1       3.804  15.724  19.528  0.00  0.00    +0.000 A 
ATOM     10  C   UNL     1       2.546  15.345  19.027  0.00  0.00    +0.000 A 
ATOM     11  C   UNL     1       1.873  14.316  19.701  0.00  0.00    +0.000 A 
ENDBRANCH   1   4
BRANCH   1  12
ATOM     12  C   UNL     1      -1.847  12.196  21.393  0.00  0.00    +0.000 A 
ATOM     13  C   UNL     1      -1.939  12.089  22.794  0.00  0.00    +0.000 A 
ATOM     14  C   UNL     1      -3.121  12.403  23.468  0.00  0.00    +0.000 A 
ATOM     15  C   UNL     1      -4.229  12.862  22.765  0.00  0.00    +0.000 A 
ATOM     16  C   UNL     1      -4.147  13.037  21.387  0.00  0.00    +0.000 A 
ATOM     17  C   UNL     1      -2.964  12.724  20.710  0.00  0.00    +0.000 A 
ENDBRANCH   1  12
BRANCH   1  18
ATOM     18  N   UNL     1      -0.160  10.373  21.052  0.00  0.00    +0.000 NA
ATOM     19  H   UNL     1      -0.910   9.936  21.589  0.00  0.00    +0.000 HD
BRANCH  18  20
ATOM     20  C   UNL     1       0.203   9.392  19.991  0.00  0.00    +0.000 C 
ATOM     21  C   UNL     1       0.414   9.972  18.587  0.00  0.00    +0.000 C 
ATOM     22  C   UNL     1       1.799   9.708  18.031  0.00  0.00    +0.000 C 
ATOM     23  C   UNL     1       2.134   8.232  18.144  0.00  0.00    +0.000 C 
ATOM     24  N   UNL     1       2.017   7.755  19.515  0.00  0.00    +0.000 N 
ATOM     25  C   UNL     1       1.418   8.551  20.486  0.00  0.00    +0.000 C 
ATOM     26  O   UNL     1       1.721   8.485  21.679  0.00  0.00    +0.000 OA
BRANCH  24  27
ATOM     27  C   UNL     1       2.782   6.575  19.910  0.00  0.00    +0.000 C 
BRANCH  27  28
ATOM     28  C   UNL     1       2.674   5.424  18.933  0.00  0.00    +0.000 A 
ATOM     29  C   UNL     1       3.730   5.137  18.048  0.00  0.00    +0.000 A 
ATOM     30  C   UNL     1       3.660   4.049  17.175  0.00  0.00    +0.000 A 
ATOM     31  C   UNL     1       2.540   3.221  17.175  0.00  0.00    +0.000 A 
ATOM     32  C   UNL     1       1.495   3.478  18.057  0.00  0.00    +0.000 A 
ATOM     33  C   UNL     1       1.557   4.563  18.930  0.00  0.00    +0.000 A 
ENDBRANCH  27  28
ENDBRANCH  24  27
ENDBRANCH  18  20
ENDBRANCH   1  18
TORSDOF 6
ENDMDL
MODEL 7
REMARK VINA RESULT:      -8.4      1.669      8.613
REMARK  Name = 
REMARK  7 active torsions:
REMARK  status: ('A' for Active; 'I' for Inactive)
REMARK    1  A    between atoms: C_1  and  N_2
REMARK    2  A    between atoms: C_3  and  C_4
REMARK    3  A    between atoms: C_4  and  N_5
REMARK    4  A    between atoms: C_4  and  C_20
REMARK    5  A    between atoms: N_5  and  C_6
REMARK    6  A    between atoms: N_10  and  C_11
REMARK    7  A    between atoms: C_11  and  C_12
REMARK                            x       y       z     vdW  Elec       q    Type
REMARK                         _______ _______ _______ _____ _____    ______ ____
ROOT
ATOM      1  C   UNL     1       3.088   5.666  19.073  0.00  0.00    +0.000 C 
ENDROOT
BRANCH   1   4
ATOM      2  C   UNL     1       6.257   5.537  19.347  0.00  0.00    +0.000 C 
ATOM      3  N   UNL     1       5.490   5.308  18.147  0.00  0.00    +0.000 N 
ATOM      4  C   UNL     1       4.118   5.328  17.988  0.00  0.00    +0.000 A 
ATOM      5  N   UNL     1       3.801   5.055  16.732  0.00  0.00    +0.000 NA
ATOM      6  C   UNL     1       4.974   4.876  16.063  0.00  0.00    +0.000 A 
ATOM      7  C   UNL     1       5.179   4.567  14.712  0.00  0.00    +0.000 A 
ATOM      8  C   UNL     1       6.487   4.456  14.244  0.00  0.00    +0.000 A 
ATOM      9  C   UNL     1       7.571   4.643  15.101  0.00  0.00    +0.000 A 
ATOM     10  C   UNL     1       7.380   4.939  16.463  0.00  0.00    +0.000 A 
ATOM     11  C   UNL     1       6.057   5.044  16.915  0.00  0.00    +0.000 A 
ENDBRANCH   1   4
BRANCH   1  12
ATOM     12  C   UNL     1       2.496   4.462  19.825  0.00  0.00    +0.000 A 
ATOM     13  C   UNL     1       1.584   3.563  19.238  0.00  0.00    +0.000 A 
ATOM     14  C   UNL     1       0.953   2.574  19.996  0.00  0.00    +0.000 A 
ATOM     15  C   UNL     1       1.241   2.438  21.349  0.00  0.00    +0.000 A 
ATOM     16  C   UNL     1       2.185   3.271  21.941  0.00  0.00    +0.000 A 
ATOM     17  C   UNL     1       2.818   4.262  21.185  0.00  0.00    +0.000 A 
ENDBRANCH   1  12
BRANCH   1  18
ATOM     18  N   UNL     1       2.030   6.580  18.565  0.00  0.00    +0.000 NA
ATOM     19  H   UNL     1       1.134   6.281  18.952  0.00  0.00    +0.000 HD
BRANCH  18  20
ATOM     20  C   UNL     1       2.165   8.020  18.922  0.00  0.00    +0.000 C 
ATOM     21  C   UNL     1       1.797   9.020  17.819  0.00  0.00    +0.000 C 
ATOM     22  C   UNL     1       0.679   9.965  18.214  0.00  0.00    +0.000 C 
ATOM     23  C   UNL     1       0.990  10.610  19.552  0.00  0.00    +0.000 C 
ATOM     24  N   UNL     1       1.231   9.616  20.589  0.00  0.00    +0.000 N 
ATOM     25  C   UNL     1       1.393   8.276  20.252  0.00  0.00    +0.000 C 
ATOM     26  O   UNL     1       1.089   7.357  21.015  0.00  0.00    +0.000 OA
BRANCH  24  27
ATOM     27  C   UNL     1       1.014   9.996  21.982  0.00  0.00    +0.000 C 
BRANCH  27  28
ATOM     28  C   UNL     1      -0.095  11.008  22.173  0.00  0.00    +0.000 A 
ATOM     29  C   UNL     1      -1.185  10.722  23.016  0.00  0.00    +0.000 A 
ATOM     30  C   UNL     1      -2.191  11.667  23.234  0.00  0.00    +0.000 A 
ATOM     31  C   UNL     1      -2.123  12.918  22.624  0.00  0.00    +0.000 A 
ATOM     32  C   UNL     1      -1.042  13.225  21.803  0.00  0.00    +0.000 A 
ATOM     33  C   UNL     1      -0.035  12.285  21.579  0.00  0.00    +0.000 A 
ENDBRANCH  27  28
ENDBRANCH  24  27
ENDBRANCH  18  20
ENDBRANCH   1  18
TORSDOF 6
ENDMDL
MODEL 8
REMARK VINA RESULT:      -8.4      2.359      7.787
REMARK  Name = 
REMARK  7 active torsions:
REMARK  status: ('A' for Active; 'I' for Inactive)
REMARK    1  A    between atoms: C_1  and  N_2
REMARK    2  A    between atoms: C_3  and  C_4
REMARK    3  A    between atoms: C_4  and  N_5
REMARK    4  A    between atoms: C_4  and  C_20
REMARK    5  A    between atoms: N_5  and  C_6
REMARK    6  A    between atoms: N_10  and  C_11
REMARK    7  A    between atoms: C_11  and  C_12
REMARK                            x       y       z     vdW  Elec       q    Type
REMARK                         _______ _______ _______ _____ _____    ______ ____
ROOT
ATOM      1  C   UNL     1       3.430   6.480  17.550  0.00  0.00    +0.000 C 
ENDROOT
BRANCH   1   4
ATOM      2  C   UNL     1       1.025   4.430  17.154  0.00  0.00    +0.000 C 
ATOM      3  N   UNL     1       1.869   4.548  18.318  0.00  0.00    +0.000 N 
ATOM      4  C   UNL     1       2.935   5.402  18.522  0.00  0.00    +0.000 A 
ATOM      5  N   UNL     1       3.463   5.195  19.719  0.00  0.00    +0.000 NA
ATOM      6  C   UNL     1       2.723   4.213  20.307  0.00  0.00    +0.000 A 
ATOM      7  C   UNL     1       2.875   3.634  21.574  0.00  0.00    +0.000 A 
ATOM      8  C   UNL     1       1.970   2.652  21.972  0.00  0.00    +0.000 A 
ATOM      9  C   UNL     1       0.937   2.248  21.127  0.00  0.00    +0.000 A 
ATOM     10  C   UNL     1       0.781   2.810  19.847  0.00  0.00    +0.000 A 
ATOM     11  C   UNL     1       1.703   3.794  19.464  0.00  0.00    +0.000 A 
ENDBRANCH   1   4
BRANCH   1  12
ATOM     12  C   UNL     1       4.835   6.253  16.965  0.00  0.00    +0.000 A 
ATOM     13  C   UNL     1       5.087   5.378  15.891  0.00  0.00    +0.000 A 
ATOM     14  C   UNL     1       6.391   5.083  15.489  0.00  0.00    +0.000 A 
ATOM     15  C   UNL     1       7.473   5.678  16.128  0.00  0.00    +0.000 A 
ATOM     16  C   UNL     1       7.252   6.594  17.152  0.00  0.00    +0.000 A 
ATOM     17  C   UNL     1       5.947   6.891  17.556  0.00  0.00    +0.000 A 
ENDBRANCH   1  12
BRANCH   1  18
ATOM     18  N   UNL     1       3.275   7.846  18.114  0.00  0.00    +0.000 NA
ATOM     19  H   UNL     1       3.419   8.523  17.363  0.00  0.00    +0.000 HD
BRANCH  18  20
ATOM     20  C   UNL     1       1.949   8.177  18.707  0.00  0.00    +0.000 C 
ATOM     21  C   UNL     1       1.765   7.803  20.183  0.00  0.00    +0.000 C 
ATOM     22  C   UNL     1       1.438   8.990  21.067  0.00  0.00    +0.000 C 
ATOM     23  C   UNL     1       0.277   9.772  20.481  0.00  0.00    +0.000 C 
ATOM     24  N   UNL     1       0.545  10.192  19.112  0.00  0.00    +0.000 N 
ATOM     25  C   UNL     1       1.637   9.677  18.421  0.00  0.00    +0.000 C 
ATOM     26  O   UNL     1       2.220  10.306  17.536  0.00  0.00    +0.000 OA
BRANCH  24  27
ATOM     27  C   UNL     1      -0.165  11.356  18.589  0.00  0.00    +0.000 C 
BRANCH  27  28
ATOM     28  C   UNL     1      -1.612  11.081  18.239  0.00  0.00    +0.000 A 
ATOM     29  C   UNL     1      -2.642  11.867  18.789  0.00  0.00    +0.000 A 
ATOM     30  C   UNL     1      -3.976  11.651  18.437  0.00  0.00    +0.000 A 
ATOM     31  C   UNL     1      -4.308  10.653  17.523  0.00  0.00    +0.000 A 
ATOM     32  C   UNL     1      -3.302   9.879  16.954  0.00  0.00    +0.000 A 
ATOM     33  C   UNL     1      -1.967  10.089  17.302  0.00  0.00    +0.000 A 
ENDBRANCH  27  28
ENDBRANCH  24  27
ENDBRANCH  18  20
ENDBRANCH   1  18
TORSDOF 6
ENDMDL
MODEL 9
REMARK VINA RESULT:      -8.4      1.832      8.532
REMARK  Name = 
REMARK  7 active torsions:
REMARK  status: ('A' for Active; 'I' for Inactive)
REMARK    1  A    between atoms: C_1  and  N_2
REMARK    2  A    between atoms: C_3  and  C_4
REMARK    3  A    between atoms: C_4  and  N_5
REMARK    4  A    between atoms: C_4  and  C_20
REMARK    5  A    between atoms: N_5  and  C_6
REMARK    6  A    between atoms: N_10  and  C_11
REMARK    7  A    between atoms: C_11  and  C_12
REMARK                            x       y       z     vdW  Elec       q    Type
REMARK                         _______ _______ _______ _____ _____    ______ ____
ROOT
ATOM      1  C   UNL     1       3.109   5.670  19.290  0.00  0.00    +0.000 C 
ENDROOT
BRANCH   1   4
ATOM      2  C   UNL     1       2.725   3.622  16.882  0.00  0.00    +0.000 C 
ATOM      3  N   UNL     1       3.849   4.503  17.088  0.00  0.00    +0.000 N 
ATOM      4  C   UNL     1       4.045   5.422  18.100  0.00  0.00    +0.000 A 
ATOM      5  N   UNL     1       5.200   6.047  17.931  0.00  0.00    +0.000 NA
ATOM      6  C   UNL     1       5.769   5.517  16.812  0.00  0.00    +0.000 A 
ATOM      7  C   UNL     1       6.993   5.840  16.210  0.00  0.00    +0.000 A 
ATOM      8  C   UNL     1       7.382   5.137  15.072  0.00  0.00    +0.000 A 
ATOM      9  C   UNL     1       6.571   4.137  14.538  0.00  0.00    +0.000 A 
ATOM     10  C   UNL     1       5.333   3.813  15.123  0.00  0.00    +0.000 A 
ATOM     11  C   UNL     1       4.958   4.533  16.266  0.00  0.00    +0.000 A 
ENDBRANCH   1   4
BRANCH   1  12
ATOM     12  C   UNL     1       2.675   4.415  20.066  0.00  0.00    +0.000 A 
ATOM     13  C   UNL     1       1.359   4.215  20.527  0.00  0.00    +0.000 A 
ATOM     14  C   UNL     1       1.039   3.139  21.358  0.00  0.00    +0.000 A 
ATOM     15  C   UNL     1       2.017   2.219  21.722  0.00  0.00    +0.000 A 
ATOM     16  C   UNL     1       3.311   2.357  21.230  0.00  0.00    +0.000 A 
ATOM     17  C   UNL     1       3.633   3.433  20.398  0.00  0.00    +0.000 A 
ENDBRANCH   1  12
BRANCH   1  18
ATOM     18  N   UNL     1       1.950   6.521  18.914  0.00  0.00    +0.000 NA
ATOM     19  H   UNL     1       1.163   6.280  19.519  0.00  0.00    +0.000 HD
BRANCH  18  20
ATOM     20  C   UNL     1       2.130   7.993  19.052  0.00  0.00    +0.000 C 
ATOM     21  C   UNL     1       1.865   8.821  17.788  0.00  0.00    +0.000 C 
ATOM     22  C   UNL     1       0.772   9.856  17.967  0.00  0.00    +0.000 C 
ATOM     23  C   UNL     1       1.042  10.691  19.204  0.00  0.00    +0.000 C 
ATOM     24  N   UNL     1       1.184   9.864  20.395  0.00  0.00    +0.000 N 
ATOM     25  C   UNL     1       1.303   8.483  20.278  0.00  0.00    +0.000 C 
ATOM     26  O   UNL     1       0.919   7.706  21.156  0.00  0.00    +0.000 OA
BRANCH  24  27
ATOM     27  C   UNL     1       0.913  10.464  21.698  0.00  0.00    +0.000 C 
BRANCH  27  28
ATOM     28  C   UNL     1      -0.437  11.143  21.787  0.00  0.00    +0.000 A 
ATOM     29  C   UNL     1      -1.127  11.203  23.013  0.00  0.00    +0.000 A 
ATOM     30  C   UNL     1      -2.351  11.867  23.116  0.00  0.00    +0.000 A 
ATOM     31  C   UNL     1      -2.907  12.492  22.002  0.00  0.00    +0.000 A 
ATOM     32  C   UNL     1      -2.229  12.460  20.786  0.00  0.00    +0.000 A 
ATOM     33  C   UNL     1      -1.007  11.798  20.676  0.00  0.00    +0.000 A 
ENDBRANCH  27  28
ENDBRANCH  24  27
ENDBRANCH  18  20
ENDBRANCH   1  18
TORSDOF 6
ENDMDL
