MODEL 1
REMARK VINA RESULT:      -9.3      0.000      0.000
REMARK  Name = 
REMARK  7 active torsions:
REMARK  status: ('A' for Active; 'I' for Inactive)
REMARK    1  A    between atoms: C_1  and  N_2
REMARK    2  A    between atoms: C_6  and  C_7
REMARK    3  A    between atoms: C_7  and  C_8
REMARK    4  A    between atoms: C_8  and  C_9
REMARK    5  A    between atoms: C_13  and  N_14
REMARK    6  A    between atoms: C_20  and  O_21
REMARK    7  A    between atoms: O_21  and  C_22
REMARK                            x       y       z     vdW  Elec       q    Type
REMARK                         _______ _______ _______ _____ _____    ______ ____
ROOT
ATOM      1  C   UNL     1       4.609   4.870  17.211  0.00  0.00    +0.000 A 
ATOM      2  C   UNL     1       3.796   3.742  16.977  0.00  0.00    +0.000 A 
ATOM      3  C   UNL     1       2.458   3.705  17.362  0.00  0.00    +0.000 A 
ATOM      4  C   UNL     1       1.892   4.798  18.010  0.00  0.00    +0.000 A 
ATOM      5  C   UNL     1       2.659   5.926  18.285  0.00  0.00    +0.000 A 
ATOM      6  C   UNL     1       3.995   5.963  17.857  0.00  0.00    +0.000 A 
ENDROOT
BRANCH   5   7
ATOM      7  N   UNL     1       2.177   7.039  19.002  0.00  0.00    +0.000 N 
ATOM      8  C   UNL     1       2.000   8.309  18.506  0.00  0.00    +0.000 C 
ATOM      9  O   UNL     1       2.282   8.664  17.363  0.00  0.00    +0.000 OA
ATOM     10  N   UNL     1       1.402   9.198  19.371  0.00  0.00    +0.000 N 
ATOM     11  C   UNL     1       1.032   9.051  20.764  0.00  0.00    +0.000 C 
ATOM     12  C   UNL     1      -0.237   9.876  20.862  0.00  0.00    +0.000 C 
ATOM     13  C   UNL     1       0.048  11.078  19.955  0.00  0.00    +0.000 C 
ATOM     14  C   UNL     1       0.959  10.491  18.865  0.00  0.00    +0.000 C 
ATOM     15  H   UNL     1       1.704   6.826  19.863  0.00  0.00    +0.000 HD
BRANCH  13  16
ATOM     16  O   UNL     1       0.751  12.102  20.669  0.00  0.00    +0.000 OA
BRANCH  16  17
ATOM     17  C   UNL     1       0.869  13.296  20.014  0.00  0.00    +0.000 A 
ATOM     18  C   UNL     1       2.152  13.822  19.899  0.00  0.00    +0.000 A 
ATOM     19  C   UNL     1       2.343  15.039  19.254  0.00  0.00    +0.000 A 
ATOM     20  C   UNL     1       1.229  15.704  18.752  0.00  0.00    +0.000 A 
ATOM     21  N   UNL     1      -0.027  15.237  18.857  0.00  0.00    +0.000 NA
ATOM     22  C   UNL     1      -0.178  14.049  19.486  0.00  0.00    +0.000 A 
ENDBRANCH  16  17
ENDBRANCH  13  16
ENDBRANCH   5   7
BRANCH   1  23
ATOM     23  C   UNL     1       6.154   4.890  16.776  0.00  0.00    +0.000 C 
ATOM     24  C   UNL     1       6.881   6.263  16.701  0.00  0.00    +0.000 C 
ATOM     25  O   UNL     1       7.825   5.892  17.729  0.00  0.00    +0.000 OA
ATOM     26  C   UNL     1       7.171   4.626  17.926  0.00  0.00    +0.000 C 
BRANCH  23  27
ATOM     27  C   UNL     1       6.389   3.949  15.580  0.00  0.00    +0.000 C 
BRANCH  27  33
ATOM     28  C   UNL     1       5.775   3.344  12.499  0.00  0.00    +0.000 C 
ATOM     29  N   UNL     1       6.719   4.280  13.050  0.00  0.00    +0.000 N 
ATOM     30  C   UNL     1       7.585   5.028  12.309  0.00  0.00    +0.000 A 
ATOM     31  N   UNL     1       8.298   5.790  13.101  0.00  0.00    +0.000 NA
ATOM     32  N   UNL     1       7.909   5.524  14.390  0.00  0.00    +0.000 NA
ATOM     33  C   UNL     1       6.971   4.596  14.364  0.00  0.00    +0.000 A 
ENDBRANCH  27  33
ENDBRANCH  23  27
ENDBRANCH   1  23
TORSDOF 6
ENDMDL
MODEL 2
REMARK VINA RESULT:      -9.2      1.356      1.726
REMARK  Name = 
REMARK  7 active torsions:
REMARK  status: ('A' for Active; 'I' for Inactive)
REMARK    1  A    between atoms: C_1  and  N_2
REMARK    2  A    between atoms: C_6  and  C_7
REMARK    3  A    between atoms: C_7  and  C_8
REMARK    4  A    between atoms: C_8  and  C_9
REMARK    5  A    between atoms: C_13  and  N_14
REMARK    6  A    between atoms: C_20  and  O_21
REMARK    7  A    between atoms: O_21  and  C_22
REMARK                            x       y       z     vdW  Elec       q    Type
REMARK                         _______ _______ _______ _____ _____    ______ ____
ROOT
ATOM      1  C   UNL     1       4.554   4.754  17.356  0.00  0.00    +0.000 A 
ATOM      2  C   UNL     1       3.774   3.602  17.126  0.00  0.00    +0.000 A 
ATOM      3  C   UNL     1       2.481   3.474  17.627  0.00  0.00    +0.000 A 
ATOM      4  C   UNL     1       1.930   4.495  18.393  0.00  0.00    +0.000 A 
ATOM      5  C   UNL     1       2.668   5.643  18.669  0.00  0.00    +0.000 A 
ATOM      6  C   UNL     1       3.955   5.773  18.125  0.00  0.00    +0.000 A 
ENDROOT
BRANCH   5   7
ATOM      7  N   UNL     1       2.206   6.685  19.498  0.00  0.00    +0.000 N 
ATOM      8  C   UNL     1       1.884   7.960  19.094  0.00  0.00    +0.000 C 
ATOM      9  O   UNL     1       1.997   8.384  17.946  0.00  0.00    +0.000 OA
ATOM     10  N   UNL     1       1.341   8.763  20.072  0.00  0.00    +0.000 N 
ATOM     11  C   UNL     1       1.158   8.528  21.490  0.00  0.00    +0.000 C 
ATOM     12  C   UNL     1      -0.141   9.254  21.784  0.00  0.00    +0.000 C 
ATOM     13  C   UNL     1      -0.053  10.511  20.914  0.00  0.00    +0.000 C 
ATOM     14  C   UNL     1       0.753  10.042  19.693  0.00  0.00    +0.000 C 
ATOM     15  H   UNL     1       1.859   6.400  20.397  0.00  0.00    +0.000 HD
BRANCH  13  16
ATOM     16  O   UNL     1       0.664  11.552  21.591  0.00  0.00    +0.000 OA
BRANCH  16  17
ATOM     17  C   UNL     1      -0.041  12.702  21.809  0.00  0.00    +0.000 A 
ATOM     18  C   UNL     1      -0.932  12.696  22.877  0.00  0.00    +0.000 A 
ATOM     19  C   UNL     1      -1.690  13.829  23.150  0.00  0.00    +0.000 A 
ATOM     20  C   UNL     1      -1.541  14.940  22.325  0.00  0.00    +0.000 A 
ATOM     21  N   UNL     1      -0.702  14.979  21.275  0.00  0.00    +0.000 NA
ATOM     22  C   UNL     1       0.024  13.862  21.040  0.00  0.00    +0.000 A 
ENDBRANCH  16  17
ENDBRANCH  13  16
ENDBRANCH   5   7
BRANCH   1  23
ATOM     23  C   UNL     1       6.049   4.878  16.783  0.00  0.00    +0.000 C 
ATOM     24  C   UNL     1       6.653   6.300  16.605  0.00  0.00    +0.000 C 
ATOM     25  O   UNL     1       7.709   6.040  17.554  0.00  0.00    +0.000 OA
ATOM     26  C   UNL     1       7.180   4.734  17.845  0.00  0.00    +0.000 C 
BRANCH  23  27
ATOM     27  C   UNL     1       6.254   3.917  15.598  0.00  0.00    +0.000 C 
BRANCH  27  33
ATOM     28  C   UNL     1       5.655   3.347  12.508  0.00  0.00    +0.000 C 
ATOM     29  N   UNL     1       6.649   4.219  13.074  0.00  0.00    +0.000 N 
ATOM     30  C   UNL     1       7.578   4.905  12.348  0.00  0.00    +0.000 A 
ATOM     31  N   UNL     1       8.325   5.619  13.151  0.00  0.00    +0.000 NA
ATOM     32  N   UNL     1       7.897   5.383  14.434  0.00  0.00    +0.000 NA
ATOM     33  C   UNL     1       6.899   4.520  14.393  0.00  0.00    +0.000 A 
ENDBRANCH  27  33
ENDBRANCH  23  27
ENDBRANCH   1  23
TORSDOF 6
ENDMDL
MODEL 3
REMARK VINA RESULT:      -8.8      1.823      2.329
REMARK  Name = 
REMARK  7 active torsions:
REMARK  status: ('A' for Active; 'I' for Inactive)
REMARK    1  A    between atoms: C_1  and  N_2
REMARK    2  A    between atoms: C_6  and  C_7
REMARK    3  A    between atoms: C_7  and  C_8
REMARK    4  A    between atoms: C_8  and  C_9
REMARK    5  A    between atoms: C_13  and  N_14
REMARK    6  A    between atoms: C_20  and  O_21
REMARK    7  A    between atoms: O_21  and  C_22
REMARK                            x       y       z     vdW  Elec       q    Type
REMARK                         _______ _______ _______ _____ _____    ______ ____
ROOT
ATOM      1  C   UNL     1       4.717   5.143  17.347  0.00  0.00    +0.000 A 
ATOM      2  C   UNL     1       3.994   3.933  17.379  0.00  0.00    +0.000 A 
ATOM      3  C   UNL     1       2.629   3.895  17.654  0.00  0.00    +0.000 A 
ATOM      4  C   UNL     1       1.943   5.075  17.921  0.00  0.00    +0.000 A 
ATOM      5  C   UNL     1       2.616   6.293  17.924  0.00  0.00    +0.000 A 
ATOM      6  C   UNL     1       3.983   6.319  17.609  0.00  0.00    +0.000 A 
ENDROOT
BRANCH   5   7
ATOM      7  N   UNL     1       2.005   7.519  18.259  0.00  0.00    +0.000 N 
ATOM      8  C   UNL     1       1.671   7.939  19.525  0.00  0.00    +0.000 C 
ATOM      9  O   UNL     1       1.823   7.277  20.550  0.00  0.00    +0.000 OA
ATOM     10  N   UNL     1       1.193   9.228  19.607  0.00  0.00    +0.000 N 
ATOM     11  C   UNL     1       0.872  10.181  18.564  0.00  0.00    +0.000 C 
ATOM     12  C   UNL     1       1.255  11.507  19.192  0.00  0.00    +0.000 C 
ATOM     13  C   UNL     1       0.833  11.344  20.656  0.00  0.00    +0.000 C 
ATOM     14  C   UNL     1       1.035   9.844  20.919  0.00  0.00    +0.000 C 
ATOM     15  H   UNL     1       2.043   8.229  17.549  0.00  0.00    +0.000 HD
BRANCH  13  16
ATOM     16  O   UNL     1      -0.550  11.680  20.829  0.00  0.00    +0.000 OA
BRANCH  16  17
ATOM     17  C   UNL     1      -0.811  12.601  21.806  0.00  0.00    +0.000 A 
ATOM     18  C   UNL     1      -1.964  12.404  22.558  0.00  0.00    +0.000 A 
ATOM     19  C   UNL     1      -2.296  13.308  23.561  0.00  0.00    +0.000 A 
ATOM     20  C   UNL     1      -1.460  14.400  23.770  0.00  0.00    +0.000 A 
ATOM     21  N   UNL     1      -0.346  14.633  23.055  0.00  0.00    +0.000 NA
ATOM     22  C   UNL     1      -0.049  13.733  22.090  0.00  0.00    +0.000 A 
ENDBRANCH  16  17
ENDBRANCH  13  16
ENDBRANCH   5   7
BRANCH   1  23
ATOM     23  C   UNL     1       6.293   5.166  17.045  0.00  0.00    +0.000 C 
ATOM     24  C   UNL     1       7.000   6.546  16.924  0.00  0.00    +0.000 C 
ATOM     25  O   UNL     1       7.856   6.279  18.054  0.00  0.00    +0.000 OA
ATOM     26  C   UNL     1       7.211   5.017  18.296  0.00  0.00    +0.000 C 
BRANCH  23  27
ATOM     27  C   UNL     1       6.648   4.141  15.952  0.00  0.00    +0.000 C 
BRANCH  27  33
ATOM     28  C   UNL     1       5.599   3.532  12.991  0.00  0.00    +0.000 C 
ATOM     29  N   UNL     1       6.668   4.407  13.393  0.00  0.00    +0.000 N 
ATOM     30  C   UNL     1       7.481   5.080  12.529  0.00  0.00    +0.000 A 
ATOM     31  N   UNL     1       8.341   5.801  13.203  0.00  0.00    +0.000 NA
ATOM     32  N   UNL     1       8.105   5.585  14.538  0.00  0.00    +0.000 NA
ATOM     33  C   UNL     1       7.110   4.725  14.656  0.00  0.00    +0.000 A 
ENDBRANCH  27  33
ENDBRANCH  23  27
ENDBRANCH   1  23
TORSDOF 6
ENDMDL
MODEL 4
REMARK VINA RESULT:      -8.8      1.643      1.985
REMARK  Name = 
REMARK  7 active torsions:
REMARK  status: ('A' for Active; 'I' for Inactive)
REMARK    1  A    between atoms: C_1  and  N_2
REMARK    2  A    between atoms: C_6  and  C_7
REMARK    3  A    between atoms: C_7  and  C_8
REMARK    4  A    between atoms: C_8  and  C_9
REMARK    5  A    between atoms: C_13  and  N_14
REMARK    6  A    between atoms: C_20  and  O_21
REMARK    7  A    between atoms: O_21  and  C_22
REMARK                            x       y       z     vdW  Elec       q    Type
REMARK                         _______ _______ _______ _____ _____    ______ ____
ROOT
ATOM      1  C   UNL     1       4.959   5.377  17.560  0.00  0.00    +0.000 A 
ATOM      2  C   UNL     1       4.236   4.215  17.219  0.00  0.00    +0.000 A 
ATOM      3  C   UNL     1       2.862   4.114  17.425  0.00  0.00    +0.000 A 
ATOM      4  C   UNL     1       2.167   5.173  17.997  0.00  0.00    +0.000 A 
ATOM      5  C   UNL     1       2.839   6.332  18.374  0.00  0.00    +0.000 A 
ATOM      6  C   UNL     1       4.216   6.434  18.125  0.00  0.00    +0.000 A 
ENDROOT
BRANCH   5   7
ATOM      7  N   UNL     1       2.216   7.416  19.026  0.00  0.00    +0.000 N 
ATOM      8  C   UNL     1       1.882   8.622  18.456  0.00  0.00    +0.000 C 
ATOM      9  O   UNL     1       2.122   8.942  17.294  0.00  0.00    +0.000 OA
ATOM     10  N   UNL     1       1.172   9.477  19.270  0.00  0.00    +0.000 N 
ATOM     11  C   UNL     1       0.816   9.366  20.670  0.00  0.00    +0.000 C 
ATOM     12  C   UNL     1      -0.547  10.029  20.722  0.00  0.00    +0.000 C 
ATOM     13  C   UNL     1      -0.412  11.201  19.745  0.00  0.00    +0.000 C 
ATOM     14  C   UNL     1       0.571  10.672  18.689  0.00  0.00    +0.000 C 
ATOM     15  H   UNL     1       1.769   7.196  19.899  0.00  0.00    +0.000 HD
BRANCH  13  16
ATOM     16  O   UNL     1       0.152  12.346  20.396  0.00  0.00    +0.000 OA
BRANCH  16  17
ATOM     17  C   UNL     1      -0.715  13.066  21.171  0.00  0.00    +0.000 A 
ATOM     18  C   UNL     1      -1.873  13.524  20.552  0.00  0.00    +0.000 A 
ATOM     19  C   UNL     1      -2.794  14.271  21.278  0.00  0.00    +0.000 A 
ATOM     20  C   UNL     1      -2.515  14.551  22.611  0.00  0.00    +0.000 A 
ATOM     21  N   UNL     1      -1.400  14.140  23.240  0.00  0.00    +0.000 NA
ATOM     22  C   UNL     1      -0.527  13.412  22.507  0.00  0.00    +0.000 A 
ENDBRANCH  16  17
ENDBRANCH  13  16
ENDBRANCH   5   7
BRANCH   1  23
ATOM     23  C   UNL     1       6.545   5.471  17.330  0.00  0.00    +0.000 C 
ATOM     24  C   UNL     1       7.177   6.877  17.122  0.00  0.00    +0.000 C 
ATOM     25  O   UNL     1       7.988   6.759  18.310  0.00  0.00    +0.000 OA
ATOM     26  C   UNL     1       7.404   5.484  18.630  0.00  0.00    +0.000 C 
BRANCH  23  27
ATOM     27  C   UNL     1       7.013   4.381  16.349  0.00  0.00    +0.000 C 
BRANCH  27  33
ATOM     28  C   UNL     1       5.393   3.636  13.692  0.00  0.00    +0.000 C 
ATOM     29  N   UNL     1       6.560   4.468  13.818  0.00  0.00    +0.000 N 
ATOM     30  C   UNL     1       7.226   5.027  12.767  0.00  0.00    +0.000 A 
ATOM     31  N   UNL     1       8.232   5.738  13.210  0.00  0.00    +0.000 NA
ATOM     32  N   UNL     1       8.244   5.629  14.578  0.00  0.00    +0.000 NA
ATOM     33  C   UNL     1       7.249   4.844  14.947  0.00  0.00    +0.000 A 
ENDBRANCH  27  33
ENDBRANCH  23  27
ENDBRANCH   1  23
TORSDOF 6
ENDMDL
MODEL 5
REMARK VINA RESULT:      -8.7      1.737      2.765
REMARK  Name = 
REMARK  7 active torsions:
REMARK  status: ('A' for Active; 'I' for Inactive)
REMARK    1  A    between atoms: C_1  and  N_2
REMARK    2  A    between atoms: C_6  and  C_7
REMARK    3  A    between atoms: C_7  and  C_8
REMARK    4  A    between atoms: C_8  and  C_9
REMARK    5  A    between atoms: C_13  and  N_14
REMARK    6  A    between atoms: C_20  and  O_21
REMARK    7  A    between atoms: O_21  and  C_22
REMARK                            x       y       z     vdW  Elec       q    Type
REMARK                         _______ _______ _______ _____ _____    ______ ____
ROOT
ATOM      1  C   UNL     1       4.205   4.398  17.123  0.00  0.00    +0.000 A 
ATOM      2  C   UNL     1       3.435   3.218  17.160  0.00  0.00    +0.000 A 
ATOM      3  C   UNL     1       2.260   3.126  17.903  0.00  0.00    +0.000 A 
ATOM      4  C   UNL     1       1.825   4.215  18.649  0.00  0.00    +0.000 A 
ATOM      5  C   UNL     1       2.562   5.395  18.665  0.00  0.00    +0.000 A 
ATOM      6  C   UNL     1       3.722   5.485  17.881  0.00  0.00    +0.000 A 
ENDROOT
BRANCH   5   7
ATOM      7  N   UNL     1       2.224   6.513  19.454  0.00  0.00    +0.000 N 
ATOM      8  C   UNL     1       1.925   7.773  18.990  0.00  0.00    +0.000 C 
ATOM      9  O   UNL     1       1.952   8.113  17.809  0.00  0.00    +0.000 OA
ATOM     10  N   UNL     1       1.510   8.667  19.952  0.00  0.00    +0.000 N 
ATOM     11  C   UNL     1       1.445   8.537  21.393  0.00  0.00    +0.000 C 
ATOM     12  C   UNL     1       0.212   9.348  21.747  0.00  0.00    +0.000 C 
ATOM     13  C   UNL     1       0.279  10.538  20.785  0.00  0.00    +0.000 C 
ATOM     14  C   UNL     1       0.948   9.947  19.534  0.00  0.00    +0.000 C 
ATOM     15  H   UNL     1       1.947   6.308  20.398  0.00  0.00    +0.000 HD
BRANCH  13  16
ATOM     16  O   UNL     1       1.100  11.583  21.321  0.00  0.00    +0.000 OA
BRANCH  16  17
ATOM     17  C   UNL     1       1.091  12.754  20.615  0.00  0.00    +0.000 A 
ATOM     18  C   UNL     1       2.328  13.328  20.341  0.00  0.00    +0.000 A 
ATOM     19  C   UNL     1       2.391  14.526  19.637  0.00  0.00    +0.000 A 
ATOM     20  C   UNL     1       1.200  15.123  19.239  0.00  0.00    +0.000 A 
ATOM     21  N   UNL     1      -0.014  14.608  19.498  0.00  0.00    +0.000 NA
ATOM     22  C   UNL     1      -0.041  13.441  20.181  0.00  0.00    +0.000 A 
ENDBRANCH  16  17
ENDBRANCH  13  16
ENDBRANCH   5   7
BRANCH   1  23
ATOM     23  C   UNL     1       5.564   4.482  16.274  0.00  0.00    +0.000 C 
ATOM     24  C   UNL     1       5.707   3.575  15.019  0.00  0.00    +0.000 C 
ATOM     25  O   UNL     1       5.821   4.709  14.133  0.00  0.00    +0.000 OA
ATOM     26  C   UNL     1       5.619   5.629  15.220  0.00  0.00    +0.000 C 
BRANCH  23  27
ATOM     27  C   UNL     1       6.785   4.513  17.213  0.00  0.00    +0.000 C 
BRANCH  27  33
ATOM     28  C   UNL     1       7.979   5.724  19.922  0.00  0.00    +0.000 C 
ATOM     29  N   UNL     1       7.832   6.374  18.647  0.00  0.00    +0.000 N 
ATOM     30  C   UNL     1       8.122   7.686  18.411  0.00  0.00    +0.000 A 
ATOM     31  N   UNL     1       7.898   7.967  17.152  0.00  0.00    +0.000 NA
ATOM     32  N   UNL     1       7.431   6.826  16.550  0.00  0.00    +0.000 NA
ATOM     33  C   UNL     1       7.368   5.867  17.455  0.00  0.00    +0.000 A 
ENDBRANCH  27  33
ENDBRANCH  23  27
ENDBRANCH   1  23
TORSDOF 6
ENDMDL
MODEL 6
REMARK VINA RESULT:      -8.7      1.371      1.525
REMARK  Name = 
REMARK  7 active torsions:
REMARK  status: ('A' for Active; 'I' for Inactive)
REMARK    1  A    between atoms: C_1  and  N_2
REMARK    2  A    between atoms: C_6  and  C_7
REMARK    3  A    between atoms: C_7  and  C_8
REMARK    4  A    between atoms: C_8  and  C_9
REMARK    5  A    between atoms: C_13  and  N_14
REMARK    6  A    between atoms: C_20  and  O_21
REMARK    7  A    between atoms: O_21  and  C_22
REMARK                            x       y       z     vdW  Elec       q    Type
REMARK                         _______ _______ _______ _____ _____    ______ ____
ROOT
ATOM      1  C   UNL     1       4.681   5.241  17.754  0.00  0.00    +0.000 A 
ATOM      2  C   UNL     1       3.902   4.121  17.395  0.00  0.00    +0.000 A 
ATOM      3  C   UNL     1       2.581   3.977  17.814  0.00  0.00    +0.000 A 
ATOM      4  C   UNL     1       2.000   4.948  18.622  0.00  0.00    +0.000 A 
ATOM      5  C   UNL     1       2.734   6.060  19.023  0.00  0.00    +0.000 A 
ATOM      6  C   UNL     1       4.051   6.210  18.562  0.00  0.00    +0.000 A 
ENDROOT
BRANCH   5   7
ATOM      7  N   UNL     1       2.238   7.045  19.901  0.00  0.00    +0.000 N 
ATOM      8  C   UNL     1       1.702   8.258  19.538  0.00  0.00    +0.000 C 
ATOM      9  O   UNL     1       1.619   8.674  18.384  0.00  0.00    +0.000 OA
ATOM     10  N   UNL     1       1.176   8.999  20.573  0.00  0.00    +0.000 N 
ATOM     11  C   UNL     1       1.196   8.765  22.003  0.00  0.00    +0.000 C 
ATOM     12  C   UNL     1      -0.144   9.317  22.451  0.00  0.00    +0.000 C 
ATOM     13  C   UNL     1      -0.329  10.560  21.575  0.00  0.00    +0.000 C 
ATOM     14  C   UNL     1       0.381  10.181  20.266  0.00  0.00    +0.000 C 
ATOM     15  H   UNL     1       2.042   6.732  20.835  0.00  0.00    +0.000 HD
BRANCH  13  16
ATOM     16  O   UNL     1       0.317  11.698  22.160  0.00  0.00    +0.000 OA
BRANCH  16  17
ATOM     17  C   UNL     1      -0.216  12.911  21.822  0.00  0.00    +0.000 A 
ATOM     18  C   UNL     1       0.685  13.922  21.506  0.00  0.00    +0.000 A 
ATOM     19  C   UNL     1       0.213  15.184  21.163  0.00  0.00    +0.000 A 
ATOM     20  C   UNL     1      -1.161  15.399  21.162  0.00  0.00    +0.000 A 
ATOM     21  N   UNL     1      -2.063  14.452  21.477  0.00  0.00    +0.000 NA
ATOM     22  C   UNL     1      -1.571  13.235  21.801  0.00  0.00    +0.000 A 
ENDBRANCH  16  17
ENDBRANCH  13  16
ENDBRANCH   5   7
BRANCH   1  23
ATOM     23  C   UNL     1       6.206   5.384  17.276  0.00  0.00    +0.000 C 
ATOM     24  C   UNL     1       6.745   6.804  16.945  0.00  0.00    +0.000 C 
ATOM     25  O   UNL     1       7.736   6.743  17.993  0.00  0.00    +0.000 OA
ATOM     26  C   UNL     1       7.257   5.457  18.424  0.00  0.00    +0.000 C 
BRANCH  23  27
ATOM     27  C   UNL     1       6.556   4.287  16.253  0.00  0.00    +0.000 C 
BRANCH  27  33
ATOM     28  C   UNL     1       5.343   3.635  13.365  0.00  0.00    +0.000 C 
ATOM     29  N   UNL     1       6.487   4.446  13.686  0.00  0.00    +0.000 N 
ATOM     30  C   UNL     1       7.309   5.021  12.762  0.00  0.00    +0.000 A 
ATOM     31  N   UNL     1       8.245   5.706  13.370  0.00  0.00    +0.000 NA
ATOM     32  N   UNL     1       8.051   5.561  14.721  0.00  0.00    +0.000 NA
ATOM     33  C   UNL     1       7.003   4.783  14.916  0.00  0.00    +0.000 A 
ENDBRANCH  27  33
ENDBRANCH  23  27
ENDBRANCH   1  23
TORSDOF 6
ENDMDL
MODEL 7
REMARK VINA RESULT:      -8.6      2.149      2.626
REMARK  Name = 
REMARK  7 active torsions:
REMARK  status: ('A' for Active; 'I' for Inactive)
REMARK    1  A    between atoms: C_1  and  N_2
REMARK    2  A    between atoms: C_6  and  C_7
REMARK    3  A    between atoms: C_7  and  C_8
REMARK    4  A    between atoms: C_8  and  C_9
REMARK    5  A    between atoms: C_13  and  N_14
REMARK    6  A    between atoms: C_20  and  O_21
REMARK    7  A    between atoms: O_21  and  C_22
REMARK                            x       y       z     vdW  Elec       q    Type
REMARK                         _______ _______ _______ _____ _____    ______ ____
ROOT
ATOM      1  C   UNL     1       5.311   5.558  18.107  0.00  0.00    +0.000 A 
ATOM      2  C   UNL     1       4.747   4.274  18.250  0.00  0.00    +0.000 A 
ATOM      3  C   UNL     1       3.385   4.087  18.477  0.00  0.00    +0.000 A 
ATOM      4  C   UNL     1       2.543   5.188  18.583  0.00  0.00    +0.000 A 
ATOM      5  C   UNL     1       3.055   6.477  18.473  0.00  0.00    +0.000 A 
ATOM      6  C   UNL     1       4.421   6.648  18.207  0.00  0.00    +0.000 A 
ENDROOT
BRANCH   5   7
ATOM      7  N   UNL     1       2.277   7.641  18.644  0.00  0.00    +0.000 N 
ATOM      8  C   UNL     1       1.658   8.039  19.806  0.00  0.00    +0.000 C 
ATOM      9  O   UNL     1       1.663   7.405  20.859  0.00  0.00    +0.000 OA
ATOM     10  N   UNL     1       1.055   9.275  19.753  0.00  0.00    +0.000 N 
ATOM     11  C   UNL     1       0.861  10.182  18.640  0.00  0.00    +0.000 C 
ATOM     12  C   UNL     1       0.985  11.546  19.293  0.00  0.00    +0.000 C 
ATOM     13  C   UNL     1       0.295  11.357  20.648  0.00  0.00    +0.000 C 
ATOM     14  C   UNL     1       0.580   9.886  20.990  0.00  0.00    +0.000 C 
ATOM     15  H   UNL     1       2.389   8.344  17.935  0.00  0.00    +0.000 HD
BRANCH  13  16
ATOM     16  O   UNL     1      -1.119  11.558  20.533  0.00  0.00    +0.000 OA
BRANCH  16  17
ATOM     17  C   UNL     1      -1.671  12.384  21.473  0.00  0.00    +0.000 A 
ATOM     18  C   UNL     1      -0.809  12.899  22.435  0.00  0.00    +0.000 A 
ATOM     19  C   UNL     1      -1.305  13.738  23.427  0.00  0.00    +0.000 A 
ATOM     20  C   UNL     1      -2.666  14.026  23.431  0.00  0.00    +0.000 A 
ATOM     21  N   UNL     1      -3.533  13.535  22.528  0.00  0.00    +0.000 NA
ATOM     22  C   UNL     1      -3.018  12.726  21.574  0.00  0.00    +0.000 A 
ENDBRANCH  16  17
ENDBRANCH  13  16
ENDBRANCH   5   7
BRANCH   1  23
ATOM     23  C   UNL     1       6.885   5.756  17.863  0.00  0.00    +0.000 C 
ATOM     24  C   UNL     1       7.401   7.178  17.500  0.00  0.00    +0.000 C 
ATOM     25  O   UNL     1       8.214   7.256  18.691  0.00  0.00    +0.000 OA
ATOM     26  C   UNL     1       7.734   5.980  19.150  0.00  0.00    +0.000 C 
BRANCH  23  27
ATOM     27  C   UNL     1       7.445   4.608  17.003  0.00  0.00    +0.000 C 
BRANCH  27  33
ATOM     28  C   UNL     1       5.282   2.996  15.285  0.00  0.00    +0.000 C 
ATOM     29  N   UNL     1       6.242   3.962  14.823  0.00  0.00    +0.000 N 
ATOM     30  C   UNL     1       6.435   4.293  13.514  0.00  0.00    +0.000 A 
ATOM     31  N   UNL     1       7.366   5.210  13.424  0.00  0.00    +0.000 NA
ATOM     32  N   UNL     1       7.811   5.473  14.695  0.00  0.00    +0.000 NA
ATOM     33  C   UNL     1       7.150   4.704  15.541  0.00  0.00    +0.000 A 
ENDBRANCH  27  33
ENDBRANCH  23  27
ENDBRANCH   1  23
TORSDOF 6
ENDMDL
MODEL 8
REMARK VINA RESULT:      -8.6      2.194      2.537
REMARK  Name = 
REMARK  7 active torsions:
REMARK  status: ('A' for Active; 'I' for Inactive)
REMARK    1  A    between atoms: C_1  and  N_2
REMARK    2  A    between atoms: C_6  and  C_7
REMARK    3  A    between atoms: C_7  and  C_8
REMARK    4  A    between atoms: C_8  and  C_9
REMARK    5  A    between atoms: C_13  and  N_14
REMARK    6  A    between atoms: C_20  and  O_21
REMARK    7  A    between atoms: O_21  and  C_22
REMARK                            x       y       z     vdW  Elec       q    Type
REMARK                         _______ _______ _______ _____ _____    ______ ____
ROOT
ATOM      1  C   UNL     1       5.503   5.215  18.714  0.00  0.00    +0.000 A 
ATOM      2  C   UNL     1       5.071   3.879  18.844  0.00  0.00    +0.000 A 
ATOM      3  C   UNL     1       3.818   3.555  19.359  0.00  0.00    +0.000 A 
ATOM      4  C   UNL     1       2.958   4.565  19.776  0.00  0.00    +0.000 A 
ATOM      5  C   UNL     1       3.346   5.899  19.691  0.00  0.00    +0.000 A 
ATOM      6  C   UNL     1       4.596   6.211  19.135  0.00  0.00    +0.000 A 
ENDROOT
BRANCH   5   7
ATOM      7  N   UNL     1       2.561   6.970  20.162  0.00  0.00    +0.000 N 
ATOM      8  C   UNL     1       2.049   7.996  19.402  0.00  0.00    +0.000 C 
ATOM      9  O   UNL     1       2.245   8.145  18.198  0.00  0.00    +0.000 OA
ATOM     10  N   UNL     1       1.212   8.859  20.073  0.00  0.00    +0.000 N 
ATOM     11  C   UNL     1       0.869   8.937  21.479  0.00  0.00    +0.000 C 
ATOM     12  C   UNL     1      -0.581   9.383  21.445  0.00  0.00    +0.000 C 
ATOM     13  C   UNL     1      -0.621  10.378  20.281  0.00  0.00    +0.000 C 
ATOM     14  C   UNL     1       0.439   9.832  19.311  0.00  0.00    +0.000 C 
ATOM     15  H   UNL     1       2.147   6.837  21.068  0.00  0.00    +0.000 HD
BRANCH  13  16
ATOM     16  O   UNL     1      -0.243  11.690  20.716  0.00  0.00    +0.000 OA
BRANCH  16  17
ATOM     17  C   UNL     1      -1.191  12.364  21.434  0.00  0.00    +0.000 A 
ATOM     18  C   UNL     1      -0.771  12.963  22.617  0.00  0.00    +0.000 A 
ATOM     19  C   UNL     1      -1.686  13.656  23.402  0.00  0.00    +0.000 A 
ATOM     20  C   UNL     1      -3.010  13.715  22.979  0.00  0.00    +0.000 A 
ATOM     21  N   UNL     1      -3.458  13.136  21.851  0.00  0.00    +0.000 NA
ATOM     22  C   UNL     1      -2.542  12.474  21.108  0.00  0.00    +0.000 A 
ENDBRANCH  16  17
ENDBRANCH  13  16
ENDBRANCH   5   7
BRANCH   1  23
ATOM     23  C   UNL     1       6.957   5.570  18.134  0.00  0.00    +0.000 C 
ATOM     24  C   UNL     1       7.221   7.023  17.648  0.00  0.00    +0.000 C 
ATOM     25  O   UNL     1       8.254   7.234  18.635  0.00  0.00    +0.000 OA
ATOM     26  C   UNL     1       8.028   5.933  19.206  0.00  0.00    +0.000 C 
BRANCH  23  27
ATOM     27  C   UNL     1       7.447   4.455  17.191  0.00  0.00    +0.000 C 
BRANCH  27  33
ATOM     28  C   UNL     1       4.964   3.167  15.641  0.00  0.00    +0.000 C 
ATOM     29  N   UNL     1       6.003   4.008  15.110  0.00  0.00    +0.000 N 
ATOM     30  C   UNL     1       6.134   4.334  13.792  0.00  0.00    +0.000 A 
ATOM     31  N   UNL     1       7.167   5.124  13.634  0.00  0.00    +0.000 NA
ATOM     32  N   UNL     1       7.741   5.305  14.868  0.00  0.00    +0.000 NA
ATOM     33  C   UNL     1       7.054   4.614  15.758  0.00  0.00    +0.000 A 
ENDBRANCH  27  33
ENDBRANCH  23  27
ENDBRANCH   1  23
TORSDOF 6
ENDMDL
MODEL 9
REMARK VINA RESULT:      -8.5      2.025      2.964
REMARK  Name = 
REMARK  7 active torsions:
REMARK  status: ('A' for Active; 'I' for Inactive)
REMARK    1  A    between atoms: C_1  and  N_2
REMARK    2  A    between atoms: C_6  and  C_7
REMARK    3  A    between atoms: C_7  and  C_8
REMARK    4  A    between atoms: C_8  and  C_9
REMARK    5  A    between atoms: C_13  and  N_14
REMARK    6  A    between atoms: C_20  and  O_21
REMARK    7  A    between atoms: O_21  and  C_22
REMARK                            x       y       z     vdW  Elec       q    Type
REMARK                         _______ _______ _______ _____ _____    ______ ____
ROOT
ATOM      1  C   UNL     1       4.124   4.642  16.897  0.00  0.00    +0.000 A 
ATOM      2  C   UNL     1       3.420   3.422  16.952  0.00  0.00    +0.000 A 
ATOM      3  C   UNL     1       2.289   3.258  17.749  0.00  0.00    +0.000 A 
ATOM      4  C   UNL     1       1.834   4.314  18.532  0.00  0.00    +0.000 A 
ATOM      5  C   UNL     1       2.508   5.531  18.530  0.00  0.00    +0.000 A 
ATOM      6  C   UNL     1       3.623   5.692  17.694  0.00  0.00    +0.000 A 
ENDROOT
BRANCH   5   7
ATOM      7  N   UNL     1       2.152   6.619  19.352  0.00  0.00    +0.000 N 
ATOM      8  C   UNL     1       1.903   7.905  18.932  0.00  0.00    +0.000 C 
ATOM      9  O   UNL     1       2.000   8.297  17.771  0.00  0.00    +0.000 OA
ATOM     10  N   UNL     1       1.455   8.764  19.911  0.00  0.00    +0.000 N 
ATOM     11  C   UNL     1       1.311   8.570  21.340  0.00  0.00    +0.000 C 
ATOM     12  C   UNL     1       0.078   9.391  21.666  0.00  0.00    +0.000 C 
ATOM     13  C   UNL     1       0.219  10.622  20.765  0.00  0.00    +0.000 C 
ATOM     14  C   UNL     1       0.942  10.073  19.525  0.00  0.00    +0.000 C 
ATOM     15  H   UNL     1       1.821   6.378  20.270  0.00  0.00    +0.000 HD
BRANCH  13  16
ATOM     16  O   UNL     1       1.032  11.623  21.390  0.00  0.00    +0.000 OA
BRANCH  16  17
ATOM     17  C   UNL     1       0.995  12.857  20.803  0.00  0.00    +0.000 A 
ATOM     18  C   UNL     1       2.217  13.492  20.606  0.00  0.00    +0.000 A 
ATOM     19  C   UNL     1       2.253  14.754  20.024  0.00  0.00    +0.000 A 
ATOM     20  C   UNL     1       1.049  15.353  19.668  0.00  0.00    +0.000 A 
ATOM     21  N   UNL     1      -0.152  14.779  19.857  0.00  0.00    +0.000 NA
ATOM     22  C   UNL     1      -0.152  13.550  20.421  0.00  0.00    +0.000 A 
ENDBRANCH  16  17
ENDBRANCH  13  16
ENDBRANCH   5   7
BRANCH   1  23
ATOM     23  C   UNL     1       5.435   4.808  15.985  0.00  0.00    +0.000 C 
ATOM     24  C   UNL     1       6.301   3.548  15.703  0.00  0.00    +0.000 C 
ATOM     25  O   UNL     1       6.067   3.626  14.281  0.00  0.00    +0.000 OA
ATOM     26  C   UNL     1       5.186   4.751  14.448  0.00  0.00    +0.000 C 
BRANCH  23  27
ATOM     27  C   UNL     1       6.215   6.073  16.389  0.00  0.00    +0.000 C 
BRANCH  27  33
ATOM     28  C   UNL     1       8.004   8.291  17.843  0.00  0.00    +0.000 C 
ATOM     29  N   UNL     1       7.752   6.938  18.263  0.00  0.00    +0.000 N 
ATOM     30  C   UNL     1       8.324   6.349  19.351  0.00  0.00    +0.000 A 
ATOM     31  N   UNL     1       7.879   5.123  19.473  0.00  0.00    +0.000 NA
ATOM     32  N   UNL     1       7.014   4.892  18.433  0.00  0.00    +0.000 NA
ATOM     33  C   UNL     1       6.952   5.979  17.687  0.00  0.00    +0.000 A 
ENDBRANCH  27  33
ENDBRANCH  23  27
ENDBRANCH   1  23
TORSDOF 6
ENDMDL
