MODEL 1
REMARK VINA RESULT:      -8.8      0.000      0.000
REMARK  Name = 
REMARK  5 active torsions:
REMARK  status: ('A' for Active; 'I' for Inactive)
REMARK    1  A    between atoms: C_1  and  C_2
REMARK    2  A    between atoms: N_4  and  C_5
REMARK    3  A    between atoms: C_9  and  C_10
REMARK    4  A    between atoms: N_16  and  C_17
REMARK    5  A    between atoms: C_21  and  C_22
REMARK                            x       y       z     vdW  Elec       q    Type
REMARK                         _______ _______ _______ _____ _____    ______ ____
ROOT
ATOM      1  C   UNL     1       4.400   5.555  17.664  0.00  0.00    +0.000 A 
ATOM      2  C   UNL     1       3.923   6.855  17.506  0.00  0.00    +0.000 A 
ATOM      3  C   UNL     1       2.943   7.314  18.362  0.00  0.00    +0.000 A 
ATOM      4  C   UNL     1       2.408   6.564  19.397  0.00  0.00    +0.000 A 
ATOM      5  C   UNL     1       2.844   5.265  19.598  0.00  0.00    +0.000 A 
ATOM      6  C   UNL     1       3.848   4.784  18.720  0.00  0.00    +0.000 A 
ATOM      7  C   UNL     1       1.407   7.390  20.139  0.00  0.00    +0.000 C 
ATOM      8  N   UNL     1       1.401   8.650  19.405  0.00  0.00    +0.000 N 
ATOM      9  C   UNL     1       2.307   8.624  18.343  0.00  0.00    +0.000 C 
ATOM     10  O   UNL     1       2.596   9.456  17.503  0.00  0.00    +0.000 OA
ENDROOT
BRANCH   1  14
ATOM     11  C   UNL     1       6.371   3.972  13.473  0.00  0.00    +0.000 C 
ATOM     12  C   UNL     1       6.516   4.183  14.968  0.00  0.00    +0.000 C 
ATOM     13  C   UNL     1       5.145   4.231  15.680  0.00  0.00    +0.000 C 
ATOM     14  N   UNL     1       5.393   5.073  16.844  0.00  0.00    +0.000 N 
ATOM     15  C   UNL     1       6.649   5.775  16.608  0.00  0.00    +0.000 C 
ATOM     16  N   UNL     1       7.156   5.482  15.264  0.00  0.00    +0.000 NA
ATOM     17  H   UNL     1       8.167   5.386  15.292  0.00  0.00    +0.000 HD
ENDBRANCH   1  14
BRANCH   8  18
ATOM     18  C   UNL     1       0.575   9.746  19.757  0.00  0.00    +0.000 A 
ATOM     19  C   UNL     1       0.848  10.522  20.892  0.00  0.00    +0.000 A 
ATOM     20  C   UNL     1       0.035  11.595  21.255  0.00  0.00    +0.000 A 
ATOM     21  C   UNL     1      -1.080  11.910  20.489  0.00  0.00    +0.000 A 
ATOM     22  C   UNL     1      -1.374  11.153  19.356  0.00  0.00    +0.000 A 
ATOM     23  C   UNL     1      -0.545  10.082  18.985  0.00  0.00    +0.000 A 
BRANCH  22  24
ATOM     24  C   UNL     1      -2.532  11.458  18.573  0.00  0.00    +0.000 C 
ATOM     25  N   UNL     1      -3.472  11.697  17.934  0.00  0.00    +0.000 NA
ENDBRANCH  22  24
ENDBRANCH   8  18
BRANCH   5  26
ATOM     26  C   UNL     1       2.293   4.379  20.681  0.00  0.00    +0.000 C 
ATOM     27  F   UNL     1       2.538   4.846  21.939  0.00  0.00    +0.000 F 
ATOM     28  F   UNL     1       0.943   4.231  20.599  0.00  0.00    +0.000 F 
ATOM     29  F   UNL     1       2.815   3.123  20.646  0.00  0.00    +0.000 F 
ENDBRANCH   5  26
TORSDOF 4
ENDMDL
MODEL 2
REMARK VINA RESULT:      -8.8      1.080      1.368
REMARK  Name = 
REMARK  5 active torsions:
REMARK  status: ('A' for Active; 'I' for Inactive)
REMARK    1  A    between atoms: C_1  and  C_2
REMARK    2  A    between atoms: N_4  and  C_5
REMARK    3  A    between atoms: C_9  and  C_10
REMARK    4  A    between atoms: N_16  and  C_17
REMARK    5  A    between atoms: C_21  and  C_22
REMARK                            x       y       z     vdW  Elec       q    Type
REMARK                         _______ _______ _______ _____ _____    ______ ____
ROOT
ATOM      1  C   UNL     1       4.308   4.786  18.094  0.00  0.00    +0.000 A 
ATOM      2  C   UNL     1       3.882   6.113  18.073  0.00  0.00    +0.000 A 
ATOM      3  C   UNL     1       2.946   6.527  18.998  0.00  0.00    +0.000 A 
ATOM      4  C   UNL     1       2.407   5.705  19.975  0.00  0.00    +0.000 A 
ATOM      5  C   UNL     1       2.793   4.376  20.039  0.00  0.00    +0.000 A 
ATOM      6  C   UNL     1       3.752   3.941  19.091  0.00  0.00    +0.000 A 
ATOM      7  C   UNL     1       1.462   6.495  20.820  0.00  0.00    +0.000 C 
ATOM      8  N   UNL     1       1.490   7.819  20.208  0.00  0.00    +0.000 N 
ATOM      9  C   UNL     1       2.366   7.858  19.120  0.00  0.00    +0.000 C 
ATOM     10  O   UNL     1       2.667   8.753  18.353  0.00  0.00    +0.000 OA
ENDROOT
BRANCH   1  14
ATOM     11  C   UNL     1       6.491   4.332  13.738  0.00  0.00    +0.000 C 
ATOM     12  C   UNL     1       6.409   3.904  15.191  0.00  0.00    +0.000 C 
ATOM     13  C   UNL     1       5.001   4.138  15.783  0.00  0.00    +0.000 C 
ATOM     14  N   UNL     1       5.257   4.345  17.203  0.00  0.00    +0.000 N 
ATOM     15  C   UNL     1       6.682   4.617  17.349  0.00  0.00    +0.000 C 
ATOM     16  N   UNL     1       7.325   4.700  16.034  0.00  0.00    +0.000 NA
ATOM     17  H   UNL     1       8.243   4.267  16.073  0.00  0.00    +0.000 HD
ENDBRANCH   1  14
BRANCH   8  18
ATOM     18  C   UNL     1       0.721   8.909  20.686  0.00  0.00    +0.000 A 
ATOM     19  C   UNL     1       0.561   9.133  22.060  0.00  0.00    +0.000 A 
ATOM     20  C   UNL     1      -0.204  10.195  22.542  0.00  0.00    +0.000 A 
ATOM     21  C   UNL     1      -0.835  11.054  21.651  0.00  0.00    +0.000 A 
ATOM     22  C   UNL     1      -0.693  10.852  20.280  0.00  0.00    +0.000 A 
ATOM     23  C   UNL     1       0.090   9.790  19.798  0.00  0.00    +0.000 A 
BRANCH  22  24
ATOM     24  C   UNL     1      -1.357  11.720  19.356  0.00  0.00    +0.000 C 
ATOM     25  N   UNL     1      -1.898  12.429  18.613  0.00  0.00    +0.000 NA
ENDBRANCH  22  24
ENDBRANCH   8  18
BRANCH   5  26
ATOM     26  C   UNL     1       2.234   3.414  21.052  0.00  0.00    +0.000 C 
ATOM     27  F   UNL     1       0.891   3.217  20.926  0.00  0.00    +0.000 F 
ATOM     28  F   UNL     1       2.797   2.178  20.964  0.00  0.00    +0.000 F 
ATOM     29  F   UNL     1       2.429   3.830  22.332  0.00  0.00    +0.000 F 
ENDBRANCH   5  26
TORSDOF 4
ENDMDL
MODEL 3
REMARK VINA RESULT:      -8.5      1.249      1.929
REMARK  Name = 
REMARK  5 active torsions:
REMARK  status: ('A' for Active; 'I' for Inactive)
REMARK    1  A    between atoms: C_1  and  C_2
REMARK    2  A    between atoms: N_4  and  C_5
REMARK    3  A    between atoms: C_9  and  C_10
REMARK    4  A    between atoms: N_16  and  C_17
REMARK    5  A    between atoms: C_21  and  C_22
REMARK                            x       y       z     vdW  Elec       q    Type
REMARK                         _______ _______ _______ _____ _____    ______ ____
ROOT
ATOM      1  C   UNL     1       4.348   5.726  17.632  0.00  0.00    +0.000 A 
ATOM      2  C   UNL     1       3.890   7.024  17.413  0.00  0.00    +0.000 A 
ATOM      3  C   UNL     1       2.897   7.526  18.229  0.00  0.00    +0.000 A 
ATOM      4  C   UNL     1       2.329   6.823  19.280  0.00  0.00    +0.000 A 
ATOM      5  C   UNL     1       2.746   5.528  19.540  0.00  0.00    +0.000 A 
ATOM      6  C   UNL     1       3.762   5.003  18.704  0.00  0.00    +0.000 A 
ATOM      7  C   UNL     1       1.323   7.688  19.966  0.00  0.00    +0.000 C 
ATOM      8  N   UNL     1       1.349   8.919  19.185  0.00  0.00    +0.000 N 
ATOM      9  C   UNL     1       2.278   8.843  18.145  0.00  0.00    +0.000 C 
ATOM     10  O   UNL     1       2.595   9.637  17.280  0.00  0.00    +0.000 OA
ENDROOT
BRANCH   1  14
ATOM     11  C   UNL     1       6.397   3.978  13.546  0.00  0.00    +0.000 C 
ATOM     12  C   UNL     1       6.507   4.234  15.037  0.00  0.00    +0.000 C 
ATOM     13  C   UNL     1       5.119   4.327  15.710  0.00  0.00    +0.000 C 
ATOM     14  N   UNL     1       5.352   5.202  16.853  0.00  0.00    +0.000 N 
ATOM     15  C   UNL     1       6.627   5.874  16.629  0.00  0.00    +0.000 C 
ATOM     16  N   UNL     1       7.162   5.530  15.309  0.00  0.00    +0.000 NA
ATOM     17  H   UNL     1       8.170   5.417  15.366  0.00  0.00    +0.000 HD
ENDBRANCH   1  14
BRANCH   8  18
ATOM     18  C   UNL     1       0.528  10.038  19.476  0.00  0.00    +0.000 A 
ATOM     19  C   UNL     1      -0.761  10.147  18.938  0.00  0.00    +0.000 A 
ATOM     20  C   UNL     1      -1.574  11.249  19.207  0.00  0.00    +0.000 A 
ATOM     21  C   UNL     1      -1.103  12.273  20.019  0.00  0.00    +0.000 A 
ATOM     22  C   UNL     1       0.176  12.189  20.565  0.00  0.00    +0.000 A 
ATOM     23  C   UNL     1       0.986  11.071  20.303  0.00  0.00    +0.000 A 
BRANCH  22  24
ATOM     24  C   UNL     1       0.676  13.250  21.385  0.00  0.00    +0.000 C 
ATOM     25  N   UNL     1       1.073  14.114  22.051  0.00  0.00    +0.000 NA
ENDBRANCH  22  24
ENDBRANCH   8  18
BRANCH   5  26
ATOM     26  C   UNL     1       2.160   4.691  20.643  0.00  0.00    +0.000 C 
ATOM     27  F   UNL     1       0.803   4.579  20.576  0.00  0.00    +0.000 F 
ATOM     28  F   UNL     1       2.634   3.416  20.640  0.00  0.00    +0.000 F 
ATOM     29  F   UNL     1       2.428   5.192  21.879  0.00  0.00    +0.000 F 
ENDBRANCH   5  26
TORSDOF 4
ENDMDL
MODEL 4
REMARK VINA RESULT:      -8.4      1.214      1.641
REMARK  Name = 
REMARK  5 active torsions:
REMARK  status: ('A' for Active; 'I' for Inactive)
REMARK    1  A    between atoms: C_1  and  C_2
REMARK    2  A    between atoms: N_4  and  C_5
REMARK    3  A    between atoms: C_9  and  C_10
REMARK    4  A    between atoms: N_16  and  C_17
REMARK    5  A    between atoms: C_21  and  C_22
REMARK                            x       y       z     vdW  Elec       q    Type
REMARK                         _______ _______ _______ _____ _____    ______ ____
ROOT
ATOM      1  C   UNL     1       4.449   5.544  17.593  0.00  0.00    +0.000 A 
ATOM      2  C   UNL     1       3.940   6.822  17.364  0.00  0.00    +0.000 A 
ATOM      3  C   UNL     1       2.945   7.300  18.192  0.00  0.00    +0.000 A 
ATOM      4  C   UNL     1       2.424   6.594  19.263  0.00  0.00    +0.000 A 
ATOM      5  C   UNL     1       2.891   5.318  19.534  0.00  0.00    +0.000 A 
ATOM      6  C   UNL     1       3.910   4.817  18.687  0.00  0.00    +0.000 A 
ATOM      7  C   UNL     1       1.400   7.432  19.957  0.00  0.00    +0.000 C 
ATOM      8  N   UNL     1       1.366   8.651  19.157  0.00  0.00    +0.000 N 
ATOM      9  C   UNL     1       2.277   8.592  18.100  0.00  0.00    +0.000 C 
ATOM     10  O   UNL     1       2.549   9.384  17.218  0.00  0.00    +0.000 OA
ENDROOT
BRANCH   1  14
ATOM     11  C   UNL     1       6.573   4.092  13.430  0.00  0.00    +0.000 C 
ATOM     12  C   UNL     1       6.635   4.196  14.942  0.00  0.00    +0.000 C 
ATOM     13  C   UNL     1       5.227   4.298  15.571  0.00  0.00    +0.000 C 
ATOM     14  N   UNL     1       5.457   5.044  16.802  0.00  0.00    +0.000 N 
ATOM     15  C   UNL     1       6.771   5.666  16.692  0.00  0.00    +0.000 C 
ATOM     16  N   UNL     1       7.342   5.423  15.363  0.00  0.00    +0.000 NA
ATOM     17  H   UNL     1       8.340   5.251  15.445  0.00  0.00    +0.000 HD
ENDBRANCH   1  14
BRANCH   8  18
ATOM     18  C   UNL     1       0.511   9.744  19.447  0.00  0.00    +0.000 A 
ATOM     19  C   UNL     1      -0.006  10.549  18.424  0.00  0.00    +0.000 A 
ATOM     20  C   UNL     1      -0.838  11.634  18.698  0.00  0.00    +0.000 A 
ATOM     21  C   UNL     1      -1.164  11.941  20.013  0.00  0.00    +0.000 A 
ATOM     22  C   UNL     1      -0.661  11.158  21.049  0.00  0.00    +0.000 A 
ATOM     23  C   UNL     1       0.165  10.056  20.768  0.00  0.00    +0.000 A 
BRANCH  22  24
ATOM     24  C   UNL     1      -0.975  11.480  22.408  0.00  0.00    +0.000 C 
ATOM     25  N   UNL     1      -1.228  11.750  23.509  0.00  0.00    +0.000 NA
ENDBRANCH  22  24
ENDBRANCH   8  18
BRANCH   5  26
ATOM     26  C   UNL     1       2.357   4.477  20.661  0.00  0.00    +0.000 C 
ATOM     27  F   UNL     1       2.539   5.041  21.890  0.00  0.00    +0.000 F 
ATOM     28  F   UNL     1       1.020   4.250  20.555  0.00  0.00    +0.000 F 
ATOM     29  F   UNL     1       2.947   3.253  20.726  0.00  0.00    +0.000 F 
ENDBRANCH   5  26
TORSDOF 4
ENDMDL
MODEL 5
REMARK VINA RESULT:      -8.2      1.875      2.465
REMARK  Name = 
REMARK  5 active torsions:
REMARK  status: ('A' for Active; 'I' for Inactive)
REMARK    1  A    between atoms: C_1  and  C_2
REMARK    2  A    between atoms: N_4  and  C_5
REMARK    3  A    between atoms: C_9  and  C_10
REMARK    4  A    between atoms: N_16  and  C_17
REMARK    5  A    between atoms: C_21  and  C_22
REMARK                            x       y       z     vdW  Elec       q    Type
REMARK                         _______ _______ _______ _____ _____    ______ ____
ROOT
ATOM      1  C   UNL     1       5.009   4.795  16.574  0.00  0.00    +0.000 A 
ATOM      2  C   UNL     1       4.549   6.106  16.689  0.00  0.00    +0.000 A 
ATOM      3  C   UNL     1       3.627   6.404  17.672  0.00  0.00    +0.000 A 
ATOM      4  C   UNL     1       3.135   5.478  18.578  0.00  0.00    +0.000 A 
ATOM      5  C   UNL     1       3.557   4.161  18.507  0.00  0.00    +0.000 A 
ATOM      6  C   UNL     1       4.501   3.845  17.499  0.00  0.00    +0.000 A 
ATOM      7  C   UNL     1       2.193   6.159  19.517  0.00  0.00    +0.000 C 
ATOM      8  N   UNL     1       2.171   7.535  19.033  0.00  0.00    +0.000 N 
ATOM      9  C   UNL     1       3.016   7.701  17.933  0.00  0.00    +0.000 C 
ATOM     10  O   UNL     1       3.274   8.672  17.248  0.00  0.00    +0.000 OA
ENDROOT
BRANCH   1  14
ATOM     11  C   UNL     1       6.787   4.229  12.049  0.00  0.00    +0.000 C 
ATOM     12  C   UNL     1       6.964   4.019  13.541  0.00  0.00    +0.000 C 
ATOM     13  C   UNL     1       5.610   3.992  14.285  0.00  0.00    +0.000 C 
ATOM     14  N   UNL     1       5.945   4.467  15.622  0.00  0.00    +0.000 N 
ATOM     15  C   UNL     1       7.259   5.095  15.540  0.00  0.00    +0.000 C 
ATOM     16  N   UNL     1       7.723   5.130  14.150  0.00  0.00    +0.000 NA
ATOM     17  H   UNL     1       8.721   4.943  14.117  0.00  0.00    +0.000 HD
ENDBRANCH   1  14
BRANCH   8  18
ATOM     18  C   UNL     1       1.387   8.553  19.630  0.00  0.00    +0.000 A 
ATOM     19  C   UNL     1       0.816   9.572  18.857  0.00  0.00    +0.000 A 
ATOM     20  C   UNL     1       0.052  10.586  19.435  0.00  0.00    +0.000 A 
ATOM     21  C   UNL     1      -0.148  10.604  20.810  0.00  0.00    +0.000 A 
ATOM     22  C   UNL     1       0.410   9.602  21.601  0.00  0.00    +0.000 A 
ATOM     23  C   UNL     1       1.166   8.574  21.014  0.00  0.00    +0.000 A 
BRANCH  22  24
ATOM     24  C   UNL     1       0.225   9.624  23.020  0.00  0.00    +0.000 C 
ATOM     25  N   UNL     1       0.071   9.635  24.171  0.00  0.00    +0.000 NA
ENDBRANCH  22  24
ENDBRANCH   8  18
BRANCH   5  26
ATOM     26  C   UNL     1       3.050   3.092  19.436  0.00  0.00    +0.000 C 
ATOM     27  F   UNL     1       3.333   3.337  20.747  0.00  0.00    +0.000 F 
ATOM     28  F   UNL     1       1.699   2.943  19.373  0.00  0.00    +0.000 F 
ATOM     29  F   UNL     1       3.580   1.869  19.166  0.00  0.00    +0.000 F 
ENDBRANCH   5  26
TORSDOF 4
ENDMDL
MODEL 6
REMARK VINA RESULT:      -8.1      1.476      1.898
REMARK  Name = 
REMARK  5 active torsions:
REMARK  status: ('A' for Active; 'I' for Inactive)
REMARK    1  A    between atoms: C_1  and  C_2
REMARK    2  A    between atoms: N_4  and  C_5
REMARK    3  A    between atoms: C_9  and  C_10
REMARK    4  A    between atoms: N_16  and  C_17
REMARK    5  A    between atoms: C_21  and  C_22
REMARK                            x       y       z     vdW  Elec       q    Type
REMARK                         _______ _______ _______ _____ _____    ______ ____
ROOT
ATOM      1  C   UNL     1       3.622   5.078  17.725  0.00  0.00    +0.000 A 
ATOM      2  C   UNL     1       3.241   6.413  17.854  0.00  0.00    +0.000 A 
ATOM      3  C   UNL     1       2.501   6.792  18.955  0.00  0.00    +0.000 A 
ATOM      4  C   UNL     1       2.123   5.925  19.968  0.00  0.00    +0.000 A 
ATOM      5  C   UNL     1       2.472   4.587  19.889  0.00  0.00    +0.000 A 
ATOM      6  C   UNL     1       3.229   4.188  18.759  0.00  0.00    +0.000 A 
ATOM      7  C   UNL     1       1.372   6.684  21.013  0.00  0.00    +0.000 C 
ATOM      8  N   UNL     1       1.330   8.040  20.478  0.00  0.00    +0.000 N 
ATOM      9  C   UNL     1       1.995   8.125  19.253  0.00  0.00    +0.000 C 
ATOM     10  O   UNL     1       2.180   9.057  18.493  0.00  0.00    +0.000 OA
ENDROOT
BRANCH   1  14
ATOM     11  C   UNL     1       7.404   5.174  14.620  0.00  0.00    +0.000 C 
ATOM     12  C   UNL     1       6.048   4.600  14.985  0.00  0.00    +0.000 C 
ATOM     13  C   UNL     1       5.235   5.563  15.879  0.00  0.00    +0.000 C 
ATOM     14  N   UNL     1       4.380   4.671  16.653  0.00  0.00    +0.000 N 
ATOM     15  C   UNL     1       4.930   3.327  16.524  0.00  0.00    +0.000 C 
ATOM     16  N   UNL     1       6.188   3.359  15.773  0.00  0.00    +0.000 NA
ATOM     17  H   UNL     1       6.243   2.549  15.161  0.00  0.00    +0.000 HD
ENDBRANCH   1  14
BRANCH   8  18
ATOM     18  C   UNL     1       0.695   9.116  21.147  0.00  0.00    +0.000 A 
ATOM     19  C   UNL     1       0.272   8.992  22.477  0.00  0.00    +0.000 A 
ATOM     20  C   UNL     1      -0.365  10.039  23.142  0.00  0.00    +0.000 A 
ATOM     21  C   UNL     1      -0.602  11.237  22.480  0.00  0.00    +0.000 A 
ATOM     22  C   UNL     1      -0.192  11.386  21.156  0.00  0.00    +0.000 A 
ATOM     23  C   UNL     1       0.463  10.334  20.494  0.00  0.00    +0.000 A 
BRANCH  22  24
ATOM     24  C   UNL     1      -0.450  12.610  20.460  0.00  0.00    +0.000 C 
ATOM     25  N   UNL     1      -0.665  13.599  19.891  0.00  0.00    +0.000 NA
ENDBRANCH  22  24
ENDBRANCH   8  18
BRANCH   5  26
ATOM     26  C   UNL     1       2.076   3.579  20.933  0.00  0.00    +0.000 C 
ATOM     27  F   UNL     1       2.592   2.337  20.708  0.00  0.00    +0.000 F 
ATOM     28  F   UNL     1       2.489   3.929  22.181  0.00  0.00    +0.000 F 
ATOM     29  F   UNL     1       0.728   3.410  21.012  0.00  0.00    +0.000 F 
ENDBRANCH   5  26
TORSDOF 4
ENDMDL
MODEL 7
REMARK VINA RESULT:      -8.0      1.935      8.251
REMARK  Name = 
REMARK  5 active torsions:
REMARK  status: ('A' for Active; 'I' for Inactive)
REMARK    1  A    between atoms: C_1  and  C_2
REMARK    2  A    between atoms: N_4  and  C_5
REMARK    3  A    between atoms: C_9  and  C_10
REMARK    4  A    between atoms: N_16  and  C_17
REMARK    5  A    between atoms: C_21  and  C_22
REMARK                            x       y       z     vdW  Elec       q    Type
REMARK                         _______ _______ _______ _____ _____    ______ ____
ROOT
ATOM      1  C   UNL     1       2.726   6.773  19.144  0.00  0.00    +0.000 A 
ATOM      2  C   UNL     1       3.407   7.103  17.973  0.00  0.00    +0.000 A 
ATOM      3  C   UNL     1       4.019   6.098  17.253  0.00  0.00    +0.000 A 
ATOM      4  C   UNL     1       3.986   4.759  17.610  0.00  0.00    +0.000 A 
ATOM      5  C   UNL     1       3.326   4.377  18.766  0.00  0.00    +0.000 A 
ATOM      6  C   UNL     1       2.697   5.402  19.514  0.00  0.00    +0.000 A 
ATOM      7  C   UNL     1       4.716   3.956  16.583  0.00  0.00    +0.000 C 
ATOM      8  N   UNL     1       5.192   4.964  15.644  0.00  0.00    +0.000 N 
ATOM      9  C   UNL     1       4.790   6.246  16.026  0.00  0.00    +0.000 C 
ATOM     10  O   UNL     1       4.981   7.339  15.526  0.00  0.00    +0.000 OA
ENDROOT
BRANCH   1  14
ATOM     11  C   UNL     1      -0.506  10.356  19.962  0.00  0.00    +0.000 C 
ATOM     12  C   UNL     1       0.686   9.556  20.453  0.00  0.00    +0.000 C 
ATOM     13  C   UNL     1       1.488   8.939  19.285  0.00  0.00    +0.000 C 
ATOM     14  N   UNL     1       2.084   7.745  19.874  0.00  0.00    +0.000 N 
ATOM     15  C   UNL     1       1.373   7.476  21.118  0.00  0.00    +0.000 C 
ATOM     16  N   UNL     1       0.256   8.411  21.282  0.00  0.00    +0.000 NA
ATOM     17  H   UNL     1       0.177   8.684  22.257  0.00  0.00    +0.000 HD
ENDBRANCH   1  14
BRANCH   8  18
ATOM     18  C   UNL     1       5.958   4.650  14.493  0.00  0.00    +0.000 A 
ATOM     19  C   UNL     1       7.088   5.403  14.149  0.00  0.00    +0.000 A 
ATOM     20  C   UNL     1       7.842   5.110  13.013  0.00  0.00    +0.000 A 
ATOM     21  C   UNL     1       7.470   4.055  12.188  0.00  0.00    +0.000 A 
ATOM     22  C   UNL     1       6.349   3.292  12.508  0.00  0.00    +0.000 A 
ATOM     23  C   UNL     1       5.601   3.580  13.661  0.00  0.00    +0.000 A 
BRANCH  22  24
ATOM     24  C   UNL     1       5.948   2.217  11.653  0.00  0.00    +0.000 C 
ATOM     25  N   UNL     1       5.616   1.349  10.957  0.00  0.00    +0.000 NA
ENDBRANCH  22  24
ENDBRANCH   8  18
BRANCH   5  26
ATOM     26  C   UNL     1       3.268   2.948  19.235  0.00  0.00    +0.000 C 
ATOM     27  F   UNL     1       2.694   2.104  18.331  0.00  0.00    +0.000 F 
ATOM     28  F   UNL     1       4.500   2.432  19.491  0.00  0.00    +0.000 F 
ATOM     29  F   UNL     1       2.550   2.803  20.382  0.00  0.00    +0.000 F 
ENDBRANCH   5  26
TORSDOF 4
ENDMDL
MODEL 8
REMARK VINA RESULT:      -7.9      2.845      8.256
REMARK  Name = 
REMARK  5 active torsions:
REMARK  status: ('A' for Active; 'I' for Inactive)
REMARK    1  A    between atoms: C_1  and  C_2
REMARK    2  A    between atoms: N_4  and  C_5
REMARK    3  A    between atoms: C_9  and  C_10
REMARK    4  A    between atoms: N_16  and  C_17
REMARK    5  A    between atoms: C_21  and  C_22
REMARK                            x       y       z     vdW  Elec       q    Type
REMARK                         _______ _______ _______ _____ _____    ______ ____
ROOT
ATOM      1  C   UNL     1       0.597  11.803  19.487  0.00  0.00    +0.000 A 
ATOM      2  C   UNL     1       1.242  10.957  18.586  0.00  0.00    +0.000 A 
ATOM      3  C   UNL     1       1.509   9.658  18.966  0.00  0.00    +0.000 A 
ATOM      4  C   UNL     1       1.155   9.123  20.194  0.00  0.00    +0.000 A 
ATOM      5  C   UNL     1       0.514   9.920  21.128  0.00  0.00    +0.000 A 
ATOM      6  C   UNL     1       0.239  11.257  20.748  0.00  0.00    +0.000 A 
ATOM      7  C   UNL     1       1.562   7.686  20.243  0.00  0.00    +0.000 C 
ATOM      8  N   UNL     1       2.209   7.476  18.952  0.00  0.00    +0.000 N 
ATOM      9  C   UNL     1       2.189   8.638  18.178  0.00  0.00    +0.000 C 
ATOM     10  O   UNL     1       2.619   8.880  17.066  0.00  0.00    +0.000 OA
ENDROOT
BRANCH   1  14
ATOM     11  C   UNL     1      -1.121  16.339  20.141  0.00  0.00    +0.000 C 
ATOM     12  C   UNL     1      -0.566  15.293  19.192  0.00  0.00    +0.000 C 
ATOM     13  C   UNL     1      -0.808  13.857  19.710  0.00  0.00    +0.000 C 
ATOM     14  N   UNL     1       0.294  13.096  19.134  0.00  0.00    +0.000 N 
ATOM     15  C   UNL     1       1.292  14.058  18.680  0.00  0.00    +0.000 C 
ATOM     16  N   UNL     1       0.899  15.419  19.057  0.00  0.00    +0.000 NA
ATOM     17  H   UNL     1       1.137  16.064  18.309  0.00  0.00    +0.000 HD
ENDBRANCH   1  14
BRANCH   8  18
ATOM     18  C   UNL     1       2.768   6.234  18.560  0.00  0.00    +0.000 A 
ATOM     19  C   UNL     1       1.950   5.158  18.191  0.00  0.00    +0.000 A 
ATOM     20  C   UNL     1       2.488   3.927  17.815  0.00  0.00    +0.000 A 
ATOM     21  C   UNL     1       3.866   3.747  17.810  0.00  0.00    +0.000 A 
ATOM     22  C   UNL     1       4.701   4.801  18.175  0.00  0.00    +0.000 A 
ATOM     23  C   UNL     1       4.156   6.044  18.539  0.00  0.00    +0.000 A 
BRANCH  22  24
ATOM     24  C   UNL     1       6.120   4.617  18.192  0.00  0.00    +0.000 C 
ATOM     25  N   UNL     1       7.272   4.467  18.198  0.00  0.00    +0.000 NA
ENDBRANCH  22  24
ENDBRANCH   8  18
BRANCH   5  26
ATOM     26  C   UNL     1       0.122   9.421  22.492  0.00  0.00    +0.000 C 
ATOM     27  F   UNL     1      -0.503  10.364  23.254  0.00  0.00    +0.000 F 
ATOM     28  F   UNL     1      -0.736   8.367  22.436  0.00  0.00    +0.000 F 
ATOM     29  F   UNL     1       1.190   9.003  23.224  0.00  0.00    +0.000 F 
ENDBRANCH   5  26
TORSDOF 4
ENDMDL
MODEL 9
REMARK VINA RESULT:      -7.8      2.965      8.332
REMARK  Name = 
REMARK  5 active torsions:
REMARK  status: ('A' for Active; 'I' for Inactive)
REMARK    1  A    between atoms: C_1  and  C_2
REMARK    2  A    between atoms: N_4  and  C_5
REMARK    3  A    between atoms: C_9  and  C_10
REMARK    4  A    between atoms: N_16  and  C_17
REMARK    5  A    between atoms: C_21  and  C_22
REMARK                            x       y       z     vdW  Elec       q    Type
REMARK                         _______ _______ _______ _____ _____    ______ ____
ROOT
ATOM      1  C   UNL     1      -0.166  12.152  19.935  0.00  0.00    +0.000 A 
ATOM      2  C   UNL     1       0.544  11.487  18.936  0.00  0.00    +0.000 A 
ATOM      3  C   UNL     1       1.003  10.209  19.183  0.00  0.00    +0.000 A 
ATOM      4  C   UNL     1       0.786   9.525  20.368  0.00  0.00    +0.000 A 
ATOM      5  C   UNL     1       0.089  10.139  21.395  0.00  0.00    +0.000 A 
ATOM      6  C   UNL     1      -0.384  11.453  21.152  0.00  0.00    +0.000 A 
ATOM      7  C   UNL     1       1.386   8.160  20.266  0.00  0.00    +0.000 C 
ATOM      8  N   UNL     1       1.991   8.156  18.939  0.00  0.00    +0.000 N 
ATOM      9  C   UNL     1       1.776   9.368  18.279  0.00  0.00    +0.000 C 
ATOM     10  O   UNL     1       2.114   9.763  17.179  0.00  0.00    +0.000 OA
ENDROOT
BRANCH   1  14
ATOM     11  C   UNL     1      -0.837  16.915  20.835  0.00  0.00    +0.000 C 
ATOM     12  C   UNL     1      -1.202  15.693  20.014  0.00  0.00    +0.000 C 
ATOM     13  C   UNL     1      -0.922  14.379  20.778  0.00  0.00    +0.000 C 
ATOM     14  N   UNL     1      -0.659  13.416  19.715  0.00  0.00    +0.000 N 
ATOM     15  C   UNL     1      -0.403  14.176  18.497  0.00  0.00    +0.000 C 
ATOM     16  N   UNL     1      -0.386  15.613  18.785  0.00  0.00    +0.000 NA
ATOM     17  H   UNL     1      -0.831  16.120  18.025  0.00  0.00    +0.000 HD
ENDBRANCH   1  14
BRANCH   8  18
ATOM     18  C   UNL     1       2.694   7.044  18.413  0.00  0.00    +0.000 A 
ATOM     19  C   UNL     1       3.955   7.200  17.822  0.00  0.00    +0.000 A 
ATOM     20  C   UNL     1       4.651   6.115  17.290  0.00  0.00    +0.000 A 
ATOM     21  C   UNL     1       4.089   4.845  17.330  0.00  0.00    +0.000 A 
ATOM     22  C   UNL     1       2.836   4.663  17.911  0.00  0.00    +0.000 A 
ATOM     23  C   UNL     1       2.144   5.756  18.460  0.00  0.00    +0.000 A 
BRANCH  22  24
ATOM     24  C   UNL     1       2.242   3.362  17.939  0.00  0.00    +0.000 C 
ATOM     25  N   UNL     1       1.752   2.309  17.963  0.00  0.00    +0.000 NA
ENDBRANCH  22  24
ENDBRANCH   8  18
BRANCH   5  26
ATOM     26  C   UNL     1      -0.164   9.473  22.720  0.00  0.00    +0.000 C 
ATOM     27  F   UNL     1       0.976   9.202  23.415  0.00  0.00    +0.000 F 
ATOM     28  F   UNL     1      -0.930  10.233  23.549  0.00  0.00    +0.000 F 
ATOM     29  F   UNL     1      -0.811   8.282  22.592  0.00  0.00    +0.000 F 
ENDBRANCH   5  26
TORSDOF 4
ENDMDL
