MODEL 1
REMARK VINA RESULT:      -8.4      0.000      0.000
REMARK  Name = 
REMARK  6 active torsions:
REMARK  status: ('A' for Active; 'I' for Inactive)
REMARK    1  A    between atoms: C_1  and  O_2
REMARK    2  A    between atoms: O_2  and  C_3
REMARK    3  A    between atoms: C_6  and  C_7
REMARK    4  A    between atoms: C_7  and  C_8
REMARK    5  A    between atoms: N_10  and  C_11
REMARK    6  A    between atoms: C_13  and  C_14
REMARK                            x       y       z     vdW  Elec       q    Type
REMARK                         _______ _______ _______ _____ _____    ______ ____
ROOT
ATOM      1  C   UNL     1       3.774   5.947  18.593  0.00  0.00    +0.000 A 
ATOM      2  N   UNL     1       5.093   6.175  18.351  0.00  0.00    +0.000 NA
ATOM      3  C   UNL     1       5.992   5.202  18.656  0.00  0.00    +0.000 A 
ATOM      4  N   UNL     1       5.642   4.007  19.164  0.00  0.00    +0.000 NA
ATOM      5  C   UNL     1       4.363   3.781  19.411  0.00  0.00    +0.000 A 
ATOM      6  C   UNL     1       4.061   2.534  19.942  0.00  0.00    +0.000 A 
ATOM      7  C   UNL     1       2.759   2.170  20.275  0.00  0.00    +0.000 A 
ATOM      8  C   UNL     1       1.739   3.088  20.097  0.00  0.00    +0.000 A 
ATOM      9  C   UNL     1       2.031   4.345  19.562  0.00  0.00    +0.000 A 
ATOM     10  C   UNL     1       3.346   4.724  19.175  0.00  0.00    +0.000 A 
ENDROOT
BRANCH   1  13
ATOM     11  C   UNL     1       1.673   8.674  18.014  0.00  0.00    +0.000 C 
ATOM     12  C   UNL     1       1.982   7.677  19.157  0.00  0.00    +0.000 C 
ATOM     13  N   UNL     1       2.875   6.995  18.266  0.00  0.00    +0.000 N 
ATOM     14  C   UNL     1       2.935   8.094  17.347  0.00  0.00    +0.000 C 
BRANCH  11  15
ATOM     15  C   UNL     1       1.594  10.136  18.445  0.00  0.00    +0.000 C 
BRANCH  15  19
ATOM     16  C   UNL     1      -2.490  11.603  18.771  0.00  0.00    +0.000 A 
ATOM     17  C   UNL     1      -2.204  10.491  17.987  0.00  0.00    +0.000 A 
ATOM     18  C   UNL     1      -0.872  10.052  17.833  0.00  0.00    +0.000 A 
ATOM     19  C   UNL     1       0.189  10.715  18.466  0.00  0.00    +0.000 A 
ATOM     20  C   UNL     1      -0.108  11.850  19.231  0.00  0.00    +0.000 A 
ATOM     21  C   UNL     1      -1.435  12.285  19.383  0.00  0.00    +0.000 A 
BRANCH  16  23
ATOM     22  C   UNL     1      -4.817  11.615  18.247  0.00  0.00    +0.000 C 
ATOM     23  O   UNL     1      -3.737  12.112  19.028  0.00  0.00    +0.000 OA
ENDBRANCH  16  23
ENDBRANCH  15  19
ENDBRANCH  11  15
ENDBRANCH   1  13
BRANCH   3  24
ATOM     24  C   UNL     1       7.499   5.413  18.442  0.00  0.00    +0.000 C 
ATOM     25  F   UNL     1       7.826   6.488  17.664  0.00  0.00    +0.000 F 
ATOM     26  F   UNL     1       8.182   5.596  19.616  0.00  0.00    +0.000 F 
ATOM     27  F   UNL     1       8.104   4.338  17.845  0.00  0.00    +0.000 F 
ENDBRANCH   3  24
TORSDOF 5
ENDMDL
MODEL 2
REMARK VINA RESULT:      -8.4      0.188      1.191
REMARK  Name = 
REMARK  6 active torsions:
REMARK  status: ('A' for Active; 'I' for Inactive)
REMARK    1  A    between atoms: C_1  and  O_2
REMARK    2  A    between atoms: O_2  and  C_3
REMARK    3  A    between atoms: C_6  and  C_7
REMARK    4  A    between atoms: C_7  and  C_8
REMARK    5  A    between atoms: N_10  and  C_11
REMARK    6  A    between atoms: C_13  and  C_14
REMARK                            x       y       z     vdW  Elec       q    Type
REMARK                         _______ _______ _______ _____ _____    ______ ____
ROOT
ATOM      1  C   UNL     1       3.818   5.945  18.554  0.00  0.00    +0.000 A 
ATOM      2  N   UNL     1       5.132   6.146  18.261  0.00  0.00    +0.000 NA
ATOM      3  C   UNL     1       6.029   5.176  18.578  0.00  0.00    +0.000 A 
ATOM      4  N   UNL     1       5.683   4.007  19.147  0.00  0.00    +0.000 NA
ATOM      5  C   UNL     1       4.409   3.808  19.444  0.00  0.00    +0.000 A 
ATOM      6  C   UNL     1       4.111   2.588  20.036  0.00  0.00    +0.000 A 
ATOM      7  C   UNL     1       2.817   2.254  20.426  0.00  0.00    +0.000 A 
ATOM      8  C   UNL     1       1.802   3.176  20.242  0.00  0.00    +0.000 A 
ATOM      9  C   UNL     1       2.090   4.407  19.645  0.00  0.00    +0.000 A 
ATOM     10  C   UNL     1       3.396   4.752  19.201  0.00  0.00    +0.000 A 
ENDROOT
BRANCH   1  13
ATOM     11  C   UNL     1       1.697   8.652  17.955  0.00  0.00    +0.000 C 
ATOM     12  C   UNL     1       1.937   7.596  19.062  0.00  0.00    +0.000 C 
ATOM     13  N   UNL     1       2.921   6.989  18.213  0.00  0.00    +0.000 N 
ATOM     14  C   UNL     1       3.027   8.143  17.368  0.00  0.00    +0.000 C 
BRANCH  11  15
ATOM     15  C   UNL     1       1.541  10.083  18.462  0.00  0.00    +0.000 C 
BRANCH  15  19
ATOM     16  C   UNL     1      -2.524  11.600  18.797  0.00  0.00    +0.000 A 
ATOM     17  C   UNL     1      -1.516  12.108  19.609  0.00  0.00    +0.000 A 
ATOM     18  C   UNL     1      -0.212  11.574  19.543  0.00  0.00    +0.000 A 
ATOM     19  C   UNL     1       0.102  10.531  18.660  0.00  0.00    +0.000 A 
ATOM     20  C   UNL     1      -0.928  10.008  17.867  0.00  0.00    +0.000 A 
ATOM     21  C   UNL     1      -2.225  10.542  17.935  0.00  0.00    +0.000 A 
BRANCH  16  23
ATOM     22  C   UNL     1      -4.789  11.167  18.184  0.00  0.00    +0.000 C 
ATOM     23  O   UNL     1      -3.819  12.047  18.740  0.00  0.00    +0.000 OA
ENDBRANCH  16  23
ENDBRANCH  15  19
ENDBRANCH  11  15
ENDBRANCH   1  13
BRANCH   3  24
ATOM     24  C   UNL     1       7.530   5.359  18.307  0.00  0.00    +0.000 C 
ATOM     25  F   UNL     1       8.148   4.282  17.736  0.00  0.00    +0.000 F 
ATOM     26  F   UNL     1       7.796   6.413  17.472  0.00  0.00    +0.000 F 
ATOM     27  F   UNL     1       8.245   5.622  19.447  0.00  0.00    +0.000 F 
ENDBRANCH   3  24
TORSDOF 5
ENDMDL
MODEL 3
REMARK VINA RESULT:      -8.2      2.111      2.499
REMARK  Name = 
REMARK  6 active torsions:
REMARK  status: ('A' for Active; 'I' for Inactive)
REMARK    1  A    between atoms: C_1  and  O_2
REMARK    2  A    between atoms: O_2  and  C_3
REMARK    3  A    between atoms: C_6  and  C_7
REMARK    4  A    between atoms: C_7  and  C_8
REMARK    5  A    between atoms: N_10  and  C_11
REMARK    6  A    between atoms: C_13  and  C_14
REMARK                            x       y       z     vdW  Elec       q    Type
REMARK                         _______ _______ _______ _____ _____    ______ ____
ROOT
ATOM      1  C   UNL     1       3.640   6.102  18.132  0.00  0.00    +0.000 A 
ATOM      2  N   UNL     1       4.908   6.258  17.666  0.00  0.00    +0.000 NA
ATOM      3  C   UNL     1       5.582   5.165  17.220  0.00  0.00    +0.000 A 
ATOM      4  N   UNL     1       5.048   3.931  17.190  0.00  0.00    +0.000 NA
ATOM      5  C   UNL     1       3.819   3.769  17.651  0.00  0.00    +0.000 A 
ATOM      6  C   UNL     1       3.322   2.473  17.603  0.00  0.00    +0.000 A 
ATOM      7  C   UNL     1       2.055   2.151  18.078  0.00  0.00    +0.000 A 
ATOM      8  C   UNL     1       1.276   3.147  18.639  0.00  0.00    +0.000 A 
ATOM      9  C   UNL     1       1.764   4.455  18.691  0.00  0.00    +0.000 A 
ATOM     10  C   UNL     1       3.039   4.815  18.174  0.00  0.00    +0.000 A 
ENDROOT
BRANCH   1  13
ATOM     11  C   UNL     1       1.798   8.906  19.095  0.00  0.00    +0.000 C 
ATOM     12  C   UNL     1       2.375   8.294  17.795  0.00  0.00    +0.000 C 
ATOM     13  N   UNL     1       2.981   7.270  18.595  0.00  0.00    +0.000 N 
ATOM     14  C   UNL     1       2.156   7.551  19.733  0.00  0.00    +0.000 C 
BRANCH  11  15
ATOM     15  C   UNL     1       0.353   9.385  18.988  0.00  0.00    +0.000 C 
BRANCH  15  19
ATOM     16  C   UNL     1      -1.253  11.820  22.218  0.00  0.00    +0.000 A 
ATOM     17  C   UNL     1      -1.287  12.281  20.907  0.00  0.00    +0.000 A 
ATOM     18  C   UNL     1      -0.712  11.519  19.868  0.00  0.00    +0.000 A 
ATOM     19  C   UNL     1      -0.103  10.283  20.126  0.00  0.00    +0.000 A 
ATOM     20  C   UNL     1      -0.050   9.841  21.455  0.00  0.00    +0.000 A 
ATOM     21  C   UNL     1      -0.623  10.602  22.487  0.00  0.00    +0.000 A 
BRANCH  16  23
ATOM     22  C   UNL     1      -3.202  12.301  23.507  0.00  0.00    +0.000 C 
ATOM     23  O   UNL     1      -1.800  12.444  23.309  0.00  0.00    +0.000 OA
ENDBRANCH  16  23
ENDBRANCH  15  19
ENDBRANCH  11  15
ENDBRANCH   1  13
BRANCH   3  24
ATOM     24  C   UNL     1       7.030   5.271  16.717  0.00  0.00    +0.000 C 
ATOM     25  F   UNL     1       7.184   5.114  15.368  0.00  0.00    +0.000 F 
ATOM     26  F   UNL     1       7.608   6.479  17.008  0.00  0.00    +0.000 F 
ATOM     27  F   UNL     1       7.856   4.337  17.285  0.00  0.00    +0.000 F 
ENDBRANCH   3  24
TORSDOF 5
ENDMDL
MODEL 4
REMARK VINA RESULT:      -8.2      0.774      1.041
REMARK  Name = 
REMARK  6 active torsions:
REMARK  status: ('A' for Active; 'I' for Inactive)
REMARK    1  A    between atoms: C_1  and  O_2
REMARK    2  A    between atoms: O_2  and  C_3
REMARK    3  A    between atoms: C_6  and  C_7
REMARK    4  A    between atoms: C_7  and  C_8
REMARK    5  A    between atoms: N_10  and  C_11
REMARK    6  A    between atoms: C_13  and  C_14
REMARK                            x       y       z     vdW  Elec       q    Type
REMARK                         _______ _______ _______ _____ _____    ______ ____
ROOT
ATOM      1  C   UNL     1       3.678   6.057  18.276  0.00  0.00    +0.000 A 
ATOM      2  N   UNL     1       5.006   6.307  18.436  0.00  0.00    +0.000 NA
ATOM      3  C   UNL     1       5.841   5.267  18.695  0.00  0.00    +0.000 A 
ATOM      4  N   UNL     1       5.427   3.990  18.778  0.00  0.00    +0.000 NA
ATOM      5  C   UNL     1       4.136   3.740  18.634  0.00  0.00    +0.000 A 
ATOM      6  C   UNL     1       3.765   2.406  18.737  0.00  0.00    +0.000 A 
ATOM      7  C   UNL     1       2.437   2.000  18.633  0.00  0.00    +0.000 A 
ATOM      8  C   UNL     1       1.456   2.957  18.448  0.00  0.00    +0.000 A 
ATOM      9  C   UNL     1       1.818   4.303  18.342  0.00  0.00    +0.000 A 
ATOM     10  C   UNL     1       3.171   4.736  18.402  0.00  0.00    +0.000 A 
ENDROOT
BRANCH   1  13
ATOM     11  C   UNL     1       1.644   8.872  17.919  0.00  0.00    +0.000 C 
ATOM     12  C   UNL     1       1.651   7.546  18.719  0.00  0.00    +0.000 C 
ATOM     13  N   UNL     1       2.845   7.176  18.016  0.00  0.00    +0.000 N 
ATOM     14  C   UNL     1       3.102   8.515  17.573  0.00  0.00    +0.000 C 
BRANCH  11  15
ATOM     15  C   UNL     1       1.296  10.111  18.740  0.00  0.00    +0.000 C 
BRANCH  15  19
ATOM     16  C   UNL     1      -2.841  11.402  18.348  0.00  0.00    +0.000 A 
ATOM     17  C   UNL     1      -2.343  10.386  17.540  0.00  0.00    +0.000 A 
ATOM     18  C   UNL     1      -0.986  10.009  17.625  0.00  0.00    +0.000 A 
ATOM     19  C   UNL     1      -0.112  10.638  18.523  0.00  0.00    +0.000 A 
ATOM     20  C   UNL     1      -0.619  11.679  19.313  0.00  0.00    +0.000 A 
ATOM     21  C   UNL     1      -1.970  12.052  19.226  0.00  0.00    +0.000 A 
BRANCH  16  23
ATOM     22  C   UNL     1      -4.963  11.543  17.266  0.00  0.00    +0.000 C 
ATOM     23  O   UNL     1      -4.140  11.840  18.388  0.00  0.00    +0.000 OA
ENDBRANCH  16  23
ENDBRANCH  15  19
ENDBRANCH  11  15
ENDBRANCH   1  13
BRANCH   3  24
ATOM     24  C   UNL     1       7.345   5.490  18.922  0.00  0.00    +0.000 C 
ATOM     25  F   UNL     1       8.156   4.532  18.383  0.00  0.00    +0.000 F 
ATOM     26  F   UNL     1       7.791   6.677  18.403  0.00  0.00    +0.000 F 
ATOM     27  F   UNL     1       7.677   5.538  20.251  0.00  0.00    +0.000 F 
ENDBRANCH   3  24
TORSDOF 5
ENDMDL
MODEL 5
REMARK VINA RESULT:      -8.2      1.634      2.155
REMARK  Name = 
REMARK  6 active torsions:
REMARK  status: ('A' for Active; 'I' for Inactive)
REMARK    1  A    between atoms: C_1  and  O_2
REMARK    2  A    between atoms: O_2  and  C_3
REMARK    3  A    between atoms: C_6  and  C_7
REMARK    4  A    between atoms: C_7  and  C_8
REMARK    5  A    between atoms: N_10  and  C_11
REMARK    6  A    between atoms: C_13  and  C_14
REMARK                            x       y       z     vdW  Elec       q    Type
REMARK                         _______ _______ _______ _____ _____    ______ ____
ROOT
ATOM      1  C   UNL     1       3.716   6.049  18.078  0.00  0.00    +0.000 A 
ATOM      2  N   UNL     1       5.033   6.151  17.753  0.00  0.00    +0.000 NA
ATOM      3  C   UNL     1       5.729   5.017  17.476  0.00  0.00    +0.000 A 
ATOM      4  N   UNL     1       5.175   3.792  17.481  0.00  0.00    +0.000 NA
ATOM      5  C   UNL     1       3.897   3.683  17.805  0.00  0.00    +0.000 A 
ATOM      6  C   UNL     1       3.381   2.394  17.800  0.00  0.00    +0.000 A 
ATOM      7  C   UNL     1       2.060   2.127  18.147  0.00  0.00    +0.000 A 
ATOM      8  C   UNL     1       1.243   3.175  18.533  0.00  0.00    +0.000 A 
ATOM      9  C   UNL     1       1.751   4.477  18.540  0.00  0.00    +0.000 A 
ATOM     10  C   UNL     1       3.085   4.777  18.149  0.00  0.00    +0.000 A 
ENDROOT
BRANCH   1  13
ATOM     11  C   UNL     1       1.864   8.968  18.565  0.00  0.00    +0.000 C 
ATOM     12  C   UNL     1       2.711   8.311  17.448  0.00  0.00    +0.000 C 
ATOM     13  N   UNL     1       3.034   7.259  18.368  0.00  0.00    +0.000 N 
ATOM     14  C   UNL     1       1.968   7.599  19.264  0.00  0.00    +0.000 C 
BRANCH  11  15
ATOM     15  C   UNL     1       0.524   9.532  18.101  0.00  0.00    +0.000 C 
BRANCH  15  19
ATOM     16  C   UNL     1      -1.543  12.063  20.975  0.00  0.00    +0.000 A 
ATOM     17  C   UNL     1      -1.970  12.008  19.653  0.00  0.00    +0.000 A 
ATOM     18  C   UNL     1      -1.263  11.235  18.708  0.00  0.00    +0.000 A 
ATOM     19  C   UNL     1      -0.126  10.501  19.075  0.00  0.00    +0.000 A 
ATOM     20  C   UNL     1       0.311  10.586  20.403  0.00  0.00    +0.000 A 
ATOM     21  C   UNL     1      -0.394  11.357  21.342  0.00  0.00    +0.000 A 
BRANCH  16  23
ATOM     22  C   UNL     1      -2.468  12.015  23.174  0.00  0.00    +0.000 C 
ATOM     23  O   UNL     1      -2.154  12.747  21.995  0.00  0.00    +0.000 OA
ENDBRANCH  16  23
ENDBRANCH  15  19
ENDBRANCH  11  15
ENDBRANCH   1  13
BRANCH   3  24
ATOM     24  C   UNL     1       7.228   5.063  17.140  0.00  0.00    +0.000 C 
ATOM     25  F   UNL     1       8.016   4.254  17.908  0.00  0.00    +0.000 F 
ATOM     26  F   UNL     1       7.493   4.702  15.844  0.00  0.00    +0.000 F 
ATOM     27  F   UNL     1       7.761   6.319  17.273  0.00  0.00    +0.000 F 
ENDBRANCH   3  24
TORSDOF 5
ENDMDL
MODEL 6
REMARK VINA RESULT:      -8.2      2.137      2.621
REMARK  Name = 
REMARK  6 active torsions:
REMARK  status: ('A' for Active; 'I' for Inactive)
REMARK    1  A    between atoms: C_1  and  O_2
REMARK    2  A    between atoms: O_2  and  C_3
REMARK    3  A    between atoms: C_6  and  C_7
REMARK    4  A    between atoms: C_7  and  C_8
REMARK    5  A    between atoms: N_10  and  C_11
REMARK    6  A    between atoms: C_13  and  C_14
REMARK                            x       y       z     vdW  Elec       q    Type
REMARK                         _______ _______ _______ _____ _____    ______ ____
ROOT
ATOM      1  C   UNL     1       3.583   5.897  17.998  0.00  0.00    +0.000 A 
ATOM      2  N   UNL     1       4.838   5.944  17.476  0.00  0.00    +0.000 NA
ATOM      3  C   UNL     1       5.429   4.783  17.089  0.00  0.00    +0.000 A 
ATOM      4  N   UNL     1       4.826   3.584  17.171  0.00  0.00    +0.000 NA
ATOM      5  C   UNL     1       3.610   3.529  17.688  0.00  0.00    +0.000 A 
ATOM      6  C   UNL     1       3.039   2.265  17.755  0.00  0.00    +0.000 A 
ATOM      7  C   UNL     1       1.775   2.054  18.299  0.00  0.00    +0.000 A 
ATOM      8  C   UNL     1       1.077   3.133  18.812  0.00  0.00    +0.000 A 
ATOM      9  C   UNL     1       1.641   4.411  18.748  0.00  0.00    +0.000 A 
ATOM     10  C   UNL     1       2.912   4.655  18.158  0.00  0.00    +0.000 A 
ENDROOT
BRANCH   1  13
ATOM     11  C   UNL     1       1.952   8.878  18.799  0.00  0.00    +0.000 C 
ATOM     12  C   UNL     1       2.503   8.166  17.539  0.00  0.00    +0.000 C 
ATOM     13  N   UNL     1       3.011   7.133  18.396  0.00  0.00    +0.000 N 
ATOM     14  C   UNL     1       2.189   7.529  19.502  0.00  0.00    +0.000 C 
BRANCH  11  15
ATOM     15  C   UNL     1       0.552   9.464  18.639  0.00  0.00    +0.000 C 
BRANCH  15  19
ATOM     16  C   UNL     1      -0.677  11.519  22.274  0.00  0.00    +0.000 A 
ATOM     17  C   UNL     1      -0.468  10.144  22.280  0.00  0.00    +0.000 A 
ATOM     18  C   UNL     1      -0.128   9.469  21.089  0.00  0.00    +0.000 A 
ATOM     19  C   UNL     1       0.013  10.161  19.877  0.00  0.00    +0.000 A 
ATOM     20  C   UNL     1      -0.227  11.541  19.877  0.00  0.00    +0.000 A 
ATOM     21  C   UNL     1      -0.565  12.211  21.065  0.00  0.00    +0.000 A 
BRANCH  16  23
ATOM     22  C   UNL     1      -1.844  13.406  23.151  0.00  0.00    +0.000 C 
ATOM     23  O   UNL     1      -0.978  12.297  23.362  0.00  0.00    +0.000 OA
ENDBRANCH  16  23
ENDBRANCH  15  19
ENDBRANCH  11  15
ENDBRANCH   1  13
BRANCH   3  24
ATOM     24  C   UNL     1       6.859   4.765  16.526  0.00  0.00    +0.000 C 
ATOM     25  F   UNL     1       7.024   4.018  15.394  0.00  0.00    +0.000 F 
ATOM     26  F   UNL     1       7.320   6.016  16.204  0.00  0.00    +0.000 F 
ATOM     27  F   UNL     1       7.773   4.272  17.421  0.00  0.00    +0.000 F 
ENDBRANCH   3  24
TORSDOF 5
ENDMDL
MODEL 7
REMARK VINA RESULT:      -8.2      3.458      4.659
REMARK  Name = 
REMARK  6 active torsions:
REMARK  status: ('A' for Active; 'I' for Inactive)
REMARK    1  A    between atoms: C_1  and  O_2
REMARK    2  A    between atoms: O_2  and  C_3
REMARK    3  A    between atoms: C_6  and  C_7
REMARK    4  A    between atoms: C_7  and  C_8
REMARK    5  A    between atoms: N_10  and  C_11
REMARK    6  A    between atoms: C_13  and  C_14
REMARK                            x       y       z     vdW  Elec       q    Type
REMARK                         _______ _______ _______ _____ _____    ______ ____
ROOT
ATOM      1  C   UNL     1       2.696   6.019  18.403  0.00  0.00    +0.000 A 
ATOM      2  N   UNL     1       1.910   5.073  18.985  0.00  0.00    +0.000 NA
ATOM      3  C   UNL     1       2.156   3.763  18.720  0.00  0.00    +0.000 A 
ATOM      4  N   UNL     1       3.159   3.346  17.927  0.00  0.00    +0.000 NA
ATOM      5  C   UNL     1       3.922   4.259  17.350  0.00  0.00    +0.000 A 
ATOM      6  C   UNL     1       4.937   3.772  16.537  0.00  0.00    +0.000 A 
ATOM      7  C   UNL     1       5.799   4.619  15.846  0.00  0.00    +0.000 A 
ATOM      8  C   UNL     1       5.623   5.987  15.951  0.00  0.00    +0.000 A 
ATOM      9  C   UNL     1       4.606   6.489  16.768  0.00  0.00    +0.000 A 
ATOM     10  C   UNL     1       3.741   5.644  17.516  0.00  0.00    +0.000 A 
ENDROOT
BRANCH   1  13
ATOM     11  C   UNL     1       1.701   9.310  19.006  0.00  0.00    +0.000 C 
ATOM     12  C   UNL     1       1.932   8.377  17.791  0.00  0.00    +0.000 C 
ATOM     13  N   UNL     1       2.395   7.372  18.704  0.00  0.00    +0.000 N 
ATOM     14  C   UNL     1       1.826   8.025  19.846  0.00  0.00    +0.000 C 
BRANCH  11  15
ATOM     15  C   UNL     1       0.404  10.112  18.956  0.00  0.00    +0.000 C 
BRANCH  15  19
ATOM     16  C   UNL     1       0.979  14.422  18.765  0.00  0.00    +0.000 A 
ATOM     17  C   UNL     1      -0.298  13.889  18.905  0.00  0.00    +0.000 A 
ATOM     18  C   UNL     1      -0.490  12.491  18.906  0.00  0.00    +0.000 A 
ATOM     19  C   UNL     1       0.592  11.609  18.774  0.00  0.00    +0.000 A 
ATOM     20  C   UNL     1       1.870  12.157  18.606  0.00  0.00    +0.000 A 
ATOM     21  C   UNL     1       2.059  13.549  18.606  0.00  0.00    +0.000 A 
BRANCH  16  23
ATOM     22  C   UNL     1       2.616  16.108  18.354  0.00  0.00    +0.000 C 
ATOM     23  O   UNL     1       1.306  15.753  18.780  0.00  0.00    +0.000 OA
ENDBRANCH  16  23
ENDBRANCH  15  19
ENDBRANCH  11  15
ENDBRANCH   1  13
BRANCH   3  24
ATOM     24  C   UNL     1       1.280   2.650  19.316  0.00  0.00    +0.000 C 
ATOM     25  F   UNL     1       1.920   1.461  19.521  0.00  0.00    +0.000 F 
ATOM     26  F   UNL     1       0.746   2.988  20.533  0.00  0.00    +0.000 F 
ATOM     27  F   UNL     1       0.200   2.348  18.528  0.00  0.00    +0.000 F 
ENDBRANCH   3  24
TORSDOF 5
ENDMDL
MODEL 8
REMARK VINA RESULT:      -8.2      1.426      1.976
REMARK  Name = 
REMARK  6 active torsions:
REMARK  status: ('A' for Active; 'I' for Inactive)
REMARK    1  A    between atoms: C_1  and  O_2
REMARK    2  A    between atoms: O_2  and  C_3
REMARK    3  A    between atoms: C_6  and  C_7
REMARK    4  A    between atoms: C_7  and  C_8
REMARK    5  A    between atoms: N_10  and  C_11
REMARK    6  A    between atoms: C_13  and  C_14
REMARK                            x       y       z     vdW  Elec       q    Type
REMARK                         _______ _______ _______ _____ _____    ______ ____
ROOT
ATOM      1  C   UNL     1       3.786   6.192  18.305  0.00  0.00    +0.000 A 
ATOM      2  N   UNL     1       5.137   6.340  18.238  0.00  0.00    +0.000 NA
ATOM      3  C   UNL     1       5.909   5.235  18.066  0.00  0.00    +0.000 A 
ATOM      4  N   UNL     1       5.405   3.995  17.932  0.00  0.00    +0.000 NA
ATOM      5  C   UNL     1       4.093   3.842  18.005  0.00  0.00    +0.000 A 
ATOM      6  C   UNL     1       3.629   2.540  17.867  0.00  0.00    +0.000 A 
ATOM      7  C   UNL     1       2.275   2.227  17.949  0.00  0.00    +0.000 A 
ATOM      8  C   UNL     1       1.367   3.240  18.204  0.00  0.00    +0.000 A 
ATOM      9  C   UNL     1       1.822   4.554  18.343  0.00  0.00    +0.000 A 
ATOM     10  C   UNL     1       3.195   4.902  18.220  0.00  0.00    +0.000 A 
ENDROOT
BRANCH   1  13
ATOM     11  C   UNL     1       1.744   9.012  18.547  0.00  0.00    +0.000 C 
ATOM     12  C   UNL     1       2.654   8.332  17.494  0.00  0.00    +0.000 C 
ATOM     13  N   UNL     1       3.023   7.373  18.494  0.00  0.00    +0.000 N 
ATOM     14  C   UNL     1       1.919   7.707  19.346  0.00  0.00    +0.000 C 
BRANCH  11  15
ATOM     15  C   UNL     1       0.381   9.453  18.021  0.00  0.00    +0.000 C 
BRANCH  15  19
ATOM     16  C   UNL     1      -1.724  12.197  20.663  0.00  0.00    +0.000 A 
ATOM     17  C   UNL     1      -0.584  11.533  21.104  0.00  0.00    +0.000 A 
ATOM     18  C   UNL     1       0.063  10.598  20.268  0.00  0.00    +0.000 A 
ATOM     19  C   UNL     1      -0.417  10.321  18.980  0.00  0.00    +0.000 A 
ATOM     20  C   UNL     1      -1.582  10.974  18.558  0.00  0.00    +0.000 A 
ATOM     21  C   UNL     1      -2.224  11.905  19.392  0.00  0.00    +0.000 A 
BRANCH  16  23
ATOM     22  C   UNL     1      -3.379  12.687  22.311  0.00  0.00    +0.000 C 
ATOM     23  O   UNL     1      -2.426  13.147  21.359  0.00  0.00    +0.000 OA
ENDBRANCH  16  23
ENDBRANCH  15  19
ENDBRANCH  11  15
ENDBRANCH   1  13
BRANCH   3  24
ATOM     24  C   UNL     1       7.442   5.332  18.021  0.00  0.00    +0.000 C 
ATOM     25  F   UNL     1       8.051   5.408  19.242  0.00  0.00    +0.000 F 
ATOM     26  F   UNL     1       8.024   4.262  17.393  0.00  0.00    +0.000 F 
ATOM     27  F   UNL     1       7.882   6.430  17.329  0.00  0.00    +0.000 F 
ENDBRANCH   3  24
TORSDOF 5
ENDMDL
MODEL 9
REMARK VINA RESULT:      -8.1      3.407      4.536
REMARK  Name = 
REMARK  6 active torsions:
REMARK  status: ('A' for Active; 'I' for Inactive)
REMARK    1  A    between atoms: C_1  and  O_2
REMARK    2  A    between atoms: O_2  and  C_3
REMARK    3  A    between atoms: C_6  and  C_7
REMARK    4  A    between atoms: C_7  and  C_8
REMARK    5  A    between atoms: N_10  and  C_11
REMARK    6  A    between atoms: C_13  and  C_14
REMARK                            x       y       z     vdW  Elec       q    Type
REMARK                         _______ _______ _______ _____ _____    ______ ____
ROOT
ATOM      1  C   UNL     1       2.684   6.089  18.397  0.00  0.00    +0.000 A 
ATOM      2  N   UNL     1       1.894   5.158  18.997  0.00  0.00    +0.000 NA
ATOM      3  C   UNL     1       2.134   3.842  18.757  0.00  0.00    +0.000 A 
ATOM      4  N   UNL     1       3.136   3.406  17.972  0.00  0.00    +0.000 NA
ATOM      5  C   UNL     1       3.902   4.305  17.377  0.00  0.00    +0.000 A 
ATOM      6  C   UNL     1       4.915   3.798  16.573  0.00  0.00    +0.000 A 
ATOM      7  C   UNL     1       5.780   4.627  15.866  0.00  0.00    +0.000 A 
ATOM      8  C   UNL     1       5.609   5.998  15.945  0.00  0.00    +0.000 A 
ATOM      9  C   UNL     1       4.595   6.520  16.752  0.00  0.00    +0.000 A 
ATOM     10  C   UNL     1       3.727   5.693  17.517  0.00  0.00    +0.000 A 
ENDROOT
BRANCH   1  13
ATOM     11  C   UNL     1       1.708   9.398  18.929  0.00  0.00    +0.000 C 
ATOM     12  C   UNL     1       1.960   8.447  17.734  0.00  0.00    +0.000 C 
ATOM     13  N   UNL     1       2.389   7.449  18.671  0.00  0.00    +0.000 N 
ATOM     14  C   UNL     1       1.798   8.124  19.790  0.00  0.00    +0.000 C 
BRANCH  11  15
ATOM     15  C   UNL     1       0.420  10.212  18.836  0.00  0.00    +0.000 C 
BRANCH  15  19
ATOM     16  C   UNL     1       0.890  14.538  18.849  0.00  0.00    +0.000 A 
ATOM     17  C   UNL     1       1.976  13.714  18.573  0.00  0.00    +0.000 A 
ATOM     18  C   UNL     1       1.838  12.311  18.628  0.00  0.00    +0.000 A 
ATOM     19  C   UNL     1       0.611  11.715  18.953  0.00  0.00    +0.000 A 
ATOM     20  C   UNL     1      -0.468  12.555  19.256  0.00  0.00    +0.000 A 
ATOM     21  C   UNL     1      -0.328  13.951  19.200  0.00  0.00    +0.000 A 
BRANCH  16  23
ATOM     22  C   UNL     1      -0.345  16.541  18.455  0.00  0.00    +0.000 C 
ATOM     23  O   UNL     1       0.882  15.908  18.799  0.00  0.00    +0.000 OA
ENDBRANCH  16  23
ENDBRANCH  15  19
ENDBRANCH  11  15
ENDBRANCH   1  13
BRANCH   3  24
ATOM     24  C   UNL     1       1.254   2.745  19.375  0.00  0.00    +0.000 C 
ATOM     25  F   UNL     1       1.911   1.590  19.692  0.00  0.00    +0.000 F 
ATOM     26  F   UNL     1       0.644   3.144  20.537  0.00  0.00    +0.000 F 
ATOM     27  F   UNL     1       0.228   2.363  18.550  0.00  0.00    +0.000 F 
ENDBRANCH   3  24
TORSDOF 5
ENDMDL
