MODEL 1
REMARK VINA RESULT:      -9.4      0.000      0.000
REMARK  Name = 
REMARK  5 active torsions:
REMARK  status: ('A' for Active; 'I' for Inactive)
REMARK    1  A    between atoms: C_1  and  C_2
REMARK    2  A    between atoms: C_2  and  C_3
REMARK    3  A    between atoms: C_7  and  N_8
REMARK    4  A    between atoms: C_9  and  C_11
REMARK    5  A    between atoms: C_14  and  O_15
REMARK                            x       y       z     vdW  Elec       q    Type
REMARK                         _______ _______ _______ _____ _____    ______ ____
ROOT
ATOM      1  C   UNL     1       4.989   5.274  17.205  0.00  0.00    +0.000 A 
ATOM      2  C   UNL     1       4.311   4.094  16.852  0.00  0.00    +0.000 A 
ATOM      3  C   UNL     1       3.002   3.870  17.266  0.00  0.00    +0.000 A 
ATOM      4  C   UNL     1       2.350   4.805  18.065  0.00  0.00    +0.000 A 
ATOM      5  C   UNL     1       2.998   5.970  18.469  0.00  0.00    +0.000 A 
ATOM      6  C   UNL     1       4.313   6.198  18.030  0.00  0.00    +0.000 A 
ENDROOT
BRANCH   1   8
ATOM      7  C   UNL     1       6.789   4.591  15.581  0.00  0.00    +0.000 C 
ATOM      8  C   UNL     1       6.434   5.497  16.755  0.00  0.00    +0.000 C 
ATOM      9  N   UNL     1       6.685   6.895  16.446  0.00  0.00    +0.000 N 
ATOM     10  C   UNL     1       7.412   7.529  17.419  0.00  0.00    +0.000 C 
ATOM     11  O   UNL     1       7.638   8.725  17.452  0.00  0.00    +0.000 OA
ATOM     12  N   UNL     1       7.851   6.605  18.299  0.00  0.00    +0.000 N 
ATOM     13  C   UNL     1       7.455   5.360  17.914  0.00  0.00    +0.000 C 
ATOM     14  O   UNL     1       7.835   4.322  18.439  0.00  0.00    +0.000 OA
ATOM     15  H   UNL     1       6.224   7.435  15.727  0.00  0.00    +0.000 HD
ATOM     16  H   UNL     1       8.489   6.805  19.049  0.00  0.00    +0.000 HD
ENDBRANCH   1   8
BRANCH   5  17
ATOM     17  N   UNL     1       2.414   6.929  19.327  0.00  0.00    +0.000 N 
ATOM     18  C   UNL     1       1.885   8.157  18.966  0.00  0.00    +0.000 C 
ATOM     19  O   UNL     1       1.914   8.650  17.843  0.00  0.00    +0.000 OA
ATOM     20  H   UNL     1       2.347   6.662  20.305  0.00  0.00    +0.000 HD
BRANCH  18  21
ATOM     21  C   UNL     1       1.205   8.945  20.040  0.00  0.00    +0.000 A 
ATOM     22  C   UNL     1       1.299   8.481  21.366  0.00  0.00    +0.000 A 
ATOM     23  C   UNL     1       0.721   9.196  22.418  0.00  0.00    +0.000 A 
ATOM     24  C   UNL     1       0.042  10.378  22.144  0.00  0.00    +0.000 A 
ATOM     25  C   UNL     1      -0.071  10.849  20.843  0.00  0.00    +0.000 A 
ATOM     26  C   UNL     1       0.509  10.131  19.799  0.00  0.00    +0.000 A 
ATOM     27  F   UNL     1       0.386  10.617  18.555  0.00  0.00    +0.000 F 
BRANCH  24  28
ATOM     28  O   UNL     1      -0.530  11.115  23.137  0.00  0.00    +0.000 OA
ATOM     29  H   UNL     1      -1.451  10.827  23.256  0.00  0.00    +0.000 HD
ENDBRANCH  24  28
ENDBRANCH  18  21
ENDBRANCH   5  17
TORSDOF 4
ENDMDL
MODEL 2
REMARK VINA RESULT:      -9.2      1.044      1.479
REMARK  Name = 
REMARK  5 active torsions:
REMARK  status: ('A' for Active; 'I' for Inactive)
REMARK    1  A    between atoms: C_1  and  C_2
REMARK    2  A    between atoms: C_2  and  C_3
REMARK    3  A    between atoms: C_7  and  N_8
REMARK    4  A    between atoms: C_9  and  C_11
REMARK    5  A    between atoms: C_14  and  O_15
REMARK                            x       y       z     vdW  Elec       q    Type
REMARK                         _______ _______ _______ _____ _____    ______ ____
ROOT
ATOM      1  C   UNL     1       5.075   5.399  17.155  0.00  0.00    +0.000 A 
ATOM      2  C   UNL     1       4.492   4.138  16.939  0.00  0.00    +0.000 A 
ATOM      3  C   UNL     1       3.171   3.891  17.295  0.00  0.00    +0.000 A 
ATOM      4  C   UNL     1       2.408   4.886  17.899  0.00  0.00    +0.000 A 
ATOM      5  C   UNL     1       2.957   6.138  18.165  0.00  0.00    +0.000 A 
ATOM      6  C   UNL     1       4.288   6.387  17.785  0.00  0.00    +0.000 A 
ENDROOT
BRANCH   1   8
ATOM      7  C   UNL     1       6.933   4.823  15.556  0.00  0.00    +0.000 C 
ATOM      8  C   UNL     1       6.535   5.651  16.774  0.00  0.00    +0.000 C 
ATOM      9  N   UNL     1       6.795   7.065  16.567  0.00  0.00    +0.000 N 
ATOM     10  C   UNL     1       7.485   7.633  17.607  0.00  0.00    +0.000 C 
ATOM     11  O   UNL     1       7.708   8.823  17.726  0.00  0.00    +0.000 OA
ATOM     12  N   UNL     1       7.893   6.652  18.438  0.00  0.00    +0.000 N 
ATOM     13  C   UNL     1       7.513   5.436  17.958  0.00  0.00    +0.000 C 
ATOM     14  O   UNL     1       7.875   4.365  18.427  0.00  0.00    +0.000 OA
ATOM     15  H   UNL     1       6.360   7.652  15.869  0.00  0.00    +0.000 HD
ATOM     16  H   UNL     1       8.503   6.801  19.223  0.00  0.00    +0.000 HD
ENDBRANCH   1   8
BRANCH   5  17
ATOM     17  N   UNL     1       2.258   7.171  18.828  0.00  0.00    +0.000 N 
ATOM     18  C   UNL     1       1.973   8.434  18.335  0.00  0.00    +0.000 C 
ATOM     19  O   UNL     1       2.359   8.892  17.265  0.00  0.00    +0.000 OA
ATOM     20  H   UNL     1       1.897   6.939  19.750  0.00  0.00    +0.000 HD
BRANCH  18  21
ATOM     21  C   UNL     1       1.104   9.313  19.179  0.00  0.00    +0.000 A 
ATOM     22  C   UNL     1       0.278  10.250  18.530  0.00  0.00    +0.000 A 
ATOM     23  C   UNL     1      -0.587  11.070  19.261  0.00  0.00    +0.000 A 
ATOM     24  C   UNL     1      -0.624  10.954  20.645  0.00  0.00    +0.000 A 
ATOM     25  C   UNL     1       0.189  10.042  21.306  0.00  0.00    +0.000 A 
ATOM     26  C   UNL     1       1.048   9.229  20.571  0.00  0.00    +0.000 A 
ATOM     27  F   UNL     1       1.815   8.355  21.240  0.00  0.00    +0.000 F 
BRANCH  24  28
ATOM     28  O   UNL     1      -1.458  11.724  21.400  0.00  0.00    +0.000 OA
ATOM     29  H   UNL     1      -1.230  11.611  22.339  0.00  0.00    +0.000 HD
ENDBRANCH  24  28
ENDBRANCH  18  21
ENDBRANCH   5  17
TORSDOF 4
ENDMDL
MODEL 3
REMARK VINA RESULT:      -8.9      1.425      2.138
REMARK  Name = 
REMARK  5 active torsions:
REMARK  status: ('A' for Active; 'I' for Inactive)
REMARK    1  A    between atoms: C_1  and  C_2
REMARK    2  A    between atoms: C_2  and  C_3
REMARK    3  A    between atoms: C_7  and  N_8
REMARK    4  A    between atoms: C_9  and  C_11
REMARK    5  A    between atoms: C_14  and  O_15
REMARK                            x       y       z     vdW  Elec       q    Type
REMARK                         _______ _______ _______ _____ _____    ______ ____
ROOT
ATOM      1  C   UNL     1       4.504   4.670  17.485  0.00  0.00    +0.000 A 
ATOM      2  C   UNL     1       3.719   3.546  17.174  0.00  0.00    +0.000 A 
ATOM      3  C   UNL     1       2.394   3.464  17.586  0.00  0.00    +0.000 A 
ATOM      4  C   UNL     1       1.829   4.488  18.341  0.00  0.00    +0.000 A 
ATOM      5  C   UNL     1       2.582   5.602  18.703  0.00  0.00    +0.000 A 
ATOM      6  C   UNL     1       3.915   5.687  18.266  0.00  0.00    +0.000 A 
ENDROOT
BRANCH   1   8
ATOM      7  C   UNL     1       6.910   4.598  18.228  0.00  0.00    +0.000 C 
ATOM      8  C   UNL     1       5.966   4.738  17.038  0.00  0.00    +0.000 C 
ATOM      9  N   UNL     1       6.255   3.752  16.010  0.00  0.00    +0.000 N 
ATOM     10  C   UNL     1       6.363   4.307  14.762  0.00  0.00    +0.000 C 
ATOM     11  O   UNL     1       6.473   3.677  13.726  0.00  0.00    +0.000 OA
ATOM     12  N   UNL     1       6.362   5.650  14.887  0.00  0.00    +0.000 N 
ATOM     13  C   UNL     1       6.284   6.003  16.200  0.00  0.00    +0.000 C 
ATOM     14  O   UNL     1       6.413   7.146  16.617  0.00  0.00    +0.000 OA
ATOM     15  H   UNL     1       6.180   2.749  16.113  0.00  0.00    +0.000 HD
ATOM     16  H   UNL     1       6.530   6.284  14.126  0.00  0.00    +0.000 HD
ENDBRANCH   1   8
BRANCH   5  17
ATOM     17  N   UNL     1       2.088   6.646  19.517  0.00  0.00    +0.000 N 
ATOM     18  C   UNL     1       1.877   7.964  19.144  0.00  0.00    +0.000 C 
ATOM     19  O   UNL     1       2.166   8.459  18.060  0.00  0.00    +0.000 OA
ATOM     20  H   UNL     1       1.828   6.382  20.463  0.00  0.00    +0.000 HD
BRANCH  18  21
ATOM     21  C   UNL     1       1.223   8.857  20.150  0.00  0.00    +0.000 A 
ATOM     22  C   UNL     1       1.233   8.457  21.500  0.00  0.00    +0.000 A 
ATOM     23  C   UNL     1       0.676   9.269  22.492  0.00  0.00    +0.000 A 
ATOM     24  C   UNL     1       0.103  10.483  22.133  0.00  0.00    +0.000 A 
ATOM     25  C   UNL     1       0.075  10.893  20.806  0.00  0.00    +0.000 A 
ATOM     26  C   UNL     1       0.632  10.079  19.823  0.00  0.00    +0.000 A 
ATOM     27  F   UNL     1       0.592  10.507  18.552  0.00  0.00    +0.000 F 
BRANCH  24  28
ATOM     28  O   UNL     1      -0.444  11.313  23.065  0.00  0.00    +0.000 OA
ATOM     29  H   UNL     1      -0.520  10.836  23.909  0.00  0.00    +0.000 HD
ENDBRANCH  24  28
ENDBRANCH  18  21
ENDBRANCH   5  17
TORSDOF 4
ENDMDL
MODEL 4
REMARK VINA RESULT:      -8.9      3.069      4.471
REMARK  Name = 
REMARK  5 active torsions:
REMARK  status: ('A' for Active; 'I' for Inactive)
REMARK    1  A    between atoms: C_1  and  C_2
REMARK    2  A    between atoms: C_2  and  C_3
REMARK    3  A    between atoms: C_7  and  N_8
REMARK    4  A    between atoms: C_9  and  C_11
REMARK    5  A    between atoms: C_14  and  O_15
REMARK                            x       y       z     vdW  Elec       q    Type
REMARK                         _______ _______ _______ _____ _____    ______ ____
ROOT
ATOM      1  C   UNL     1       3.128   4.520  18.540  0.00  0.00    +0.000 A 
ATOM      2  C   UNL     1       4.172   4.752  17.626  0.00  0.00    +0.000 A 
ATOM      3  C   UNL     1       4.484   6.042  17.210  0.00  0.00    +0.000 A 
ATOM      4  C   UNL     1       3.745   7.127  17.673  0.00  0.00    +0.000 A 
ATOM      5  C   UNL     1       2.679   6.939  18.550  0.00  0.00    +0.000 A 
ATOM      6  C   UNL     1       2.383   5.634  18.982  0.00  0.00    +0.000 A 
ENDROOT
BRANCH   1   8
ATOM      7  C   UNL     1       3.489   2.068  18.091  0.00  0.00    +0.000 C 
ATOM      8  C   UNL     1       2.787   3.094  18.975  0.00  0.00    +0.000 C 
ATOM      9  N   UNL     1       3.086   2.881  20.381  0.00  0.00    +0.000 N 
ATOM     10  C   UNL     1       1.960   2.860  21.163  0.00  0.00    +0.000 C 
ATOM     11  O   UNL     1       1.958   2.826  22.380  0.00  0.00    +0.000 OA
ATOM     12  N   UNL     1       0.878   2.851  20.358  0.00  0.00    +0.000 N 
ATOM     13  C   UNL     1       1.260   2.835  19.051  0.00  0.00    +0.000 C 
ATOM     14  O   UNL     1       0.494   2.675  18.110  0.00  0.00    +0.000 OA
ATOM     15  H   UNL     1       3.998   2.949  20.810  0.00  0.00    +0.000 HD
ATOM     16  H   UNL     1      -0.065   2.736  20.688  0.00  0.00    +0.000 HD
ENDBRANCH   1   8
BRANCH   5  17
ATOM     17  N   UNL     1       1.854   7.988  19.011  0.00  0.00    +0.000 N 
ATOM     18  C   UNL     1       1.569   9.174  18.353  0.00  0.00    +0.000 C 
ATOM     19  O   UNL     1       2.059   9.542  17.291  0.00  0.00    +0.000 OA
ATOM     20  H   UNL     1       1.396   7.829  19.904  0.00  0.00    +0.000 HD
BRANCH  18  21
ATOM     21  C   UNL     1       0.561  10.078  18.990  0.00  0.00    +0.000 A 
ATOM     22  C   UNL     1       0.912  10.723  20.191  0.00  0.00    +0.000 A 
ATOM     23  C   UNL     1       0.030  11.612  20.811  0.00  0.00    +0.000 A 
ATOM     24  C   UNL     1      -1.210  11.854  20.231  0.00  0.00    +0.000 A 
ATOM     25  C   UNL     1      -1.580  11.222  19.051  0.00  0.00    +0.000 A 
ATOM     26  C   UNL     1      -0.695  10.337  18.439  0.00  0.00    +0.000 A 
ATOM     27  F   UNL     1      -1.082   9.748  17.297  0.00  0.00    +0.000 F 
BRANCH  24  28
ATOM     28  O   UNL     1      -2.100  12.720  20.792  0.00  0.00    +0.000 OA
ATOM     29  H   UNL     1      -2.723  13.021  20.109  0.00  0.00    +0.000 HD
ENDBRANCH  24  28
ENDBRANCH  18  21
ENDBRANCH   5  17
TORSDOF 4
ENDMDL
MODEL 5
REMARK VINA RESULT:      -8.9      1.499      1.841
REMARK  Name = 
REMARK  5 active torsions:
REMARK  status: ('A' for Active; 'I' for Inactive)
REMARK    1  A    between atoms: C_1  and  C_2
REMARK    2  A    between atoms: C_2  and  C_3
REMARK    3  A    between atoms: C_7  and  N_8
REMARK    4  A    between atoms: C_9  and  C_11
REMARK    5  A    between atoms: C_14  and  O_15
REMARK                            x       y       z     vdW  Elec       q    Type
REMARK                         _______ _______ _______ _____ _____    ______ ____
ROOT
ATOM      1  C   UNL     1       5.058   5.584  17.230  0.00  0.00    +0.000 A 
ATOM      2  C   UNL     1       4.502   4.301  17.374  0.00  0.00    +0.000 A 
ATOM      3  C   UNL     1       3.170   4.135  17.736  0.00  0.00    +0.000 A 
ATOM      4  C   UNL     1       2.368   5.245  17.990  0.00  0.00    +0.000 A 
ATOM      5  C   UNL     1       2.888   6.533  17.895  0.00  0.00    +0.000 A 
ATOM      6  C   UNL     1       4.231   6.693  17.510  0.00  0.00    +0.000 A 
ENDROOT
BRANCH   1   8
ATOM      7  C   UNL     1       6.882   4.889  15.639  0.00  0.00    +0.000 C 
ATOM      8  C   UNL     1       6.530   5.750  16.848  0.00  0.00    +0.000 C 
ATOM      9  N   UNL     1       6.869   7.145  16.627  0.00  0.00    +0.000 N 
ATOM     10  C   UNL     1       7.589   7.684  17.661  0.00  0.00    +0.000 C 
ATOM     11  O   UNL     1       7.878   8.862  17.769  0.00  0.00    +0.000 OA
ATOM     12  N   UNL     1       7.941   6.691  18.503  0.00  0.00    +0.000 N 
ATOM     13  C   UNL     1       7.494   5.493  18.035  0.00  0.00    +0.000 C 
ATOM     14  O   UNL     1       7.795   4.408  18.516  0.00  0.00    +0.000 OA
ATOM     15  H   UNL     1       6.468   7.748  15.922  0.00  0.00    +0.000 HD
ATOM     16  H   UNL     1       8.558   6.813  19.287  0.00  0.00    +0.000 HD
ENDBRANCH   1   8
BRANCH   5  17
ATOM     17  N   UNL     1       2.146   7.697  18.196  0.00  0.00    +0.000 N 
ATOM     18  C   UNL     1       1.740   8.125  19.449  0.00  0.00    +0.000 C 
ATOM     19  O   UNL     1       1.888   7.512  20.501  0.00  0.00    +0.000 OA
ATOM     20  H   UNL     1       1.926   8.296  17.405  0.00  0.00    +0.000 HD
BRANCH  18  21
ATOM     21  C   UNL     1       1.073   9.462  19.527  0.00  0.00    +0.000 A 
ATOM     22  C   UNL     1       1.552  10.492  18.695  0.00  0.00    +0.000 A 
ATOM     23  C   UNL     1       0.944  11.751  18.692  0.00  0.00    +0.000 A 
ATOM     24  C   UNL     1      -0.144  11.982  19.525  0.00  0.00    +0.000 A 
ATOM     25  C   UNL     1      -0.628  10.982  20.359  0.00  0.00    +0.000 A 
ATOM     26  C   UNL     1      -0.016   9.730  20.357  0.00  0.00    +0.000 A 
ATOM     27  F   UNL     1      -0.511   8.786  21.172  0.00  0.00    +0.000 F 
BRANCH  24  28
ATOM     28  O   UNL     1      -0.777  13.189  19.549  0.00  0.00    +0.000 OA
ATOM     29  H   UNL     1      -1.118  13.350  20.446  0.00  0.00    +0.000 HD
ENDBRANCH  24  28
ENDBRANCH  18  21
ENDBRANCH   5  17
TORSDOF 4
ENDMDL
MODEL 6
REMARK VINA RESULT:      -8.8      1.673      2.000
REMARK  Name = 
REMARK  5 active torsions:
REMARK  status: ('A' for Active; 'I' for Inactive)
REMARK    1  A    between atoms: C_1  and  C_2
REMARK    2  A    between atoms: C_2  and  C_3
REMARK    3  A    between atoms: C_7  and  N_8
REMARK    4  A    between atoms: C_9  and  C_11
REMARK    5  A    between atoms: C_14  and  O_15
REMARK                            x       y       z     vdW  Elec       q    Type
REMARK                         _______ _______ _______ _____ _____    ______ ____
ROOT
ATOM      1  C   UNL     1       4.976   5.845  17.318  0.00  0.00    +0.000 A 
ATOM      2  C   UNL     1       4.450   4.593  17.685  0.00  0.00    +0.000 A 
ATOM      3  C   UNL     1       3.131   4.468  18.109  0.00  0.00    +0.000 A 
ATOM      4  C   UNL     1       2.315   5.592  18.203  0.00  0.00    +0.000 A 
ATOM      5  C   UNL     1       2.806   6.856  17.884  0.00  0.00    +0.000 A 
ATOM      6  C   UNL     1       4.135   6.971  17.438  0.00  0.00    +0.000 A 
ENDROOT
BRANCH   1   8
ATOM      7  C   UNL     1       6.687   5.160  15.601  0.00  0.00    +0.000 C 
ATOM      8  C   UNL     1       6.433   5.968  16.870  0.00  0.00    +0.000 C 
ATOM      9  N   UNL     1       6.823   7.358  16.704  0.00  0.00    +0.000 N 
ATOM     10  C   UNL     1       7.616   7.809  17.726  0.00  0.00    +0.000 C 
ATOM     11  O   UNL     1       7.963   8.966  17.880  0.00  0.00    +0.000 OA
ATOM     12  N   UNL     1       7.965   6.758  18.497  0.00  0.00    +0.000 N 
ATOM     13  C   UNL     1       7.442   5.607  17.991  0.00  0.00    +0.000 C 
ATOM     14  O   UNL     1       7.717   4.486  18.398  0.00  0.00    +0.000 OA
ATOM     15  H   UNL     1       6.416   8.014  16.053  0.00  0.00    +0.000 HD
ATOM     16  H   UNL     1       8.624   6.812  19.253  0.00  0.00    +0.000 HD
ENDBRANCH   1   8
BRANCH   5  17
ATOM     17  N   UNL     1       2.050   8.042  18.014  0.00  0.00    +0.000 N 
ATOM     18  C   UNL     1       1.633   8.638  19.193  0.00  0.00    +0.000 C 
ATOM     19  O   UNL     1       1.784   8.184  20.322  0.00  0.00    +0.000 OA
ATOM     20  H   UNL     1       1.826   8.519  17.146  0.00  0.00    +0.000 HD
BRANCH  18  21
ATOM     21  C   UNL     1       0.950   9.965  19.078  0.00  0.00    +0.000 A 
ATOM     22  C   UNL     1      -0.359  10.084  19.581  0.00  0.00    +0.000 A 
ATOM     23  C   UNL     1      -1.034  11.307  19.541  0.00  0.00    +0.000 A 
ATOM     24  C   UNL     1      -0.399  12.415  18.992  0.00  0.00    +0.000 A 
ATOM     25  C   UNL     1       0.890  12.318  18.482  0.00  0.00    +0.000 A 
ATOM     26  C   UNL     1       1.556  11.095  18.526  0.00  0.00    +0.000 A 
ATOM     27  F   UNL     1       2.801  11.037  18.030  0.00  0.00    +0.000 F 
BRANCH  24  28
ATOM     28  O   UNL     1      -1.011  13.631  18.940  0.00  0.00    +0.000 OA
ATOM     29  H   UNL     1      -1.246  13.907  19.842  0.00  0.00    +0.000 HD
ENDBRANCH  24  28
ENDBRANCH  18  21
ENDBRANCH   5  17
TORSDOF 4
ENDMDL
MODEL 7
REMARK VINA RESULT:      -8.8      3.223      4.562
REMARK  Name = 
REMARK  5 active torsions:
REMARK  status: ('A' for Active; 'I' for Inactive)
REMARK    1  A    between atoms: C_1  and  C_2
REMARK    2  A    between atoms: C_2  and  C_3
REMARK    3  A    between atoms: C_7  and  N_8
REMARK    4  A    between atoms: C_9  and  C_11
REMARK    5  A    between atoms: C_14  and  O_15
REMARK                            x       y       z     vdW  Elec       q    Type
REMARK                         _______ _______ _______ _____ _____    ______ ____
ROOT
ATOM      1  C   UNL     1       2.909   4.584  18.654  0.00  0.00    +0.000 A 
ATOM      2  C   UNL     1       3.671   4.894  17.513  0.00  0.00    +0.000 A 
ATOM      3  C   UNL     1       3.943   6.214  17.172  0.00  0.00    +0.000 A 
ATOM      4  C   UNL     1       3.438   7.257  17.945  0.00  0.00    +0.000 A 
ATOM      5  C   UNL     1       2.648   6.995  19.062  0.00  0.00    +0.000 A 
ATOM      6  C   UNL     1       2.394   5.658  19.411  0.00  0.00    +0.000 A 
ENDROOT
BRANCH   1   8
ATOM      7  C   UNL     1       3.337   2.172  18.069  0.00  0.00    +0.000 C 
ATOM      8  C   UNL     1       2.605   3.127  19.006  0.00  0.00    +0.000 C 
ATOM      9  N   UNL     1       2.905   2.842  20.399  0.00  0.00    +0.000 N 
ATOM     10  C   UNL     1       1.777   2.747  21.173  0.00  0.00    +0.000 C 
ATOM     11  O   UNL     1       1.772   2.644  22.386  0.00  0.00    +0.000 OA
ATOM     12  N   UNL     1       0.698   2.755  20.364  0.00  0.00    +0.000 N 
ATOM     13  C   UNL     1       1.085   2.823  19.060  0.00  0.00    +0.000 C 
ATOM     14  O   UNL     1       0.327   2.696  18.108  0.00  0.00    +0.000 OA
ATOM     15  H   UNL     1       3.813   2.910  20.836  0.00  0.00    +0.000 HD
ATOM     16  H   UNL     1      -0.242   2.596  20.682  0.00  0.00    +0.000 HD
ENDBRANCH   1   8
BRANCH   5  17
ATOM     17  N   UNL     1       2.058   8.006  19.853  0.00  0.00    +0.000 N 
ATOM     18  C   UNL     1       1.219   9.020  19.419  0.00  0.00    +0.000 C 
ATOM     19  O   UNL     1       0.919   9.255  18.253  0.00  0.00    +0.000 OA
ATOM     20  H   UNL     1       2.245   7.951  20.850  0.00  0.00    +0.000 HD
BRANCH  18  21
ATOM     21  C   UNL     1       0.615   9.897  20.469  0.00  0.00    +0.000 A 
ATOM     22  C   UNL     1       0.838  11.285  20.385  0.00  0.00    +0.000 A 
ATOM     23  C   UNL     1       0.265  12.160  21.311  0.00  0.00    +0.000 A 
ATOM     24  C   UNL     1      -0.531  11.647  22.329  0.00  0.00    +0.000 A 
ATOM     25  C   UNL     1      -0.757  10.281  22.435  0.00  0.00    +0.000 A 
ATOM     26  C   UNL     1      -0.183   9.414  21.508  0.00  0.00    +0.000 A 
ATOM     27  F   UNL     1      -0.426   8.101  21.637  0.00  0.00    +0.000 F 
BRANCH  24  28
ATOM     28  O   UNL     1      -1.119  12.461  23.250  0.00  0.00    +0.000 OA
ATOM     29  H   UNL     1      -0.649  13.312  23.266  0.00  0.00    +0.000 HD
ENDBRANCH  24  28
ENDBRANCH  18  21
ENDBRANCH   5  17
TORSDOF 4
ENDMDL
MODEL 8
REMARK VINA RESULT:      -8.7      3.123      4.578
REMARK  Name = 
REMARK  5 active torsions:
REMARK  status: ('A' for Active; 'I' for Inactive)
REMARK    1  A    between atoms: C_1  and  C_2
REMARK    2  A    between atoms: C_2  and  C_3
REMARK    3  A    between atoms: C_7  and  N_8
REMARK    4  A    between atoms: C_9  and  C_11
REMARK    5  A    between atoms: C_14  and  O_15
REMARK                            x       y       z     vdW  Elec       q    Type
REMARK                         _______ _______ _______ _____ _____    ______ ____
ROOT
ATOM      1  C   UNL     1       3.225   4.425  18.422  0.00  0.00    +0.000 A 
ATOM      2  C   UNL     1       4.454   4.510  17.746  0.00  0.00    +0.000 A 
ATOM      3  C   UNL     1       4.923   5.728  17.266  0.00  0.00    +0.000 A 
ATOM      4  C   UNL     1       4.164   6.885  17.424  0.00  0.00    +0.000 A 
ATOM      5  C   UNL     1       2.923   6.838  18.055  0.00  0.00    +0.000 A 
ATOM      6  C   UNL     1       2.465   5.607  18.555  0.00  0.00    +0.000 A 
ENDROOT
BRANCH   1   8
ATOM      7  C   UNL     1       3.238   1.932  18.065  0.00  0.00    +0.000 C 
ATOM      8  C   UNL     1       2.715   3.075  18.929  0.00  0.00    +0.000 C 
ATOM      9  N   UNL     1       3.040   2.876  20.332  0.00  0.00    +0.000 N 
ATOM     10  C   UNL     1       1.955   3.036  21.153  0.00  0.00    +0.000 C 
ATOM     11  O   UNL     1       1.998   3.048  22.370  0.00  0.00    +0.000 OA
ATOM     12  N   UNL     1       0.849   3.142  20.389  0.00  0.00    +0.000 N 
ATOM     13  C   UNL     1       1.172   3.026  19.071  0.00  0.00    +0.000 C 
ATOM     14  O   UNL     1       0.354   2.935  18.165  0.00  0.00    +0.000 OA
ATOM     15  H   UNL     1       3.970   2.837  20.725  0.00  0.00    +0.000 HD
ATOM     16  H   UNL     1      -0.086   3.167  20.756  0.00  0.00    +0.000 HD
ENDBRANCH   1   8
BRANCH   5  17
ATOM     17  N   UNL     1       2.077   7.961  18.195  0.00  0.00    +0.000 N 
ATOM     18  C   UNL     1       1.666   8.551  19.379  0.00  0.00    +0.000 C 
ATOM     19  O   UNL     1       1.904   8.139  20.509  0.00  0.00    +0.000 OA
ATOM     20  H   UNL     1       1.776   8.397  17.328  0.00  0.00    +0.000 HD
BRANCH  18  21
ATOM     21  C   UNL     1       0.871   9.814  19.267  0.00  0.00    +0.000 A 
ATOM     22  C   UNL     1      -0.395   9.858  19.882  0.00  0.00    +0.000 A 
ATOM     23  C   UNL     1      -1.167  11.023  19.849  0.00  0.00    +0.000 A 
ATOM     24  C   UNL     1      -0.673  12.147  19.197  0.00  0.00    +0.000 A 
ATOM     25  C   UNL     1       0.570  12.122  18.577  0.00  0.00    +0.000 A 
ATOM     26  C   UNL     1       1.333  10.957  18.614  0.00  0.00    +0.000 A 
ATOM     27  F   UNL     1       2.531  10.969  18.009  0.00  0.00    +0.000 F 
BRANCH  24  28
ATOM     28  O   UNL     1      -1.384  13.309  19.147  0.00  0.00    +0.000 OA
ATOM     29  H   UNL     1      -0.798  14.026  18.849  0.00  0.00    +0.000 HD
ENDBRANCH  24  28
ENDBRANCH  18  21
ENDBRANCH   5  17
TORSDOF 4
ENDMDL
MODEL 9
REMARK VINA RESULT:      -8.7      2.903      4.407
REMARK  Name = 
REMARK  5 active torsions:
REMARK  status: ('A' for Active; 'I' for Inactive)
REMARK    1  A    between atoms: C_1  and  C_2
REMARK    2  A    between atoms: C_2  and  C_3
REMARK    3  A    between atoms: C_7  and  N_8
REMARK    4  A    between atoms: C_9  and  C_11
REMARK    5  A    between atoms: C_14  and  O_15
REMARK                            x       y       z     vdW  Elec       q    Type
REMARK                         _______ _______ _______ _____ _____    ______ ____
ROOT
ATOM      1  C   UNL     1       3.139   4.308  18.492  0.00  0.00    +0.000 A 
ATOM      2  C   UNL     1       4.047   4.420  17.425  0.00  0.00    +0.000 A 
ATOM      3  C   UNL     1       4.449   5.666  16.956  0.00  0.00    +0.000 A 
ATOM      4  C   UNL     1       3.934   6.829  17.522  0.00  0.00    +0.000 A 
ATOM      5  C   UNL     1       3.004   6.763  18.557  0.00  0.00    +0.000 A 
ATOM      6  C   UNL     1       2.617   5.500  19.038  0.00  0.00    +0.000 A 
ENDROOT
BRANCH   1   8
ATOM      7  C   UNL     1       3.312   1.820  18.142  0.00  0.00    +0.000 C 
ATOM      8  C   UNL     1       2.693   2.930  18.985  0.00  0.00    +0.000 C 
ATOM      9  N   UNL     1       2.982   2.752  20.399  0.00  0.00    +0.000 N 
ATOM     10  C   UNL     1       1.862   2.847  21.182  0.00  0.00    +0.000 C 
ATOM     11  O   UNL     1       1.863   2.862  22.400  0.00  0.00    +0.000 OA
ATOM     12  N   UNL     1       0.778   2.887  20.380  0.00  0.00    +0.000 N 
ATOM     13  C   UNL     1       1.151   2.790  19.075  0.00  0.00    +0.000 C 
ATOM     14  O   UNL     1       0.371   2.650  18.142  0.00  0.00    +0.000 OA
ATOM     15  H   UNL     1       3.899   2.768  20.823  0.00  0.00    +0.000 HD
ATOM     16  H   UNL     1      -0.169   2.857  20.716  0.00  0.00    +0.000 HD
ENDBRANCH   1   8
BRANCH   5  17
ATOM     17  N   UNL     1       2.398   7.902  19.134  0.00  0.00    +0.000 N 
ATOM     18  C   UNL     1       1.743   8.925  18.468  0.00  0.00    +0.000 C 
ATOM     19  O   UNL     1       1.654   9.049  17.251  0.00  0.00    +0.000 OA
ATOM     20  H   UNL     1       2.420   7.945  20.149  0.00  0.00    +0.000 HD
BRANCH  18  21
ATOM     21  C   UNL     1       1.070   9.961  19.311  0.00  0.00    +0.000 A 
ATOM     22  C   UNL     1       0.204   9.527  20.332  0.00  0.00    +0.000 A 
ATOM     23  C   UNL     1      -0.421  10.446  21.180  0.00  0.00    +0.000 A 
ATOM     24  C   UNL     1      -0.183  11.804  21.004  0.00  0.00    +0.000 A 
ATOM     25  C   UNL     1       0.662  12.254  19.998  0.00  0.00    +0.000 A 
ATOM     26  C   UNL     1       1.281  11.332  19.157  0.00  0.00    +0.000 A 
ATOM     27  F   UNL     1       2.095  11.801  18.198  0.00  0.00    +0.000 F 
BRANCH  24  28
ATOM     28  O   UNL     1      -0.761  12.737  21.812  0.00  0.00    +0.000 OA
ATOM     29  H   UNL     1      -0.353  13.603  21.638  0.00  0.00    +0.000 HD
ENDBRANCH  24  28
ENDBRANCH  18  21
ENDBRANCH   5  17
TORSDOF 4
ENDMDL
