MODEL 1
REMARK VINA RESULT:      -9.3      0.000      0.000
REMARK  Name = 
REMARK  5 active torsions:
REMARK  status: ('A' for Active; 'I' for Inactive)
REMARK    1  A    between atoms: C_4  and  N_5
REMARK    2  A    between atoms: N_10  and  C_11
REMARK    3  A    between atoms: C_11  and  C_12
REMARK    4  A    between atoms: C_17  and  C_18
REMARK    5  A    between atoms: C_18  and  N_19
REMARK                            x       y       z     vdW  Elec       q    Type
REMARK                         _______ _______ _______ _____ _____    ______ ____
ROOT
ATOM      1  N   UNL     1      -0.526  11.068  22.483  0.00  0.00    +0.000 N 
ATOM      2  N   UNL     1      -0.258  10.251  23.548  0.00  0.00    +0.000 NA
ATOM      3  C   UNL     1       0.317   9.180  22.995  0.00  0.00    +0.000 A 
ATOM      4  C   UNL     1       0.533   9.317  21.612  0.00  0.00    +0.000 A 
ATOM      5  C   UNL     1       1.185   8.607  20.591  0.00  0.00    +0.000 A 
ATOM      6  N   UNL     1       1.848   7.413  20.842  0.00  0.00    +0.000 N 
ATOM      7  N   UNL     1       1.222   9.173  19.364  0.00  0.00    +0.000 NA
ATOM      8  C   UNL     1       0.671  10.384  19.185  0.00  0.00    +0.000 A 
ATOM      9  N   UNL     1       0.024  11.138  20.086  0.00  0.00    +0.000 NA
ATOM     10  C   UNL     1      -0.015  10.550  21.299  0.00  0.00    +0.000 A 
ATOM     11  H   UNL     1       1.389   6.806  21.508  0.00  0.00    +0.000 HD
ENDROOT
BRANCH   1  15
ATOM     12  C   UNL     1      -2.643  14.672  23.107  0.00  0.00    +0.000 A 
ATOM     13  C   UNL     1      -1.321  14.710  22.662  0.00  0.00    +0.000 A 
ATOM     14  C   UNL     1      -0.615  13.518  22.467  0.00  0.00    +0.000 A 
ATOM     15  C   UNL     1      -1.240  12.285  22.678  0.00  0.00    +0.000 A 
ATOM     16  C   UNL     1      -2.577  12.264  23.103  0.00  0.00    +0.000 A 
ATOM     17  C   UNL     1      -3.264  13.450  23.338  0.00  0.00    +0.000 A 
ENDBRANCH   1  15
BRANCH   6  18
ATOM     18  C   UNL     1       2.548   6.754  19.762  0.00  0.00    +0.000 C 
BRANCH  18  19
ATOM     19  C   UNL     1       2.550   5.226  19.760  0.00  0.00    +0.000 A 
ATOM     20  C   UNL     1       1.268   4.660  20.002  0.00  0.00    +0.000 A 
ATOM     21  C   UNL     1       1.063   3.285  20.125  0.00  0.00    +0.000 A 
ATOM     22  C   UNL     1       2.148   2.429  20.077  0.00  0.00    +0.000 A 
ATOM     23  C   UNL     1       3.416   2.950  19.848  0.00  0.00    +0.000 A 
ATOM     24  C   UNL     1       3.637   4.330  19.605  0.00  0.00    +0.000 A 
BRANCH  24  25
ATOM     25  C   UNL     1       5.026   4.662  19.064  0.00  0.00    +0.000 C 
BRANCH  25  26
ATOM     26  N   UNL     1       4.993   5.187  17.691  0.00  0.00    +0.000 NA
ATOM     27  C   UNL     1       5.509   4.322  16.617  0.00  0.00    +0.000 C 
ATOM     28  C   UNL     1       7.004   4.472  16.296  0.00  0.00    +0.000 C 
ATOM     29  O   UNL     1       7.333   5.832  16.013  0.00  0.00    +0.000 OA
ATOM     30  C   UNL     1       7.009   6.671  17.124  0.00  0.00    +0.000 C 
ATOM     31  C   UNL     1       5.538   6.547  17.561  0.00  0.00    +0.000 C 
ENDBRANCH  25  26
ENDBRANCH  24  25
ENDBRANCH  18  19
ENDBRANCH   6  18
TORSDOF 5
ENDMDL
MODEL 2
REMARK VINA RESULT:      -9.2      0.781      1.385
REMARK  Name = 
REMARK  5 active torsions:
REMARK  status: ('A' for Active; 'I' for Inactive)
REMARK    1  A    between atoms: C_4  and  N_5
REMARK    2  A    between atoms: N_10  and  C_11
REMARK    3  A    between atoms: C_11  and  C_12
REMARK    4  A    between atoms: C_17  and  C_18
REMARK    5  A    between atoms: C_18  and  N_19
REMARK                            x       y       z     vdW  Elec       q    Type
REMARK                         _______ _______ _______ _____ _____    ______ ____
ROOT
ATOM      1  N   UNL     1      -0.450  11.240  22.096  0.00  0.00    +0.000 N 
ATOM      2  N   UNL     1      -0.182  10.488  23.208  0.00  0.00    +0.000 NA
ATOM      3  C   UNL     1       0.399   9.389  22.721  0.00  0.00    +0.000 A 
ATOM      4  C   UNL     1       0.618   9.446  21.333  0.00  0.00    +0.000 A 
ATOM      5  C   UNL     1       1.275   8.680  20.357  0.00  0.00    +0.000 A 
ATOM      6  N   UNL     1       1.942   7.506  20.679  0.00  0.00    +0.000 N 
ATOM      7  N   UNL     1       1.313   9.173  19.098  0.00  0.00    +0.000 NA
ATOM      8  C   UNL     1       0.758  10.369  18.847  0.00  0.00    +0.000 A 
ATOM      9  N   UNL     1       0.105  11.172  19.700  0.00  0.00    +0.000 NA
ATOM     10  C   UNL     1       0.066  10.656  20.946  0.00  0.00    +0.000 A 
ATOM     11  H   UNL     1       1.485   6.937  21.379  0.00  0.00    +0.000 HD
ENDROOT
BRANCH   1  15
ATOM     12  C   UNL     1      -2.565  14.885  22.417  0.00  0.00    +0.000 A 
ATOM     13  C   UNL     1      -3.236  13.723  22.032  0.00  0.00    +0.000 A 
ATOM     14  C   UNL     1      -2.535  12.519  21.913  0.00  0.00    +0.000 A 
ATOM     15  C   UNL     1      -1.171  12.464  22.217  0.00  0.00    +0.000 A 
ATOM     16  C   UNL     1      -0.516  13.636  22.624  0.00  0.00    +0.000 A 
ATOM     17  C   UNL     1      -1.205  14.842  22.700  0.00  0.00    +0.000 A 
ENDBRANCH   1  15
BRANCH   6  18
ATOM     18  C   UNL     1       2.649   6.787  19.641  0.00  0.00    +0.000 C 
BRANCH  18  19
ATOM     19  C   UNL     1       2.352   5.295  19.499  0.00  0.00    +0.000 A 
ATOM     20  C   UNL     1       1.414   4.813  20.453  0.00  0.00    +0.000 A 
ATOM     21  C   UNL     1       1.066   3.464  20.552  0.00  0.00    +0.000 A 
ATOM     22  C   UNL     1       1.698   2.539  19.743  0.00  0.00    +0.000 A 
ATOM     23  C   UNL     1       2.625   2.976  18.804  0.00  0.00    +0.000 A 
ATOM     24  C   UNL     1       2.912   4.350  18.602  0.00  0.00    +0.000 A 
BRANCH  24  25
ATOM     25  C   UNL     1       3.701   4.652  17.331  0.00  0.00    +0.000 C 
BRANCH  25  26
ATOM     26  N   UNL     1       5.139   4.383  17.474  0.00  0.00    +0.000 NA
ATOM     27  C   UNL     1       5.944   5.357  18.230  0.00  0.00    +0.000 C 
ATOM     28  C   UNL     1       6.566   6.495  17.406  0.00  0.00    +0.000 C 
ATOM     29  O   UNL     1       7.336   5.979  16.320  0.00  0.00    +0.000 OA
ATOM     30  C   UNL     1       6.523   5.174  15.463  0.00  0.00    +0.000 C 
ATOM     31  C   UNL     1       5.807   4.036  16.211  0.00  0.00    +0.000 C 
ENDBRANCH  25  26
ENDBRANCH  24  25
ENDBRANCH  18  19
ENDBRANCH   6  18
TORSDOF 5
ENDMDL
MODEL 3
REMARK VINA RESULT:      -9.2      0.832      1.240
REMARK  Name = 
REMARK  5 active torsions:
REMARK  status: ('A' for Active; 'I' for Inactive)
REMARK    1  A    between atoms: C_4  and  N_5
REMARK    2  A    between atoms: N_10  and  C_11
REMARK    3  A    between atoms: C_11  and  C_12
REMARK    4  A    between atoms: C_17  and  C_18
REMARK    5  A    between atoms: C_18  and  N_19
REMARK                            x       y       z     vdW  Elec       q    Type
REMARK                         _______ _______ _______ _____ _____    ______ ____
ROOT
ATOM      1  N   UNL     1      -0.611  11.186  22.413  0.00  0.00    +0.000 N 
ATOM      2  N   UNL     1      -0.291  10.403  23.489  0.00  0.00    +0.000 NA
ATOM      3  C   UNL     1       0.287   9.329  22.946  0.00  0.00    +0.000 A 
ATOM      4  C   UNL     1       0.452   9.433  21.553  0.00  0.00    +0.000 A 
ATOM      5  C   UNL     1       1.083   8.708  20.529  0.00  0.00    +0.000 A 
ATOM      6  N   UNL     1       1.778   7.535  20.788  0.00  0.00    +0.000 N 
ATOM      7  N   UNL     1       1.066   9.241  19.286  0.00  0.00    +0.000 NA
ATOM      8  C   UNL     1       0.485  10.436  19.094  0.00  0.00    +0.000 A 
ATOM      9  N   UNL     1      -0.146  11.201  19.997  0.00  0.00    +0.000 NA
ATOM     10  C   UNL     1      -0.131  10.646  21.227  0.00  0.00    +0.000 A 
ATOM     11  H   UNL     1       1.355   6.937  21.486  0.00  0.00    +0.000 HD
ENDROOT
BRANCH   1  15
ATOM     12  C   UNL     1      -2.775  14.780  22.924  0.00  0.00    +0.000 A 
ATOM     13  C   UNL     1      -3.451  13.559  22.896  0.00  0.00    +0.000 A 
ATOM     14  C   UNL     1      -2.738  12.370  22.714  0.00  0.00    +0.000 A 
ATOM     15  C   UNL     1      -1.344  12.394  22.600  0.00  0.00    +0.000 A 
ATOM     16  C   UNL     1      -0.678  13.628  22.652  0.00  0.00    +0.000 A 
ATOM     17  C   UNL     1      -1.392  14.813  22.790  0.00  0.00    +0.000 A 
ENDBRANCH   1  15
BRANCH   6  18
ATOM     18  C   UNL     1       2.455   6.860  19.702  0.00  0.00    +0.000 C 
BRANCH  18  19
ATOM     19  C   UNL     1       2.626   5.346  19.819  0.00  0.00    +0.000 A 
ATOM     20  C   UNL     1       2.046   4.802  20.998  0.00  0.00    +0.000 A 
ATOM     21  C   UNL     1       2.162   3.454  21.341  0.00  0.00    +0.000 A 
ATOM     22  C   UNL     1       2.921   2.614  20.547  0.00  0.00    +0.000 A 
ATOM     23  C   UNL     1       3.506   3.115  19.390  0.00  0.00    +0.000 A 
ATOM     24  C   UNL     1       3.310   4.452  18.958  0.00  0.00    +0.000 A 
BRANCH  24  25
ATOM     25  C   UNL     1       3.758   4.725  17.524  0.00  0.00    +0.000 C 
BRANCH  25  26
ATOM     26  N   UNL     1       4.847   5.710  17.444  0.00  0.00    +0.000 NA
ATOM     27  C   UNL     1       5.289   6.130  16.104  0.00  0.00    +0.000 C 
ATOM     28  C   UNL     1       6.423   5.302  15.482  0.00  0.00    +0.000 C 
ATOM     29  O   UNL     1       7.549   5.237  16.357  0.00  0.00    +0.000 OA
ATOM     30  C   UNL     1       7.181   4.655  17.610  0.00  0.00    +0.000 C 
ATOM     31  C   UNL     1       6.006   5.384  18.287  0.00  0.00    +0.000 C 
ENDBRANCH  25  26
ENDBRANCH  24  25
ENDBRANCH  18  19
ENDBRANCH   6  18
TORSDOF 5
ENDMDL
MODEL 4
REMARK VINA RESULT:      -9.1      1.023      1.337
REMARK  Name = 
REMARK  5 active torsions:
REMARK  status: ('A' for Active; 'I' for Inactive)
REMARK    1  A    between atoms: C_4  and  N_5
REMARK    2  A    between atoms: N_10  and  C_11
REMARK    3  A    between atoms: C_11  and  C_12
REMARK    4  A    between atoms: C_17  and  C_18
REMARK    5  A    between atoms: C_18  and  N_19
REMARK                            x       y       z     vdW  Elec       q    Type
REMARK                         _______ _______ _______ _____ _____    ______ ____
ROOT
ATOM      1  N   UNL     1      -0.009  10.946  21.832  0.00  0.00    +0.000 N 
ATOM      2  N   UNL     1       0.218  10.187  22.949  0.00  0.00    +0.000 NA
ATOM      3  C   UNL     1       0.755   9.062  22.470  0.00  0.00    +0.000 A 
ATOM      4  C   UNL     1       0.986   9.104  21.083  0.00  0.00    +0.000 A 
ATOM      5  C   UNL     1       1.617   8.306  20.115  0.00  0.00    +0.000 A 
ATOM      6  N   UNL     1       2.231   7.106  20.447  0.00  0.00    +0.000 N 
ATOM      7  N   UNL     1       1.686   8.792  18.855  0.00  0.00    +0.000 NA
ATOM      8  C   UNL     1       1.185  10.011  18.595  0.00  0.00    +0.000 A 
ATOM      9  N   UNL     1       0.561  10.844  19.441  0.00  0.00    +0.000 NA
ATOM     10  C   UNL     1       0.490  10.335  20.689  0.00  0.00    +0.000 A 
ATOM     11  H   UNL     1       1.743   6.560  21.145  0.00  0.00    +0.000 HD
ENDROOT
BRANCH   1  15
ATOM     12  C   UNL     1      -1.994  14.658  22.208  0.00  0.00    +0.000 A 
ATOM     13  C   UNL     1      -0.619  14.625  21.970  0.00  0.00    +0.000 A 
ATOM     14  C   UNL     1       0.041  13.398  21.858  0.00  0.00    +0.000 A 
ATOM     15  C   UNL     1      -0.677  12.200  21.943  0.00  0.00    +0.000 A 
ATOM     16  C   UNL     1      -2.062  12.251  22.161  0.00  0.00    +0.000 A 
ATOM     17  C   UNL     1      -2.710  13.471  22.315  0.00  0.00    +0.000 A 
ENDBRANCH   1  15
BRANCH   6  18
ATOM     18  C   UNL     1       2.913   6.354  19.416  0.00  0.00    +0.000 C 
BRANCH  18  19
ATOM     19  C   UNL     1       2.405   4.941  19.131  0.00  0.00    +0.000 A 
ATOM     20  C   UNL     1       1.376   4.521  20.019  0.00  0.00    +0.000 A 
ATOM     21  C   UNL     1       0.831   3.236  19.986  0.00  0.00    +0.000 A 
ATOM     22  C   UNL     1       1.346   2.302  19.107  0.00  0.00    +0.000 A 
ATOM     23  C   UNL     1       2.357   2.678  18.230  0.00  0.00    +0.000 A 
ATOM     24  C   UNL     1       2.849   4.007  18.162  0.00  0.00    +0.000 A 
BRANCH  24  25
ATOM     25  C   UNL     1       3.714   4.299  16.939  0.00  0.00    +0.000 C 
BRANCH  25  26
ATOM     26  N   UNL     1       5.108   3.862  17.109  0.00  0.00    +0.000 NA
ATOM     27  C   UNL     1       5.929   4.569  18.106  0.00  0.00    +0.000 C 
ATOM     28  C   UNL     1       6.710   5.787  17.590  0.00  0.00    +0.000 C 
ATOM     29  O   UNL     1       7.519   5.437  16.467  0.00  0.00    +0.000 OA
ATOM     30  C   UNL     1       6.714   4.916  15.407  0.00  0.00    +0.000 C 
ATOM     31  C   UNL     1       5.845   3.724  15.844  0.00  0.00    +0.000 C 
ENDBRANCH  25  26
ENDBRANCH  24  25
ENDBRANCH  18  19
ENDBRANCH   6  18
TORSDOF 5
ENDMDL
MODEL 5
REMARK VINA RESULT:      -8.8      1.708      2.211
REMARK  Name = 
REMARK  5 active torsions:
REMARK  status: ('A' for Active; 'I' for Inactive)
REMARK    1  A    between atoms: C_4  and  N_5
REMARK    2  A    between atoms: N_10  and  C_11
REMARK    3  A    between atoms: C_11  and  C_12
REMARK    4  A    between atoms: C_17  and  C_18
REMARK    5  A    between atoms: C_18  and  N_19
REMARK                            x       y       z     vdW  Elec       q    Type
REMARK                         _______ _______ _______ _____ _____    ______ ____
ROOT
ATOM      1  N   UNL     1       0.355  10.516  20.624  0.00  0.00    +0.000 N 
ATOM      2  N   UNL     1       0.382   9.971  21.880  0.00  0.00    +0.000 NA
ATOM      3  C   UNL     1       0.975   8.787  21.704  0.00  0.00    +0.000 A 
ATOM      4  C   UNL     1       1.436   8.587  20.390  0.00  0.00    +0.000 A 
ATOM      5  C   UNL     1       2.208   7.641  19.697  0.00  0.00    +0.000 A 
ATOM      6  N   UNL     1       2.741   6.529  20.334  0.00  0.00    +0.000 N 
ATOM      7  N   UNL     1       2.493   7.898  18.401  0.00  0.00    +0.000 NA
ATOM      8  C   UNL     1       2.059   9.043  17.849  0.00  0.00    +0.000 A 
ATOM      9  N   UNL     1       1.314  10.002  18.418  0.00  0.00    +0.000 NA
ATOM     10  C   UNL     1       1.029   9.721  19.707  0.00  0.00    +0.000 A 
ATOM     11  H   UNL     1       2.137   6.107  21.026  0.00  0.00    +0.000 HD
ENDROOT
BRANCH   1  15
ATOM     12  C   UNL     1      -1.611  14.205  20.002  0.00  0.00    +0.000 A 
ATOM     13  C   UNL     1      -0.220  14.134  19.912  0.00  0.00    +0.000 A 
ATOM     14  C   UNL     1       0.433  12.917  20.130  0.00  0.00    +0.000 A 
ATOM     15  C   UNL     1      -0.305  11.759  20.399  0.00  0.00    +0.000 A 
ATOM     16  C   UNL     1      -1.704  11.843  20.464  0.00  0.00    +0.000 A 
ATOM     17  C   UNL     1      -2.349  13.063  20.290  0.00  0.00    +0.000 A 
ENDBRANCH   1  15
BRANCH   6  18
ATOM     18  C   UNL     1       3.575   5.617  19.581  0.00  0.00    +0.000 C 
BRANCH  18  19
ATOM     19  C   UNL     1       2.904   4.374  19.000  0.00  0.00    +0.000 A 
ATOM     20  C   UNL     1       1.910   3.818  19.854  0.00  0.00    +0.000 A 
ATOM     21  C   UNL     1       1.236   2.634  19.552  0.00  0.00    +0.000 A 
ATOM     22  C   UNL     1       1.580   1.926  18.415  0.00  0.00    +0.000 A 
ATOM     23  C   UNL     1       2.551   2.438  17.562  0.00  0.00    +0.000 A 
ATOM     24  C   UNL     1       3.170   3.695  17.784  0.00  0.00    +0.000 A 
BRANCH  24  25
ATOM     25  C   UNL     1       3.960   4.230  16.593  0.00  0.00    +0.000 C 
BRANCH  25  26
ATOM     26  N   UNL     1       5.387   3.876  16.650  0.00  0.00    +0.000 NA
ATOM     27  C   UNL     1       6.279   4.759  17.420  0.00  0.00    +0.000 C 
ATOM     28  C   UNL     1       6.924   5.911  16.635  0.00  0.00    +0.000 C 
ATOM     29  O   UNL     1       7.614   5.422  15.484  0.00  0.00    +0.000 OA
ATOM     30  C   UNL     1       6.719   4.715  14.623  0.00  0.00    +0.000 C 
ATOM     31  C   UNL     1       5.976   3.572  15.337  0.00  0.00    +0.000 C 
ENDBRANCH  25  26
ENDBRANCH  24  25
ENDBRANCH  18  19
ENDBRANCH   6  18
TORSDOF 5
ENDMDL
MODEL 6
REMARK VINA RESULT:      -8.8      1.485      1.817
REMARK  Name = 
REMARK  5 active torsions:
REMARK  status: ('A' for Active; 'I' for Inactive)
REMARK    1  A    between atoms: C_4  and  N_5
REMARK    2  A    between atoms: N_10  and  C_11
REMARK    3  A    between atoms: C_11  and  C_12
REMARK    4  A    between atoms: C_17  and  C_18
REMARK    5  A    between atoms: C_18  and  N_19
REMARK                            x       y       z     vdW  Elec       q    Type
REMARK                         _______ _______ _______ _____ _____    ______ ____
ROOT
ATOM      1  N   UNL     1       0.506  10.581  21.496  0.00  0.00    +0.000 N 
ATOM      2  N   UNL     1       0.943   9.721  22.468  0.00  0.00    +0.000 NA
ATOM      3  C   UNL     1       1.354   8.648  21.787  0.00  0.00    +0.000 A 
ATOM      4  C   UNL     1       1.302   8.822  20.393  0.00  0.00    +0.000 A 
ATOM      5  C   UNL     1       1.713   8.122  19.247  0.00  0.00    +0.000 A 
ATOM      6  N   UNL     1       2.362   6.898  19.334  0.00  0.00    +0.000 N 
ATOM      7  N   UNL     1       1.533   8.725  18.050  0.00  0.00    +0.000 NA
ATOM      8  C   UNL     1       1.008   9.961  18.012  0.00  0.00    +0.000 A 
ATOM      9  N   UNL     1       0.581  10.708  19.040  0.00  0.00    +0.000 NA
ATOM     10  C   UNL     1       0.755  10.083  20.223  0.00  0.00    +0.000 A 
ATOM     11  H   UNL     1       2.018   6.287  20.062  0.00  0.00    +0.000 HD
ENDROOT
BRANCH   1  15
ATOM     12  C   UNL     1      -1.290  14.241  22.608  0.00  0.00    +0.000 A 
ATOM     13  C   UNL     1      -0.216  14.235  21.718  0.00  0.00    +0.000 A 
ATOM     14  C   UNL     1       0.388  13.026  21.360  0.00  0.00    +0.000 A 
ATOM     15  C   UNL     1      -0.106  11.816  21.857  0.00  0.00    +0.000 A 
ATOM     16  C   UNL     1      -1.201  11.837  22.733  0.00  0.00    +0.000 A 
ATOM     17  C   UNL     1      -1.773  13.042  23.123  0.00  0.00    +0.000 A 
ENDBRANCH   1  15
BRANCH   6  18
ATOM     18  C   UNL     1       2.811   6.249  18.121  0.00  0.00    +0.000 C 
BRANCH  18  19
ATOM     19  C   UNL     1       3.190   4.772  18.219  0.00  0.00    +0.000 A 
ATOM     20  C   UNL     1       2.287   3.912  17.535  0.00  0.00    +0.000 A 
ATOM     21  C   UNL     1       2.401   2.521  17.568  0.00  0.00    +0.000 A 
ATOM     22  C   UNL     1       3.386   1.939  18.344  0.00  0.00    +0.000 A 
ATOM     23  C   UNL     1       4.282   2.751  19.030  0.00  0.00    +0.000 A 
ATOM     24  C   UNL     1       4.260   4.165  18.922  0.00  0.00    +0.000 A 
BRANCH  24  25
ATOM     25  C   UNL     1       5.499   4.861  19.480  0.00  0.00    +0.000 C 
BRANCH  25  26
ATOM     26  N   UNL     1       6.674   4.721  18.608  0.00  0.00    +0.000 NA
ATOM     27  C   UNL     1       7.776   5.681  18.788  0.00  0.00    +0.000 C 
ATOM     28  C   UNL     1       7.697   6.959  17.939  0.00  0.00    +0.000 C 
ATOM     29  O   UNL     1       7.560   6.644  16.553  0.00  0.00    +0.000 OA
ATOM     30  C   UNL     1       6.385   5.862  16.327  0.00  0.00    +0.000 C 
ATOM     31  C   UNL     1       6.343   4.583  17.182  0.00  0.00    +0.000 C 
ENDBRANCH  25  26
ENDBRANCH  24  25
ENDBRANCH  18  19
ENDBRANCH   6  18
TORSDOF 5
ENDMDL
MODEL 7
REMARK VINA RESULT:      -8.6      1.985      3.728
REMARK  Name = 
REMARK  5 active torsions:
REMARK  status: ('A' for Active; 'I' for Inactive)
REMARK    1  A    between atoms: C_4  and  N_5
REMARK    2  A    between atoms: N_10  and  C_11
REMARK    3  A    between atoms: C_11  and  C_12
REMARK    4  A    between atoms: C_17  and  C_18
REMARK    5  A    between atoms: C_18  and  N_19
REMARK                            x       y       z     vdW  Elec       q    Type
REMARK                         _______ _______ _______ _____ _____    ______ ____
ROOT
ATOM      1  N   UNL     1      -0.283  10.931  22.121  0.00  0.00    +0.000 N 
ATOM      2  N   UNL     1       0.484  10.103  22.897  0.00  0.00    +0.000 NA
ATOM      3  C   UNL     1       1.047   9.270  22.019  0.00  0.00    +0.000 A 
ATOM      4  C   UNL     1       0.759   9.596  20.681  0.00  0.00    +0.000 A 
ATOM      5  C   UNL     1       1.164   9.176  19.404  0.00  0.00    +0.000 A 
ATOM      6  N   UNL     1       2.100   8.166  19.231  0.00  0.00    +0.000 N 
ATOM      7  N   UNL     1       0.675   9.854  18.341  0.00  0.00    +0.000 NA
ATOM      8  C   UNL     1      -0.138  10.902  18.550  0.00  0.00    +0.000 A 
ATOM      9  N   UNL     1      -0.587  11.376  19.721  0.00  0.00    +0.000 NA
ATOM     10  C   UNL     1      -0.100  10.678  20.768  0.00  0.00    +0.000 A 
ATOM     11  H   UNL     1       2.022   7.400  19.887  0.00  0.00    +0.000 HD
ENDROOT
BRANCH   1  15
ATOM     12  C   UNL     1      -2.785  13.842  23.889  0.00  0.00    +0.000 A 
ATOM     13  C   UNL     1      -3.203  12.512  23.825  0.00  0.00    +0.000 A 
ATOM     14  C   UNL     1      -2.382  11.550  23.229  0.00  0.00    +0.000 A 
ATOM     15  C   UNL     1      -1.124  11.907  22.732  0.00  0.00    +0.000 A 
ATOM     16  C   UNL     1      -0.710  13.244  22.824  0.00  0.00    +0.000 A 
ATOM     17  C   UNL     1      -1.545  14.207  23.378  0.00  0.00    +0.000 A 
ENDBRANCH   1  15
BRANCH   6  18
ATOM     18  C   UNL     1       2.520   7.814  17.893  0.00  0.00    +0.000 C 
BRANCH  18  19
ATOM     19  C   UNL     1       3.706   6.858  17.761  0.00  0.00    +0.000 A 
ATOM     20  C   UNL     1       4.616   7.226  16.731  0.00  0.00    +0.000 A 
ATOM     21  C   UNL     1       5.720   6.445  16.389  0.00  0.00    +0.000 A 
ATOM     22  C   UNL     1       5.917   5.231  17.021  0.00  0.00    +0.000 A 
ATOM     23  C   UNL     1       5.043   4.839  18.028  0.00  0.00    +0.000 A 
ATOM     24  C   UNL     1       3.980   5.665  18.475  0.00  0.00    +0.000 A 
BRANCH  24  25
ATOM     25  C   UNL     1       3.336   5.214  19.784  0.00  0.00    +0.000 C 
BRANCH  25  26
ATOM     26  N   UNL     1       1.918   4.856  19.630  0.00  0.00    +0.000 NA
ATOM     27  C   UNL     1       1.253   4.198  20.767  0.00  0.00    +0.000 C 
ATOM     28  C   UNL     1       1.308   2.663  20.778  0.00  0.00    +0.000 C 
ATOM     29  O   UNL     1       0.808   2.124  19.555  0.00  0.00    +0.000 OA
ATOM     30  C   UNL     1       1.564   2.608  18.443  0.00  0.00    +0.000 C 
ATOM     31  C   UNL     1       1.618   4.145  18.378  0.00  0.00    +0.000 C 
ENDBRANCH  25  26
ENDBRANCH  24  25
ENDBRANCH  18  19
ENDBRANCH   6  18
TORSDOF 5
ENDMDL
MODEL 8
REMARK VINA RESULT:      -8.5      1.415      2.225
REMARK  Name = 
REMARK  5 active torsions:
REMARK  status: ('A' for Active; 'I' for Inactive)
REMARK    1  A    between atoms: C_4  and  N_5
REMARK    2  A    between atoms: N_10  and  C_11
REMARK    3  A    between atoms: C_11  and  C_12
REMARK    4  A    between atoms: C_17  and  C_18
REMARK    5  A    between atoms: C_18  and  N_19
REMARK                            x       y       z     vdW  Elec       q    Type
REMARK                         _______ _______ _______ _____ _____    ______ ____
ROOT
ATOM      1  N   UNL     1      -0.574  11.546  19.846  0.00  0.00    +0.000 N 
ATOM      2  N   UNL     1      -0.379  11.291  18.515  0.00  0.00    +0.000 NA
ATOM      3  C   UNL     1       0.430  10.228  18.507  0.00  0.00    +0.000 A 
ATOM      4  C   UNL     1       0.682   9.713  19.791  0.00  0.00    +0.000 A 
ATOM      5  C   UNL     1       1.315   8.591  20.350  0.00  0.00    +0.000 A 
ATOM      6  N   UNL     1       1.915   7.622  19.557  0.00  0.00    +0.000 N 
ATOM      7  N   UNL     1       1.243   8.438  21.691  0.00  0.00    +0.000 NA
ATOM      8  C   UNL     1       0.553   9.334  22.416  0.00  0.00    +0.000 A 
ATOM      9  N   UNL     1      -0.077  10.435  21.984  0.00  0.00    +0.000 NA
ATOM     10  C   UNL     1       0.018  10.577  20.645  0.00  0.00    +0.000 A 
ATOM     11  H   UNL     1       2.401   7.981  18.746  0.00  0.00    +0.000 HD
ENDROOT
BRANCH   1  15
ATOM     12  C   UNL     1      -2.788  14.923  21.092  0.00  0.00    +0.000 A 
ATOM     13  C   UNL     1      -1.427  15.049  20.813  0.00  0.00    +0.000 A 
ATOM     14  C   UNL     1      -0.690  13.929  20.413  0.00  0.00    +0.000 A 
ATOM     15  C   UNL     1      -1.320  12.691  20.252  0.00  0.00    +0.000 A 
ATOM     16  C   UNL     1      -2.694  12.587  20.515  0.00  0.00    +0.000 A 
ATOM     17  C   UNL     1      -3.417  13.691  20.954  0.00  0.00    +0.000 A 
ENDBRANCH   1  15
BRANCH   6  18
ATOM     18  C   UNL     1       2.504   6.460  20.186  0.00  0.00    +0.000 C 
BRANCH  18  19
ATOM     19  C   UNL     1       2.215   5.101  19.550  0.00  0.00    +0.000 A 
ATOM     20  C   UNL     1       1.204   4.364  20.227  0.00  0.00    +0.000 A 
ATOM     21  C   UNL     1       0.847   3.065  19.862  0.00  0.00    +0.000 A 
ATOM     22  C   UNL     1       1.538   2.431  18.846  0.00  0.00    +0.000 A 
ATOM     23  C   UNL     1       2.536   3.120  18.168  0.00  0.00    +0.000 A 
ATOM     24  C   UNL     1       2.841   4.479  18.441  0.00  0.00    +0.000 A 
BRANCH  24  25
ATOM     25  C   UNL     1       3.727   5.150  17.396  0.00  0.00    +0.000 C 
BRANCH  25  26
ATOM     26  N   UNL     1       5.046   4.511  17.269  0.00  0.00    +0.000 NA
ATOM     27  C   UNL     1       6.184   5.155  17.945  0.00  0.00    +0.000 C 
ATOM     28  C   UNL     1       6.961   6.187  17.114  0.00  0.00    +0.000 C 
ATOM     29  O   UNL     1       7.397   5.624  15.876  0.00  0.00    +0.000 OA
ATOM     30  C   UNL     1       6.282   5.156  15.114  0.00  0.00    +0.000 C 
ATOM     31  C   UNL     1       5.404   4.156  15.887  0.00  0.00    +0.000 C 
ENDBRANCH  25  26
ENDBRANCH  24  25
ENDBRANCH  18  19
ENDBRANCH   6  18
TORSDOF 5
ENDMDL
MODEL 9
REMARK VINA RESULT:      -8.3      2.051      3.783
REMARK  Name = 
REMARK  5 active torsions:
REMARK  status: ('A' for Active; 'I' for Inactive)
REMARK    1  A    between atoms: C_4  and  N_5
REMARK    2  A    between atoms: N_10  and  C_11
REMARK    3  A    between atoms: C_11  and  C_12
REMARK    4  A    between atoms: C_17  and  C_18
REMARK    5  A    between atoms: C_18  and  N_19
REMARK                            x       y       z     vdW  Elec       q    Type
REMARK                         _______ _______ _______ _____ _____    ______ ____
ROOT
ATOM      1  N   UNL     1       0.237  10.490  21.664  0.00  0.00    +0.000 N 
ATOM      2  N   UNL     1       0.860   9.614  22.512  0.00  0.00    +0.000 NA
ATOM      3  C   UNL     1       1.413   8.713  21.695  0.00  0.00    +0.000 A 
ATOM      4  C   UNL     1       1.263   9.033  20.334  0.00  0.00    +0.000 A 
ATOM      5  C   UNL     1       1.728   8.549  19.100  0.00  0.00    +0.000 A 
ATOM      6  N   UNL     1       2.578   7.455  19.020  0.00  0.00    +0.000 N 
ATOM      7  N   UNL     1       1.390   9.244  17.991  0.00  0.00    +0.000 NA
ATOM      8  C   UNL     1       0.663  10.366  18.117  0.00  0.00    +0.000 A 
ATOM      9  N   UNL     1       0.167  10.906  19.240  0.00  0.00    +0.000 NA
ATOM     10  C   UNL     1       0.503  10.191  20.333  0.00  0.00    +0.000 A 
ATOM     11  H   UNL     1       2.378   6.714  19.679  0.00  0.00    +0.000 HD
ENDROOT
BRANCH   1  15
ATOM     12  C   UNL     1      -2.096  13.630  23.261  0.00  0.00    +0.000 A 
ATOM     13  C   UNL     1      -1.021  13.921  22.422  0.00  0.00    +0.000 A 
ATOM     14  C   UNL     1      -0.240  12.884  21.903  0.00  0.00    +0.000 A 
ATOM     15  C   UNL     1      -0.556  11.552  22.188  0.00  0.00    +0.000 A 
ATOM     16  C   UNL     1      -1.654  11.275  23.016  0.00  0.00    +0.000 A 
ATOM     17  C   UNL     1      -2.404  12.309  23.567  0.00  0.00    +0.000 A 
ENDBRANCH   1  15
BRANCH   6  18
ATOM     18  C   UNL     1       3.069   7.036  17.726  0.00  0.00    +0.000 C 
BRANCH  18  19
ATOM     19  C   UNL     1       4.401   6.287  17.693  0.00  0.00    +0.000 A 
ATOM     20  C   UNL     1       5.294   6.766  16.695  0.00  0.00    +0.000 A 
ATOM     21  C   UNL     1       6.529   6.168  16.440  0.00  0.00    +0.000 A 
ATOM     22  C   UNL     1       6.887   5.025  17.132  0.00  0.00    +0.000 A 
ATOM     23  C   UNL     1       6.035   4.527  18.110  0.00  0.00    +0.000 A 
ATOM     24  C   UNL     1       4.827   5.180  18.470  0.00  0.00    +0.000 A 
BRANCH  24  25
ATOM     25  C   UNL     1       4.195   4.673  19.763  0.00  0.00    +0.000 C 
BRANCH  25  26
ATOM     26  N   UNL     1       3.318   3.512  19.553  0.00  0.00    +0.000 NA
ATOM     27  C   UNL     1       1.936   3.771  19.116  0.00  0.00    +0.000 C 
ATOM     28  C   UNL     1       0.900   3.947  20.236  0.00  0.00    +0.000 C 
ATOM     29  O   UNL     1       0.917   2.832  21.128  0.00  0.00    +0.000 OA
ATOM     30  C   UNL     1       2.212   2.673  21.712  0.00  0.00    +0.000 C 
ATOM     31  C   UNL     1       3.331   2.548  20.663  0.00  0.00    +0.000 C 
ENDBRANCH  25  26
ENDBRANCH  24  25
ENDBRANCH  18  19
ENDBRANCH   6  18
TORSDOF 5
ENDMDL
