MODEL 1
REMARK VINA RESULT:      -9.3      0.000      0.000
REMARK  Name = 
REMARK  6 active torsions:
REMARK  status: ('A' for Active; 'I' for Inactive)
REMARK    1  A    between atoms: C_1  and  N_2
REMARK    2  A    between atoms: C_6  and  C_7
REMARK    3  A    between atoms: C_7  and  C_8
REMARK    4  A    between atoms: C_8  and  C_9
REMARK    5  A    between atoms: C_13  and  N_14
REMARK    6  A    between atoms: C_21  and  C_22
REMARK                            x       y       z     vdW  Elec       q    Type
REMARK                         _______ _______ _______ _____ _____    ______ ____
ROOT
ATOM      1  C   UNL     1       4.423   5.107  17.389  0.00  0.00    +0.000 A 
ATOM      2  C   UNL     1       3.809   3.911  17.788  0.00  0.00    +0.000 A 
ATOM      3  C   UNL     1       2.640   3.939  18.526  0.00  0.00    +0.000 A 
ATOM      4  C   UNL     1       2.083   5.164  18.898  0.00  0.00    +0.000 A 
ATOM      5  C   UNL     1       2.667   6.391  18.538  0.00  0.00    +0.000 A 
ATOM      6  C   UNL     1       3.826   6.344  17.743  0.00  0.00    +0.000 A 
ENDROOT
BRANCH   5   7
ATOM      7  N   UNL     1       2.121   7.614  19.038  0.00  0.00    +0.000 N 
ATOM      8  C   UNL     1       1.541   7.782  20.375  0.00  0.00    +0.000 C 
ATOM      9  C   UNL     1       0.972   9.177  20.332  0.00  0.00    +0.000 A 
ATOM     10  C   UNL     1       1.210   9.716  19.078  0.00  0.00    +0.000 A 
ATOM     11  C   UNL     1       0.796  10.975  18.724  0.00  0.00    +0.000 A 
ATOM     12  N   UNL     1       0.141  11.759  19.602  0.00  0.00    +0.000 NA
ATOM     13  C   UNL     1      -0.081  11.242  20.842  0.00  0.00    +0.000 A 
ATOM     14  C   UNL     1       0.306   9.962  21.266  0.00  0.00    +0.000 A 
ATOM     15  C   UNL     1       1.942   8.767  18.268  0.00  0.00    +0.000 C 
ATOM     16  O   UNL     1       2.280   9.059  17.139  0.00  0.00    +0.000 OA
BRANCH  14  17
ATOM     17  C   UNL     1      -0.008   9.557  22.668  0.00  0.00    +0.000 C 
ATOM     18  F   UNL     1      -0.639  10.529  23.379  0.00  0.00    +0.000 F 
ATOM     19  F   UNL     1      -0.817   8.465  22.720  0.00  0.00    +0.000 F 
ATOM     20  F   UNL     1       1.107   9.233  23.377  0.00  0.00    +0.000 F 
ENDBRANCH  14  17
ENDBRANCH   5   7
BRANCH   1  21
ATOM     21  C   UNL     1       5.769   5.046  16.695  0.00  0.00    +0.000 C 
BRANCH  21  22
ATOM     22  C   UNL     1       5.879   4.035  15.545  0.00  0.00    +0.000 C 
BRANCH  22  28
ATOM     23  C   UNL     1       5.809   3.308  12.452  0.00  0.00    +0.000 C 
ATOM     24  N   UNL     1       6.698   4.225  13.114  0.00  0.00    +0.000 N 
ATOM     25  C   UNL     1       7.671   4.951  12.495  0.00  0.00    +0.000 A 
ATOM     26  N   UNL     1       8.285   5.702  13.376  0.00  0.00    +0.000 NA
ATOM     27  N   UNL     1       7.706   5.464  14.599  0.00  0.00    +0.000 NA
ATOM     28  C   UNL     1       6.751   4.565  14.445  0.00  0.00    +0.000 A 
ENDBRANCH  22  28
ENDBRANCH  21  22
ENDBRANCH   1  21
TORSDOF 5
ENDMDL
MODEL 2
REMARK VINA RESULT:      -9.1      1.667      2.496
REMARK  Name = 
REMARK  6 active torsions:
REMARK  status: ('A' for Active; 'I' for Inactive)
REMARK    1  A    between atoms: C_1  and  N_2
REMARK    2  A    between atoms: C_6  and  C_7
REMARK    3  A    between atoms: C_7  and  C_8
REMARK    4  A    between atoms: C_8  and  C_9
REMARK    5  A    between atoms: C_13  and  N_14
REMARK    6  A    between atoms: C_21  and  C_22
REMARK                            x       y       z     vdW  Elec       q    Type
REMARK                         _______ _______ _______ _____ _____    ______ ____
ROOT
ATOM      1  C   UNL     1       3.959   4.598  17.510  0.00  0.00    +0.000 A 
ATOM      2  C   UNL     1       3.772   3.542  18.413  0.00  0.00    +0.000 A 
ATOM      3  C   UNL     1       3.009   3.725  19.553  0.00  0.00    +0.000 A 
ATOM      4  C   UNL     1       2.446   4.974  19.817  0.00  0.00    +0.000 A 
ATOM      5  C   UNL     1       2.617   6.069  18.954  0.00  0.00    +0.000 A 
ATOM      6  C   UNL     1       3.351   5.851  17.775  0.00  0.00    +0.000 A 
ENDROOT
BRANCH   5   7
ATOM      7  N   UNL     1       2.114   7.355  19.326  0.00  0.00    +0.000 N 
ATOM      8  C   UNL     1       1.498   7.666  20.620  0.00  0.00    +0.000 C 
ATOM      9  C   UNL     1       0.999   9.077  20.436  0.00  0.00    +0.000 A 
ATOM     10  C   UNL     1       1.307   9.493  19.151  0.00  0.00    +0.000 A 
ATOM     11  C   UNL     1       0.969  10.733  18.675  0.00  0.00    +0.000 A 
ATOM     12  N   UNL     1       0.323  11.620  19.457  0.00  0.00    +0.000 NA
ATOM     13  C   UNL     1       0.033  11.224  20.727  0.00  0.00    +0.000 A 
ATOM     14  C   UNL     1       0.341   9.970  21.272  0.00  0.00    +0.000 A 
ATOM     15  C   UNL     1       2.019   8.444  18.454  0.00  0.00    +0.000 C 
ATOM     16  O   UNL     1       2.411   8.620  17.318  0.00  0.00    +0.000 OA
BRANCH  14  17
ATOM     17  C   UNL     1      -0.041   9.704  22.691  0.00  0.00    +0.000 C 
ATOM     18  F   UNL     1       1.015   9.359  23.475  0.00  0.00    +0.000 F 
ATOM     19  F   UNL     1      -0.613  10.786  23.282  0.00  0.00    +0.000 F 
ATOM     20  F   UNL     1      -0.944   8.692  22.805  0.00  0.00    +0.000 F 
ENDBRANCH  14  17
ENDBRANCH   5   7
BRANCH   1  21
ATOM     21  C   UNL     1       4.904   4.405  16.342  0.00  0.00    +0.000 C 
BRANCH  21  22
ATOM     22  C   UNL     1       6.387   4.241  16.705  0.00  0.00    +0.000 C 
BRANCH  22  28
ATOM     23  C   UNL     1       7.021   5.426  19.584  0.00  0.00    +0.000 C 
ATOM     24  N   UNL     1       7.263   6.050  18.311  0.00  0.00    +0.000 N 
ATOM     25  C   UNL     1       7.826   7.279  18.139  0.00  0.00    +0.000 A 
ATOM     26  N   UNL     1       7.924   7.540  16.858  0.00  0.00    +0.000 NA
ATOM     27  N   UNL     1       7.414   6.463  16.175  0.00  0.00    +0.000 NA
ATOM     28  C   UNL     1       7.006   5.563  17.052  0.00  0.00    +0.000 A 
ENDBRANCH  22  28
ENDBRANCH  21  22
ENDBRANCH   1  21
TORSDOF 5
ENDMDL
MODEL 3
REMARK VINA RESULT:      -8.9      3.140      4.375
REMARK  Name = 
REMARK  6 active torsions:
REMARK  status: ('A' for Active; 'I' for Inactive)
REMARK    1  A    between atoms: C_1  and  N_2
REMARK    2  A    between atoms: C_6  and  C_7
REMARK    3  A    between atoms: C_7  and  C_8
REMARK    4  A    between atoms: C_8  and  C_9
REMARK    5  A    between atoms: C_13  and  N_14
REMARK    6  A    between atoms: C_21  and  C_22
REMARK                            x       y       z     vdW  Elec       q    Type
REMARK                         _______ _______ _______ _____ _____    ______ ____
ROOT
ATOM      1  C   UNL     1       3.162   4.643  17.540  0.00  0.00    +0.000 A 
ATOM      2  C   UNL     1       4.461   4.919  17.093  0.00  0.00    +0.000 A 
ATOM      3  C   UNL     1       5.022   6.167  17.302  0.00  0.00    +0.000 A 
ATOM      4  C   UNL     1       4.279   7.163  17.938  0.00  0.00    +0.000 A 
ATOM      5  C   UNL     1       2.967   6.943  18.390  0.00  0.00    +0.000 A 
ATOM      6  C   UNL     1       2.433   5.654  18.216  0.00  0.00    +0.000 A 
ENDROOT
BRANCH   5   7
ATOM      7  N   UNL     1       2.209   8.028  18.934  0.00  0.00    +0.000 N 
ATOM      8  C   UNL     1       1.580   8.021  20.258  0.00  0.00    +0.000 C 
ATOM      9  C   UNL     1       0.783   9.301  20.268  0.00  0.00    +0.000 A 
ATOM     10  C   UNL     1       0.955   9.941  19.052  0.00  0.00    +0.000 A 
ATOM     11  C   UNL     1       0.342  11.130  18.749  0.00  0.00    +0.000 A 
ATOM     12  N   UNL     1      -0.457  11.743  19.645  0.00  0.00    +0.000 NA
ATOM     13  C   UNL     1      -0.616  11.128  20.849  0.00  0.00    +0.000 A 
ATOM     14  C   UNL     1      -0.028   9.910  21.219  0.00  0.00    +0.000 A 
ATOM     15  C   UNL     1       1.855   9.175  18.218  0.00  0.00    +0.000 C 
ATOM     16  O   UNL     1       2.165   9.582  17.117  0.00  0.00    +0.000 OA
BRANCH  14  17
ATOM     17  C   UNL     1      -0.301   9.381  22.587  0.00  0.00    +0.000 C 
ATOM     18  F   UNL     1      -1.131  10.174  23.314  0.00  0.00    +0.000 F 
ATOM     19  F   UNL     1      -0.882   8.151  22.559  0.00  0.00    +0.000 F 
ATOM     20  F   UNL     1       0.833   9.243  23.327  0.00  0.00    +0.000 F 
ENDBRANCH  14  17
ENDBRANCH   5   7
BRANCH   1  21
ATOM     21  C   UNL     1       2.529   3.314  17.181  0.00  0.00    +0.000 C 
BRANCH  21  22
ATOM     22  C   UNL     1       3.061   2.095  17.948  0.00  0.00    +0.000 C 
BRANCH  22  28
ATOM     23  C   UNL     1       0.463   2.710  19.672  0.00  0.00    +0.000 C 
ATOM     24  N   UNL     1       1.814   2.575  20.147  0.00  0.00    +0.000 N 
ATOM     25  C   UNL     1       2.197   2.685  21.450  0.00  0.00    +0.000 A 
ATOM     26  N   UNL     1       3.489   2.488  21.545  0.00  0.00    +0.000 NA
ATOM     27  N   UNL     1       3.965   2.245  20.280  0.00  0.00    +0.000 NA
ATOM     28  C   UNL     1       2.955   2.305  19.430  0.00  0.00    +0.000 A 
ENDBRANCH  22  28
ENDBRANCH  21  22
ENDBRANCH   1  21
TORSDOF 5
ENDMDL
MODEL 4
REMARK VINA RESULT:      -8.8      1.968      2.713
REMARK  Name = 
REMARK  6 active torsions:
REMARK  status: ('A' for Active; 'I' for Inactive)
REMARK    1  A    between atoms: C_1  and  N_2
REMARK    2  A    between atoms: C_6  and  C_7
REMARK    3  A    between atoms: C_7  and  C_8
REMARK    4  A    between atoms: C_8  and  C_9
REMARK    5  A    between atoms: C_13  and  N_14
REMARK    6  A    between atoms: C_21  and  C_22
REMARK                            x       y       z     vdW  Elec       q    Type
REMARK                         _______ _______ _______ _____ _____    ______ ____
ROOT
ATOM      1  C   UNL     1       3.926   4.655  17.581  0.00  0.00    +0.000 A 
ATOM      2  C   UNL     1       3.794   3.618  18.514  0.00  0.00    +0.000 A 
ATOM      3  C   UNL     1       3.066   3.813  19.675  0.00  0.00    +0.000 A 
ATOM      4  C   UNL     1       2.485   5.056  19.929  0.00  0.00    +0.000 A 
ATOM      5  C   UNL     1       2.602   6.133  19.035  0.00  0.00    +0.000 A 
ATOM      6  C   UNL     1       3.300   5.901  17.836  0.00  0.00    +0.000 A 
ENDROOT
BRANCH   5   7
ATOM      7  N   UNL     1       2.084   7.417  19.393  0.00  0.00    +0.000 N 
ATOM      8  C   UNL     1       1.451   7.729  20.678  0.00  0.00    +0.000 C 
ATOM      9  C   UNL     1       0.942   9.135  20.480  0.00  0.00    +0.000 A 
ATOM     10  C   UNL     1       1.260   9.546  19.196  0.00  0.00    +0.000 A 
ATOM     11  C   UNL     1       0.916  10.780  18.708  0.00  0.00    +0.000 A 
ATOM     12  N   UNL     1       0.254  11.666  19.477  0.00  0.00    +0.000 NA
ATOM     13  C   UNL     1      -0.047  11.275  20.747  0.00  0.00    +0.000 A 
ATOM     14  C   UNL     1       0.266  10.027  21.303  0.00  0.00    +0.000 A 
ATOM     15  C   UNL     1       1.989   8.499  18.513  0.00  0.00    +0.000 C 
ATOM     16  O   UNL     1       2.391   8.672  17.380  0.00  0.00    +0.000 OA
BRANCH  14  17
ATOM     17  C   UNL     1      -0.129   9.766  22.719  0.00  0.00    +0.000 C 
ATOM     18  F   UNL     1       0.924   9.457  23.522  0.00  0.00    +0.000 F 
ATOM     19  F   UNL     1      -0.737  10.840  23.291  0.00  0.00    +0.000 F 
ATOM     20  F   UNL     1      -1.007   8.733  22.832  0.00  0.00    +0.000 F 
ENDBRANCH  14  17
ENDBRANCH   5   7
BRANCH   1  21
ATOM     21  C   UNL     1       4.835   4.454  16.385  0.00  0.00    +0.000 C 
BRANCH  21  22
ATOM     22  C   UNL     1       5.938   5.506  16.203  0.00  0.00    +0.000 C 
BRANCH  22  28
ATOM     23  C   UNL     1       7.357   8.040  17.493  0.00  0.00    +0.000 C 
ATOM     24  N   UNL     1       7.438   6.675  17.937  0.00  0.00    +0.000 N 
ATOM     25  C   UNL     1       8.150   6.246  19.017  0.00  0.00    +0.000 A 
ATOM     26  N   UNL     1       7.995   4.953  19.159  0.00  0.00    +0.000 NA
ATOM     27  N   UNL     1       7.166   4.522  18.152  0.00  0.00    +0.000 NA
ATOM     28  C   UNL     1       6.834   5.560  17.406  0.00  0.00    +0.000 A 
ENDBRANCH  22  28
ENDBRANCH  21  22
ENDBRANCH   1  21
TORSDOF 5
ENDMDL
MODEL 5
REMARK VINA RESULT:      -8.8      2.012      2.816
REMARK  Name = 
REMARK  6 active torsions:
REMARK  status: ('A' for Active; 'I' for Inactive)
REMARK    1  A    between atoms: C_1  and  N_2
REMARK    2  A    between atoms: C_6  and  C_7
REMARK    3  A    between atoms: C_7  and  C_8
REMARK    4  A    between atoms: C_8  and  C_9
REMARK    5  A    between atoms: C_13  and  N_14
REMARK    6  A    between atoms: C_21  and  C_22
REMARK                            x       y       z     vdW  Elec       q    Type
REMARK                         _______ _______ _______ _____ _____    ______ ____
ROOT
ATOM      1  C   UNL     1       4.286   5.978  16.999  0.00  0.00    +0.000 A 
ATOM      2  C   UNL     1       4.042   4.729  17.587  0.00  0.00    +0.000 A 
ATOM      3  C   UNL     1       3.111   4.606  18.603  0.00  0.00    +0.000 A 
ATOM      4  C   UNL     1       2.432   5.735  19.062  0.00  0.00    +0.000 A 
ATOM      5  C   UNL     1       2.651   7.012  18.519  0.00  0.00    +0.000 A 
ATOM      6  C   UNL     1       3.562   7.110  17.452  0.00  0.00    +0.000 A 
ENDROOT
BRANCH   5   7
ATOM      7  N   UNL     1       2.013   8.153  19.100  0.00  0.00    +0.000 N 
ATOM      8  C   UNL     1       1.394   8.173  20.429  0.00  0.00    +0.000 C 
ATOM      9  C   UNL     1       0.734   9.528  20.482  0.00  0.00    +0.000 A 
ATOM     10  C   UNL     1       0.964  10.182  19.282  0.00  0.00    +0.000 A 
ATOM     11  C   UNL     1       0.477  11.436  19.018  0.00  0.00    +0.000 A 
ATOM     12  N   UNL     1      -0.249  12.102  19.937  0.00  0.00    +0.000 NA
ATOM     13  C   UNL     1      -0.465  11.472  21.125  0.00  0.00    +0.000 A 
ATOM     14  C   UNL     1      -0.004  10.190  21.456  0.00  0.00    +0.000 A 
ATOM     15  C   UNL     1       1.776   9.351  18.420  0.00  0.00    +0.000 C 
ATOM     16  O   UNL     1       2.121   9.755  17.327  0.00  0.00    +0.000 OA
BRANCH  14  17
ATOM     17  C   UNL     1      -0.322   9.652  22.811  0.00  0.00    +0.000 C 
ATOM     18  F   UNL     1      -0.973   8.459  22.777  0.00  0.00    +0.000 F 
ATOM     19  F   UNL     1       0.794   9.452  23.562  0.00  0.00    +0.000 F 
ATOM     20  F   UNL     1      -1.113  10.493  23.532  0.00  0.00    +0.000 F 
ENDBRANCH  14  17
ENDBRANCH   5   7
BRANCH   1  21
ATOM     21  C   UNL     1       5.402   6.105  15.982  0.00  0.00    +0.000 C 
BRANCH  21  22
ATOM     22  C   UNL     1       6.619   5.199  16.213  0.00  0.00    +0.000 C 
BRANCH  22  28
ATOM     23  C   UNL     1       7.666   7.950  17.408  0.00  0.00    +0.000 C 
ATOM     24  N   UNL     1       7.682   6.660  18.044  0.00  0.00    +0.000 N 
ATOM     25  C   UNL     1       8.156   6.414  19.297  0.00  0.00    +0.000 A 
ATOM     26  N   UNL     1       8.005   5.143  19.581  0.00  0.00    +0.000 NA
ATOM     27  N   UNL     1       7.422   4.542  18.493  0.00  0.00    +0.000 NA
ATOM     28  C   UNL     1       7.233   5.455  17.558  0.00  0.00    +0.000 A 
ENDBRANCH  22  28
ENDBRANCH  21  22
ENDBRANCH   1  21
TORSDOF 5
ENDMDL
MODEL 6
REMARK VINA RESULT:      -8.8      2.980      4.327
REMARK  Name = 
REMARK  6 active torsions:
REMARK  status: ('A' for Active; 'I' for Inactive)
REMARK    1  A    between atoms: C_1  and  N_2
REMARK    2  A    between atoms: C_6  and  C_7
REMARK    3  A    between atoms: C_7  and  C_8
REMARK    4  A    between atoms: C_8  and  C_9
REMARK    5  A    between atoms: C_13  and  N_14
REMARK    6  A    between atoms: C_21  and  C_22
REMARK                            x       y       z     vdW  Elec       q    Type
REMARK                         _______ _______ _______ _____ _____    ______ ____
ROOT
ATOM      1  C   UNL     1       2.890   4.760  17.573  0.00  0.00    +0.000 A 
ATOM      2  C   UNL     1       4.181   4.989  17.077  0.00  0.00    +0.000 A 
ATOM      3  C   UNL     1       4.793   6.215  17.265  0.00  0.00    +0.000 A 
ATOM      4  C   UNL     1       4.111   7.237  17.928  0.00  0.00    +0.000 A 
ATOM      5  C   UNL     1       2.810   7.064  18.429  0.00  0.00    +0.000 A 
ATOM      6  C   UNL     1       2.224   5.795  18.276  0.00  0.00    +0.000 A 
ENDROOT
BRANCH   5   7
ATOM      7  N   UNL     1       2.114   8.175  19.001  0.00  0.00    +0.000 N 
ATOM      8  C   UNL     1       1.487   8.171  20.327  0.00  0.00    +0.000 C 
ATOM      9  C   UNL     1       0.761   9.491  20.370  0.00  0.00    +0.000 A 
ATOM     10  C   UNL     1       0.965  10.150  19.168  0.00  0.00    +0.000 A 
ATOM     11  C   UNL     1       0.417  11.377  18.895  0.00  0.00    +0.000 A 
ATOM     12  N   UNL     1      -0.345  12.011  19.808  0.00  0.00    +0.000 NA
ATOM     13  C   UNL     1      -0.536  11.377  20.998  0.00  0.00    +0.000 A 
ATOM     14  C   UNL     1      -0.015  10.120  21.337  0.00  0.00    +0.000 A 
ATOM     15  C   UNL     1       1.821   9.357  18.314  0.00  0.00    +0.000 C 
ATOM     16  O   UNL     1       2.151   9.772  17.221  0.00  0.00    +0.000 OA
BRANCH  14  17
ATOM     17  C   UNL     1      -0.313   9.574  22.693  0.00  0.00    +0.000 C 
ATOM     18  F   UNL     1      -0.970   8.384  22.660  0.00  0.00    +0.000 F 
ATOM     19  F   UNL     1       0.815   9.362  23.423  0.00  0.00    +0.000 F 
ATOM     20  F   UNL     1      -1.088  10.413  23.433  0.00  0.00    +0.000 F 
ENDBRANCH  14  17
ENDBRANCH   5   7
BRANCH   1  21
ATOM     21  C   UNL     1       2.196   3.454  17.238  0.00  0.00    +0.000 C 
BRANCH  21  22
ATOM     22  C   UNL     1       1.733   2.620  18.441  0.00  0.00    +0.000 C 
BRANCH  22  28
ATOM     23  C   UNL     1       1.829   3.005  21.594  0.00  0.00    +0.000 C 
ATOM     24  N   UNL     1       2.884   2.530  20.740  0.00  0.00    +0.000 N 
ATOM     25  C   UNL     1       4.122   2.152  21.166  0.00  0.00    +0.000 A 
ATOM     26  N   UNL     1       4.835   1.751  20.142  0.00  0.00    +0.000 NA
ATOM     27  N   UNL     1       4.051   1.868  19.020  0.00  0.00    +0.000 NA
ATOM     28  C   UNL     1       2.873   2.347  19.378  0.00  0.00    +0.000 A 
ENDBRANCH  22  28
ENDBRANCH  21  22
ENDBRANCH   1  21
TORSDOF 5
ENDMDL
MODEL 7
REMARK VINA RESULT:      -8.7      1.936      2.622
REMARK  Name = 
REMARK  6 active torsions:
REMARK  status: ('A' for Active; 'I' for Inactive)
REMARK    1  A    between atoms: C_1  and  N_2
REMARK    2  A    between atoms: C_6  and  C_7
REMARK    3  A    between atoms: C_7  and  C_8
REMARK    4  A    between atoms: C_8  and  C_9
REMARK    5  A    between atoms: C_13  and  N_14
REMARK    6  A    between atoms: C_21  and  C_22
REMARK                            x       y       z     vdW  Elec       q    Type
REMARK                         _______ _______ _______ _____ _____    ______ ____
ROOT
ATOM      1  C   UNL     1       4.274   4.623  18.146  0.00  0.00    +0.000 A 
ATOM      2  C   UNL     1       3.308   3.700  17.721  0.00  0.00    +0.000 A 
ATOM      3  C   UNL     1       1.973   4.058  17.675  0.00  0.00    +0.000 A 
ATOM      4  C   UNL     1       1.583   5.336  18.079  0.00  0.00    +0.000 A 
ATOM      5  C   UNL     1       2.509   6.293  18.529  0.00  0.00    +0.000 A 
ATOM      6  C   UNL     1       3.867   5.929  18.519  0.00  0.00    +0.000 A 
ENDROOT
BRANCH   5   7
ATOM      7  N   UNL     1       2.047   7.547  19.037  0.00  0.00    +0.000 N 
ATOM      8  C   UNL     1       1.440   7.737  20.359  0.00  0.00    +0.000 C 
ATOM      9  C   UNL     1       0.988   9.175  20.328  0.00  0.00    +0.000 A 
ATOM     10  C   UNL     1       1.310   9.716  19.093  0.00  0.00    +0.000 A 
ATOM     11  C   UNL     1       1.012  11.010  18.753  0.00  0.00    +0.000 A 
ATOM     12  N   UNL     1       0.395  11.829  19.627  0.00  0.00    +0.000 NA
ATOM     13  C   UNL     1       0.090  11.309  20.848  0.00  0.00    +0.000 A 
ATOM     14  C   UNL     1       0.357   9.995  21.256  0.00  0.00    +0.000 A 
ATOM     15  C   UNL     1       1.988   8.725  18.286  0.00  0.00    +0.000 C 
ATOM     16  O   UNL     1       2.386   9.009  17.175  0.00  0.00    +0.000 OA
BRANCH  14  17
ATOM     17  C   UNL     1      -0.034   9.591  22.639  0.00  0.00    +0.000 C 
ATOM     18  F   UNL     1      -0.677  10.574  23.324  0.00  0.00    +0.000 F 
ATOM     19  F   UNL     1      -0.869   8.518  22.646  0.00  0.00    +0.000 F 
ATOM     20  F   UNL     1       1.037   9.238  23.400  0.00  0.00    +0.000 F 
ENDBRANCH  14  17
ENDBRANCH   5   7
BRANCH   1  21
ATOM     21  C   UNL     1       5.708   4.161  18.310  0.00  0.00    +0.000 C 
BRANCH  21  22
ATOM     22  C   UNL     1       6.677   4.592  17.199  0.00  0.00    +0.000 C 
BRANCH  22  28
ATOM     23  C   UNL     1       8.213   5.699  19.751  0.00  0.00    +0.000 C 
ATOM     24  N   UNL     1       7.852   6.429  18.565  0.00  0.00    +0.000 N 
ATOM     25  C   UNL     1       8.129   7.744  18.344  0.00  0.00    +0.000 A 
ATOM     26  N   UNL     1       7.685   8.093  17.161  0.00  0.00    +0.000 NA
ATOM     27  N   UNL     1       7.102   6.985  16.594  0.00  0.00    +0.000 NA
ATOM     28  C   UNL     1       7.194   5.979  17.445  0.00  0.00    +0.000 A 
ENDBRANCH  22  28
ENDBRANCH  21  22
ENDBRANCH   1  21
TORSDOF 5
ENDMDL
MODEL 8
REMARK VINA RESULT:      -8.7      3.260      4.589
REMARK  Name = 
REMARK  6 active torsions:
REMARK  status: ('A' for Active; 'I' for Inactive)
REMARK    1  A    between atoms: C_1  and  N_2
REMARK    2  A    between atoms: C_6  and  C_7
REMARK    3  A    between atoms: C_7  and  C_8
REMARK    4  A    between atoms: C_8  and  C_9
REMARK    5  A    between atoms: C_13  and  N_14
REMARK    6  A    between atoms: C_21  and  C_22
REMARK                            x       y       z     vdW  Elec       q    Type
REMARK                         _______ _______ _______ _____ _____    ______ ____
ROOT
ATOM      1  C   UNL     1       2.822   4.754  17.675  0.00  0.00    +0.000 A 
ATOM      2  C   UNL     1       4.074   4.998  17.095  0.00  0.00    +0.000 A 
ATOM      3  C   UNL     1       4.662   6.246  17.203  0.00  0.00    +0.000 A 
ATOM      4  C   UNL     1       3.992   7.273  17.871  0.00  0.00    +0.000 A 
ATOM      5  C   UNL     1       2.729   7.085  18.455  0.00  0.00    +0.000 A 
ATOM      6  C   UNL     1       2.170   5.796  18.381  0.00  0.00    +0.000 A 
ENDROOT
BRANCH   5   7
ATOM      7  N   UNL     1       2.037   8.196  19.029  0.00  0.00    +0.000 N 
ATOM      8  C   UNL     1       1.445   8.205  20.371  0.00  0.00    +0.000 C 
ATOM      9  C   UNL     1       0.707   9.520  20.415  0.00  0.00    +0.000 A 
ATOM     10  C   UNL     1       0.873  10.163  19.199  0.00  0.00    +0.000 A 
ATOM     11  C   UNL     1       0.306  11.381  18.924  0.00  0.00    +0.000 A 
ATOM     12  N   UNL     1      -0.439  12.020  19.847  0.00  0.00    +0.000 NA
ATOM     13  C   UNL     1      -0.592  11.401  21.051  0.00  0.00    +0.000 A 
ATOM     14  C   UNL     1      -0.049  10.154  21.393  0.00  0.00    +0.000 A 
ATOM     15  C   UNL     1       1.714   9.366  18.334  0.00  0.00    +0.000 C 
ATOM     16  O   UNL     1       2.011   9.769  17.228  0.00  0.00    +0.000 OA
BRANCH  14  17
ATOM     17  C   UNL     1      -0.306   9.625  22.765  0.00  0.00    +0.000 C 
ATOM     18  F   UNL     1       0.831   9.387  23.470  0.00  0.00    +0.000 F 
ATOM     19  F   UNL     1      -1.046  10.482  23.518  0.00  0.00    +0.000 F 
ATOM     20  F   UNL     1      -0.993   8.450  22.748  0.00  0.00    +0.000 F 
ENDBRANCH  14  17
ENDBRANCH   5   7
BRANCH   1  21
ATOM     21  C   UNL     1       2.146   3.420  17.428  0.00  0.00    +0.000 C 
BRANCH  21  22
ATOM     22  C   UNL     1       1.096   3.003  18.467  0.00  0.00    +0.000 C 
BRANCH  22  28
ATOM     23  C   UNL     1       3.875   1.709  19.303  0.00  0.00    +0.000 C 
ATOM     24  N   UNL     1       2.909   2.333  20.166  0.00  0.00    +0.000 N 
ATOM     25  C   UNL     1       3.045   2.477  21.514  0.00  0.00    +0.000 A 
ATOM     26  N   UNL     1       2.000   3.105  21.995  0.00  0.00    +0.000 NA
ATOM     27  N   UNL     1       1.160   3.379  20.943  0.00  0.00    +0.000 NA
ATOM     28  C   UNL     1       1.703   2.905  19.836  0.00  0.00    +0.000 A 
ENDBRANCH  22  28
ENDBRANCH  21  22
ENDBRANCH   1  21
TORSDOF 5
ENDMDL
MODEL 9
REMARK VINA RESULT:      -8.6      4.188      8.943
REMARK  Name = 
REMARK  6 active torsions:
REMARK  status: ('A' for Active; 'I' for Inactive)
REMARK    1  A    between atoms: C_1  and  N_2
REMARK    2  A    between atoms: C_6  and  C_7
REMARK    3  A    between atoms: C_7  and  C_8
REMARK    4  A    between atoms: C_8  and  C_9
REMARK    5  A    between atoms: C_13  and  N_14
REMARK    6  A    between atoms: C_21  and  C_22
REMARK                            x       y       z     vdW  Elec       q    Type
REMARK                         _______ _______ _______ _____ _____    ______ ____
ROOT
ATOM      1  C   UNL     1       0.117  10.070  19.806  0.00  0.00    +0.000 A 
ATOM      2  C   UNL     1      -0.029  10.028  21.199  0.00  0.00    +0.000 A 
ATOM      3  C   UNL     1       0.657   9.086  21.945  0.00  0.00    +0.000 A 
ATOM      4  C   UNL     1       1.477   8.156  21.303  0.00  0.00    +0.000 A 
ATOM      5  C   UNL     1       1.644   8.144  19.908  0.00  0.00    +0.000 A 
ATOM      6  C   UNL     1       0.981   9.142  19.171  0.00  0.00    +0.000 A 
ENDROOT
BRANCH   5   7
ATOM      7  N   UNL     1       2.405   7.103  19.290  0.00  0.00    +0.000 N 
ATOM      8  C   UNL     1       3.359   7.307  18.195  0.00  0.00    +0.000 C 
ATOM      9  C   UNL     1       3.747   5.902  17.809  0.00  0.00    +0.000 A 
ATOM     10  C   UNL     1       3.056   5.013  18.615  0.00  0.00    +0.000 A 
ATOM     11  C   UNL     1       3.186   3.653  18.495  0.00  0.00    +0.000 A 
ATOM     12  N   UNL     1       4.017   3.116  17.581  0.00  0.00    +0.000 NA
ATOM     13  C   UNL     1       4.713   3.985  16.796  0.00  0.00    +0.000 A 
ATOM     14  C   UNL     1       4.620   5.383  16.860  0.00  0.00    +0.000 A 
ATOM     15  C   UNL     1       2.234   5.741  19.556  0.00  0.00    +0.000 C 
ATOM     16  O   UNL     1       1.569   5.144  20.379  0.00  0.00    +0.000 OA
BRANCH  14  17
ATOM     17  C   UNL     1       5.464   6.190  15.931  0.00  0.00    +0.000 C 
ATOM     18  F   UNL     1       4.740   7.003  15.116  0.00  0.00    +0.000 F 
ATOM     19  F   UNL     1       6.334   6.998  16.595  0.00  0.00    +0.000 F 
ATOM     20  F   UNL     1       6.224   5.413  15.111  0.00  0.00    +0.000 F 
ENDBRANCH  14  17
ENDBRANCH   5   7
BRANCH   1  21
ATOM     21  C   UNL     1      -0.746  11.025  19.006  0.00  0.00    +0.000 C 
BRANCH  21  22
ATOM     22  C   UNL     1      -1.411  10.433  17.755  0.00  0.00    +0.000 C 
BRANCH  22  28
ATOM     23  C   UNL     1      -3.147  10.545  15.096  0.00  0.00    +0.000 C 
ATOM     24  N   UNL     1      -3.519  11.020  16.402  0.00  0.00    +0.000 N 
ATOM     25  C   UNL     1      -4.712  11.601  16.711  0.00  0.00    +0.000 A 
ATOM     26  N   UNL     1      -4.738  11.898  17.987  0.00  0.00    +0.000 NA
ATOM     27  N   UNL     1      -3.538  11.506  18.528  0.00  0.00    +0.000 NA
ATOM     28  C   UNL     1      -2.795  10.982  17.570  0.00  0.00    +0.000 A 
ENDBRANCH  22  28
ENDBRANCH  21  22
ENDBRANCH   1  21
TORSDOF 5
ENDMDL
