MODEL 1
REMARK VINA RESULT:      -8.4      0.000      0.000
REMARK  Name = 
REMARK  6 active torsions:
REMARK  status: ('A' for Active; 'I' for Inactive)
REMARK    1  A    between atoms: C_1  and  C_2
REMARK    2  A    between atoms: C_2  and  C_3
REMARK    3  A    between atoms: C_7  and  S_8
REMARK    4  A    between atoms: S_8  and  N_11
REMARK    5  A    between atoms: C_13  and  C_14
REMARK    6  A    between atoms: C_14  and  O_15
REMARK                            x       y       z     vdW  Elec       q    Type
REMARK                         _______ _______ _______ _____ _____    ______ ____
ROOT
ATOM      1  S   UNL     1       3.356   5.247  18.909  0.00  0.00    +0.000 S 
ATOM      2  O   UNL     1       3.360   4.832  20.298  0.00  0.00    +0.000 OA
ATOM      3  O   UNL     1       2.585   4.509  17.931  0.00  0.00    +0.000 OA
ENDROOT
BRANCH   1  10
ATOM      4  C   UNL     1      -1.152  10.774  19.799  0.00  0.00    +0.000 C 
ATOM      5  C   UNL     1       0.350  10.727  20.099  0.00  0.00    +0.000 C 
ATOM      6  C   UNL     1       0.775  12.008  20.821  0.00  0.00    +0.000 C 
ATOM      7  C   UNL     1       0.733   9.473  20.922  0.00  0.00    +0.000 C 
ATOM      8  C   UNL     1       1.489   8.699  19.909  0.00  0.00    +0.000 A 
ATOM      9  C   UNL     1       2.033   7.427  20.002  0.00  0.00    +0.000 A 
ATOM     10  C   UNL     1       2.731   6.924  18.897  0.00  0.00    +0.000 A 
ATOM     11  C   UNL     1       2.832   7.681  17.711  0.00  0.00    +0.000 A 
ATOM     12  C   UNL     1       2.277   8.963  17.641  0.00  0.00    +0.000 A 
ATOM     13  C   UNL     1       1.622   9.450  18.755  0.00  0.00    +0.000 A 
ATOM     14  O   UNL     1       1.046  10.688  18.820  0.00  0.00    +0.000 OA
ENDBRANCH   1  10
BRANCH   1  15
ATOM     15  N   UNL     1       4.924   5.310  18.334  0.00  0.00    +0.000 N 
ATOM     16  C   UNL     1       6.087   5.334  19.252  0.00  0.00    +0.000 C 
ATOM     17  C   UNL     1       7.326   5.474  18.327  0.00  0.00    +0.000 C 
ATOM     18  C   UNL     1       6.772   4.999  17.007  0.00  0.00    +0.000 A 
ATOM     19  C   UNL     1       7.478   4.745  15.837  0.00  0.00    +0.000 A 
ATOM     20  C   UNL     1       6.762   4.413  14.688  0.00  0.00    +0.000 A 
ATOM     21  C   UNL     1       5.361   4.360  14.717  0.00  0.00    +0.000 A 
ATOM     22  C   UNL     1       4.660   4.634  15.896  0.00  0.00    +0.000 A 
ATOM     23  C   UNL     1       5.377   4.919  17.043  0.00  0.00    +0.000 A 
BRANCH  17  24
ATOM     24  C   UNL     1       7.812   6.930  18.272  0.00  0.00    +0.000 C 
BRANCH  24  25
ATOM     25  O   UNL     1       7.286   7.625  17.141  0.00  0.00    +0.000 OA
ATOM     26  H   UNL     1       6.770   6.998  16.609  0.00  0.00    +0.000 HD
ENDBRANCH  24  25
ENDBRANCH  17  24
ENDBRANCH   1  15
TORSDOF 4
ENDMDL
MODEL 2
REMARK VINA RESULT:      -8.3      1.112      1.795
REMARK  Name = 
REMARK  6 active torsions:
REMARK  status: ('A' for Active; 'I' for Inactive)
REMARK    1  A    between atoms: C_1  and  C_2
REMARK    2  A    between atoms: C_2  and  C_3
REMARK    3  A    between atoms: C_7  and  S_8
REMARK    4  A    between atoms: S_8  and  N_11
REMARK    5  A    between atoms: C_13  and  C_14
REMARK    6  A    between atoms: C_14  and  O_15
REMARK                            x       y       z     vdW  Elec       q    Type
REMARK                         _______ _______ _______ _____ _____    ______ ____
ROOT
ATOM      1  S   UNL     1       3.662   4.375  18.775  0.00  0.00    +0.000 S 
ATOM      2  O   UNL     1       3.889   3.725  20.051  0.00  0.00    +0.000 OA
ATOM      3  O   UNL     1       2.936   3.689  17.727  0.00  0.00    +0.000 OA
ENDROOT
BRANCH   1  10
ATOM      4  C   UNL     1       1.917  11.346  18.940  0.00  0.00    +0.000 C 
ATOM      5  C   UNL     1       0.987  10.147  18.717  0.00  0.00    +0.000 C 
ATOM      6  C   UNL     1      -0.410  10.640  18.332  0.00  0.00    +0.000 C 
ATOM      7  C   UNL     1       1.547   9.176  17.650  0.00  0.00    +0.000 C 
ATOM      8  C   UNL     1       1.907   8.015  18.497  0.00  0.00    +0.000 A 
ATOM      9  C   UNL     1       2.541   6.833  18.143  0.00  0.00    +0.000 A 
ATOM     10  C   UNL     1       2.748   5.870  19.138  0.00  0.00    +0.000 A 
ATOM     11  C   UNL     1       2.358   6.124  20.470  0.00  0.00    +0.000 A 
ATOM     12  C   UNL     1       1.718   7.323  20.803  0.00  0.00    +0.000 A 
ATOM     13  C   UNL     1       1.497   8.243  19.797  0.00  0.00    +0.000 A 
ATOM     14  O   UNL     1       0.874   9.445  19.988  0.00  0.00    +0.000 OA
ENDBRANCH   1  10
BRANCH   1  15
ATOM     15  N   UNL     1       5.122   4.849  18.115  0.00  0.00    +0.000 N 
ATOM     16  C   UNL     1       6.311   5.102  18.963  0.00  0.00    +0.000 C 
ATOM     17  C   UNL     1       7.409   5.590  17.980  0.00  0.00    +0.000 C 
ATOM     18  C   UNL     1       6.888   5.071  16.663  0.00  0.00    +0.000 A 
ATOM     19  C   UNL     1       7.545   5.062  15.439  0.00  0.00    +0.000 A 
ATOM     20  C   UNL     1       6.845   4.632  14.312  0.00  0.00    +0.000 A 
ATOM     21  C   UNL     1       5.503   4.240  14.419  0.00  0.00    +0.000 A 
ATOM     22  C   UNL     1       4.846   4.267  15.654  0.00  0.00    +0.000 A 
ATOM     23  C   UNL     1       5.558   4.653  16.775  0.00  0.00    +0.000 A 
BRANCH  17  24
ATOM     24  C   UNL     1       7.528   7.122  18.002  0.00  0.00    +0.000 C 
BRANCH  24  25
ATOM     25  O   UNL     1       8.553   7.565  18.891  0.00  0.00    +0.000 OA
ATOM     26  H   UNL     1       9.332   7.805  18.364  0.00  0.00    +0.000 HD
ENDBRANCH  24  25
ENDBRANCH  17  24
ENDBRANCH   1  15
TORSDOF 4
ENDMDL
MODEL 3
REMARK VINA RESULT:      -8.1      1.077      1.079
REMARK  Name = 
REMARK  6 active torsions:
REMARK  status: ('A' for Active; 'I' for Inactive)
REMARK    1  A    between atoms: C_1  and  C_2
REMARK    2  A    between atoms: C_2  and  C_3
REMARK    3  A    between atoms: C_7  and  S_8
REMARK    4  A    between atoms: S_8  and  N_11
REMARK    5  A    between atoms: C_13  and  C_14
REMARK    6  A    between atoms: C_14  and  O_15
REMARK                            x       y       z     vdW  Elec       q    Type
REMARK                         _______ _______ _______ _____ _____    ______ ____
ROOT
ATOM      1  S   UNL     1       2.866   5.033  18.997  0.00  0.00    +0.000 S 
ATOM      2  O   UNL     1       2.633   4.587  20.357  0.00  0.00    +0.000 OA
ATOM      3  O   UNL     1       2.157   4.413  17.897  0.00  0.00    +0.000 OA
ENDROOT
BRANCH   1  10
ATOM      4  C   UNL     1      -0.946  11.060  19.893  0.00  0.00    +0.000 C 
ATOM      5  C   UNL     1       0.549  10.844  20.155  0.00  0.00    +0.000 C 
ATOM      6  C   UNL     1       1.139  12.079  20.841  0.00  0.00    +0.000 C 
ATOM      7  C   UNL     1       0.806   9.568  20.993  0.00  0.00    +0.000 C 
ATOM      8  C   UNL     1       1.439   8.694  19.976  0.00  0.00    +0.000 A 
ATOM      9  C   UNL     1       1.834   7.369  20.080  0.00  0.00    +0.000 A 
ATOM     10  C   UNL     1       2.439   6.770  18.968  0.00  0.00    +0.000 A 
ATOM     11  C   UNL     1       2.594   7.490  17.765  0.00  0.00    +0.000 A 
ATOM     12  C   UNL     1       2.189   8.827  17.685  0.00  0.00    +0.000 A 
ATOM     13  C   UNL     1       1.626   9.406  18.805  0.00  0.00    +0.000 A 
ATOM     14  O   UNL     1       1.200  10.703  18.860  0.00  0.00    +0.000 OA
ENDBRANCH   1  10
BRANCH   1  15
ATOM     15  N   UNL     1       4.494   4.928  18.639  0.00  0.00    +0.000 N 
ATOM     16  C   UNL     1       5.465   4.353  19.601  0.00  0.00    +0.000 C 
ATOM     17  C   UNL     1       6.850   4.517  18.919  0.00  0.00    +0.000 C 
ATOM     18  C   UNL     1       6.457   4.683  17.473  0.00  0.00    +0.000 A 
ATOM     19  C   UNL     1       7.298   4.702  16.366  0.00  0.00    +0.000 A 
ATOM     20  C   UNL     1       6.744   4.975  15.115  0.00  0.00    +0.000 A 
ATOM     21  C   UNL     1       5.374   5.243  14.992  0.00  0.00    +0.000 A 
ATOM     22  C   UNL     1       4.539   5.238  16.115  0.00  0.00    +0.000 A 
ATOM     23  C   UNL     1       5.086   4.924  17.345  0.00  0.00    +0.000 A 
BRANCH  17  24
ATOM     24  C   UNL     1       7.594   5.742  19.471  0.00  0.00    +0.000 C 
BRANCH  24  25
ATOM     25  O   UNL     1       8.131   5.501  20.771  0.00  0.00    +0.000 OA
ATOM     26  H   UNL     1       8.594   6.302  21.065  0.00  0.00    +0.000 HD
ENDBRANCH  24  25
ENDBRANCH  17  24
ENDBRANCH   1  15
TORSDOF 4
ENDMDL
MODEL 4
REMARK VINA RESULT:      -8.0      3.433      8.865
REMARK  Name = 
REMARK  6 active torsions:
REMARK  status: ('A' for Active; 'I' for Inactive)
REMARK    1  A    between atoms: C_1  and  C_2
REMARK    2  A    between atoms: C_2  and  C_3
REMARK    3  A    between atoms: C_7  and  S_8
REMARK    4  A    between atoms: S_8  and  N_11
REMARK    5  A    between atoms: C_13  and  C_14
REMARK    6  A    between atoms: C_14  and  O_15
REMARK                            x       y       z     vdW  Elec       q    Type
REMARK                         _______ _______ _______ _____ _____    ______ ____
ROOT
ATOM      1  S   UNL     1       0.115  11.396  19.290  0.00  0.00    +0.000 S 
ATOM      2  O   UNL     1      -0.205  11.857  20.627  0.00  0.00    +0.000 OA
ATOM      3  O   UNL     1       0.939  12.207  18.418  0.00  0.00    +0.000 OA
ENDROOT
BRANCH   1  10
ATOM      4  C   UNL     1       2.534   4.785  17.841  0.00  0.00    +0.000 C 
ATOM      5  C   UNL     1       3.294   5.942  18.496  0.00  0.00    +0.000 C 
ATOM      6  C   UNL     1       4.770   5.569  18.655  0.00  0.00    +0.000 C 
ATOM      7  C   UNL     1       3.137   7.259  17.697  0.00  0.00    +0.000 C 
ATOM      8  C   UNL     1       2.287   8.043  18.623  0.00  0.00    +0.000 A 
ATOM      9  C   UNL     1       1.721   9.297  18.446  0.00  0.00    +0.000 A 
ATOM     10  C   UNL     1       0.968   9.836  19.497  0.00  0.00    +0.000 A 
ATOM     11  C   UNL     1       0.760   9.097  20.680  0.00  0.00    +0.000 A 
ATOM     12  C   UNL     1       1.343   7.834  20.836  0.00  0.00    +0.000 A 
ATOM     13  C   UNL     1       2.108   7.338  19.799  0.00  0.00    +0.000 A 
ATOM     14  O   UNL     1       2.739   6.126  19.830  0.00  0.00    +0.000 OA
ENDBRANCH   1  10
BRANCH   1  15
ATOM     15  N   UNL     1      -1.293  11.071  18.452  0.00  0.00    +0.000 N 
ATOM     16  C   UNL     1      -1.387   9.934  17.505  0.00  0.00    +0.000 C 
ATOM     17  C   UNL     1      -2.811  10.038  16.894  0.00  0.00    +0.000 C 
ATOM     18  C   UNL     1      -3.520  10.883  17.922  0.00  0.00    +0.000 A 
ATOM     19  C   UNL     1      -4.878  11.167  17.991  0.00  0.00    +0.000 A 
ATOM     20  C   UNL     1      -5.322  12.062  18.965  0.00  0.00    +0.000 A 
ATOM     21  C   UNL     1      -4.407  12.672  19.834  0.00  0.00    +0.000 A 
ATOM     22  C   UNL     1      -3.040  12.393  19.745  0.00  0.00    +0.000 A 
ATOM     23  C   UNL     1      -2.611  11.472  18.808  0.00  0.00    +0.000 A 
BRANCH  17  24
ATOM     24  C   UNL     1      -2.770  10.704  15.511  0.00  0.00    +0.000 C 
BRANCH  24  25
ATOM     25  O   UNL     1      -3.712  10.122  14.610  0.00  0.00    +0.000 OA
ATOM     26  H   UNL     1      -3.377   9.252  14.337  0.00  0.00    +0.000 HD
ENDBRANCH  24  25
ENDBRANCH  17  24
ENDBRANCH   1  15
TORSDOF 4
ENDMDL
MODEL 5
REMARK VINA RESULT:      -7.8      1.876      3.339
REMARK  Name = 
REMARK  6 active torsions:
REMARK  status: ('A' for Active; 'I' for Inactive)
REMARK    1  A    between atoms: C_1  and  C_2
REMARK    2  A    between atoms: C_2  and  C_3
REMARK    3  A    between atoms: C_7  and  S_8
REMARK    4  A    between atoms: S_8  and  N_11
REMARK    5  A    between atoms: C_13  and  C_14
REMARK    6  A    between atoms: C_14  and  O_15
REMARK                            x       y       z     vdW  Elec       q    Type
REMARK                         _______ _______ _______ _____ _____    ______ ____
ROOT
ATOM      1  S   UNL     1       3.716   3.460  18.001  0.00  0.00    +0.000 S 
ATOM      2  O   UNL     1       4.333   2.539  18.935  0.00  0.00    +0.000 OA
ATOM      3  O   UNL     1       2.860   2.962  16.945  0.00  0.00    +0.000 OA
ENDROOT
BRANCH   1  10
ATOM      4  C   UNL     1       1.902   9.163  21.982  0.00  0.00    +0.000 C 
ATOM      5  C   UNL     1       1.078   8.481  20.884  0.00  0.00    +0.000 C 
ATOM      6  C   UNL     1      -0.175   9.308  20.587  0.00  0.00    +0.000 C 
ATOM      7  C   UNL     1       1.911   8.254  19.599  0.00  0.00    +0.000 C 
ATOM      8  C   UNL     1       2.051   6.778  19.619  0.00  0.00    +0.000 A 
ATOM      9  C   UNL     1       2.770   5.952  18.768  0.00  0.00    +0.000 A 
ATOM     10  C   UNL     1       2.720   4.570  18.989  0.00  0.00    +0.000 A 
ATOM     11  C   UNL     1       1.992   4.047  20.078  0.00  0.00    +0.000 A 
ATOM     12  C   UNL     1       1.272   4.900  20.922  0.00  0.00    +0.000 A 
ATOM     13  C   UNL     1       1.310   6.256  20.664  0.00  0.00    +0.000 A 
ATOM     14  O   UNL     1       0.644   7.191  21.405  0.00  0.00    +0.000 OA
ENDBRANCH   1  10
BRANCH   1  15
ATOM     15  N   UNL     1       4.892   4.391  17.264  0.00  0.00    +0.000 N 
ATOM     16  C   UNL     1       4.724   4.901  15.882  0.00  0.00    +0.000 C 
ATOM     17  C   UNL     1       6.055   5.634  15.561  0.00  0.00    +0.000 C 
ATOM     18  C   UNL     1       6.598   5.895  16.944  0.00  0.00    +0.000 A 
ATOM     19  C   UNL     1       7.694   6.676  17.287  0.00  0.00    +0.000 A 
ATOM     20  C   UNL     1       8.099   6.704  18.622  0.00  0.00    +0.000 A 
ATOM     21  C   UNL     1       7.421   5.941  19.583  0.00  0.00    +0.000 A 
ATOM     22  C   UNL     1       6.328   5.145  19.223  0.00  0.00    +0.000 A 
ATOM     23  C   UNL     1       5.904   5.155  17.907  0.00  0.00    +0.000 A 
BRANCH  17  24
ATOM     24  C   UNL     1       6.986   4.745  14.723  0.00  0.00    +0.000 C 
BRANCH  24  25
ATOM     25  O   UNL     1       7.889   5.516  13.930  0.00  0.00    +0.000 OA
ATOM     26  H   UNL     1       8.166   4.977  13.170  0.00  0.00    +0.000 HD
ENDBRANCH  24  25
ENDBRANCH  17  24
ENDBRANCH   1  15
TORSDOF 4
ENDMDL
MODEL 6
REMARK VINA RESULT:      -7.8      3.022      7.589
REMARK  Name = 
REMARK  6 active torsions:
REMARK  status: ('A' for Active; 'I' for Inactive)
REMARK    1  A    between atoms: C_1  and  C_2
REMARK    2  A    between atoms: C_2  and  C_3
REMARK    3  A    between atoms: C_7  and  S_8
REMARK    4  A    between atoms: S_8  and  N_11
REMARK    5  A    between atoms: C_13  and  C_14
REMARK    6  A    between atoms: C_14  and  O_15
REMARK                            x       y       z     vdW  Elec       q    Type
REMARK                         _______ _______ _______ _____ _____    ______ ____
ROOT
ATOM      1  S   UNL     1       7.164   5.288  17.350  0.00  0.00    +0.000 S 
ATOM      2  O   UNL     1       8.118   4.296  17.807  0.00  0.00    +0.000 OA
ATOM      3  O   UNL     1       7.471   6.698  17.459  0.00  0.00    +0.000 OA
ENDROOT
BRANCH   1  10
ATOM      4  C   UNL     1       5.739   1.643  11.321  0.00  0.00    +0.000 C 
ATOM      5  C   UNL     1       5.248   3.040  11.714  0.00  0.00    +0.000 C 
ATOM      6  C   UNL     1       4.212   3.530  10.700  0.00  0.00    +0.000 C 
ATOM      7  C   UNL     1       4.672   3.063  13.151  0.00  0.00    +0.000 C 
ATOM      8  C   UNL     1       5.712   3.853  13.852  0.00  0.00    +0.000 A 
ATOM      9  C   UNL     1       5.821   4.160  15.200  0.00  0.00    +0.000 A 
ATOM     10  C   UNL     1       6.900   4.953  15.612  0.00  0.00    +0.000 A 
ATOM     11  C   UNL     1       7.866   5.384  14.679  0.00  0.00    +0.000 A 
ATOM     12  C   UNL     1       7.733   5.064  13.324  0.00  0.00    +0.000 A 
ATOM     13  C   UNL     1       6.644   4.309  12.937  0.00  0.00    +0.000 A 
ATOM     14  O   UNL     1       6.393   3.938  11.646  0.00  0.00    +0.000 OA
ENDBRANCH   1  10
BRANCH   1  15
ATOM     15  N   UNL     1       5.697   5.057  18.116  0.00  0.00    +0.000 N 
ATOM     16  C   UNL     1       5.546   4.084  19.225  0.00  0.00    +0.000 C 
ATOM     17  C   UNL     1       4.038   4.122  19.589  0.00  0.00    +0.000 C 
ATOM     18  C   UNL     1       3.622   5.454  19.016  0.00  0.00    +0.000 A 
ATOM     19  C   UNL     1       2.407   6.106  19.188  0.00  0.00    +0.000 A 
ATOM     20  C   UNL     1       2.180   7.287  18.483  0.00  0.00    +0.000 A 
ATOM     21  C   UNL     1       3.155   7.785  17.606  0.00  0.00    +0.000 A 
ATOM     22  C   UNL     1       4.368   7.113  17.428  0.00  0.00    +0.000 A 
ATOM     23  C   UNL     1       4.605   5.966  18.163  0.00  0.00    +0.000 A 
BRANCH  17  24
ATOM     24  C   UNL     1       3.285   2.946  18.950  0.00  0.00    +0.000 C 
BRANCH  24  25
ATOM     25  O   UNL     1       4.128   1.809  18.766  0.00  0.00    +0.000 OA
ATOM     26  H   UNL     1       4.617   1.654  19.591  0.00  0.00    +0.000 HD
ENDBRANCH  24  25
ENDBRANCH  17  24
ENDBRANCH   1  15
TORSDOF 4
ENDMDL
MODEL 7
REMARK VINA RESULT:      -7.7      2.817      7.525
REMARK  Name = 
REMARK  6 active torsions:
REMARK  status: ('A' for Active; 'I' for Inactive)
REMARK    1  A    between atoms: C_1  and  C_2
REMARK    2  A    between atoms: C_2  and  C_3
REMARK    3  A    between atoms: C_7  and  S_8
REMARK    4  A    between atoms: S_8  and  N_11
REMARK    5  A    between atoms: C_13  and  C_14
REMARK    6  A    between atoms: C_14  and  O_15
REMARK                            x       y       z     vdW  Elec       q    Type
REMARK                         _______ _______ _______ _____ _____    ______ ____
ROOT
ATOM      1  S   UNL     1       6.250   5.395  17.552  0.00  0.00    +0.000 S 
ATOM      2  O   UNL     1       6.902   4.295  18.235  0.00  0.00    +0.000 OA
ATOM      3  O   UNL     1       6.753   6.745  17.701  0.00  0.00    +0.000 OA
ENDROOT
BRANCH   1  10
ATOM      4  C   UNL     1       5.837   1.612  11.454  0.00  0.00    +0.000 C 
ATOM      5  C   UNL     1       5.386   3.057  11.698  0.00  0.00    +0.000 C 
ATOM      6  C   UNL     1       4.627   3.577  10.474  0.00  0.00    +0.000 C 
ATOM      7  C   UNL     1       4.525   3.181  12.979  0.00  0.00    +0.000 C 
ATOM      8  C   UNL     1       5.454   3.923  13.864  0.00  0.00    +0.000 A 
ATOM      9  C   UNL     1       5.303   4.277  15.196  0.00  0.00    +0.000 A 
ATOM     10  C   UNL     1       6.330   5.008  15.806  0.00  0.00    +0.000 A 
ATOM     11  C   UNL     1       7.501   5.329  15.089  0.00  0.00    +0.000 A 
ATOM     12  C   UNL     1       7.630   4.963  13.745  0.00  0.00    +0.000 A 
ATOM     13  C   UNL     1       6.590   4.272  13.156  0.00  0.00    +0.000 A 
ATOM     14  O   UNL     1       6.587   3.866  11.851  0.00  0.00    +0.000 OA
ENDBRANCH   1  10
BRANCH   1  15
ATOM     15  N   UNL     1       4.632   5.438  17.964  0.00  0.00    +0.000 N 
ATOM     16  C   UNL     1       3.823   6.670  17.804  0.00  0.00    +0.000 C 
ATOM     17  C   UNL     1       2.424   6.308  18.370  0.00  0.00    +0.000 C 
ATOM     18  C   UNL     1       2.451   4.802  18.304  0.00  0.00    +0.000 A 
ATOM     19  C   UNL     1       1.395   3.927  18.526  0.00  0.00    +0.000 A 
ATOM     20  C   UNL     1       1.654   2.557  18.521  0.00  0.00    +0.000 A 
ATOM     21  C   UNL     1       2.958   2.084  18.316  0.00  0.00    +0.000 A 
ATOM     22  C   UNL     1       4.017   2.974  18.109  0.00  0.00    +0.000 A 
ATOM     23  C   UNL     1       3.747   4.330  18.072  0.00  0.00    +0.000 A 
BRANCH  17  24
ATOM     24  C   UNL     1       2.257   6.831  19.805  0.00  0.00    +0.000 C 
BRANCH  24  25
ATOM     25  O   UNL     1       2.616   5.849  20.776  0.00  0.00    +0.000 OA
ATOM     26  H   UNL     1       3.572   5.694  20.715  0.00  0.00    +0.000 HD
ENDBRANCH  24  25
ENDBRANCH  17  24
ENDBRANCH   1  15
TORSDOF 4
ENDMDL
MODEL 8
REMARK VINA RESULT:      -7.6      2.849      7.787
REMARK  Name = 
REMARK  6 active torsions:
REMARK  status: ('A' for Active; 'I' for Inactive)
REMARK    1  A    between atoms: C_1  and  C_2
REMARK    2  A    between atoms: C_2  and  C_3
REMARK    3  A    between atoms: C_7  and  S_8
REMARK    4  A    between atoms: S_8  and  N_11
REMARK    5  A    between atoms: C_13  and  C_14
REMARK    6  A    between atoms: C_14  and  O_15
REMARK                            x       y       z     vdW  Elec       q    Type
REMARK                         _______ _______ _______ _____ _____    ______ ____
ROOT
ATOM      1  S   UNL     1       0.730   9.088  21.396  0.00  0.00    +0.000 S 
ATOM      2  O   UNL     1      -0.509   8.404  21.711  0.00  0.00    +0.000 OA
ATOM      3  O   UNL     1       1.698   9.359  22.438  0.00  0.00    +0.000 OA
ENDROOT
BRANCH   1  10
ATOM      4  C   UNL     1       5.460   4.501  18.524  0.00  0.00    +0.000 C 
ATOM      5  C   UNL     1       3.950   4.574  18.276  0.00  0.00    +0.000 C 
ATOM      6  C   UNL     1       3.504   3.374  17.436  0.00  0.00    +0.000 C 
ATOM      7  C   UNL     1       3.153   4.650  19.601  0.00  0.00    +0.000 C 
ATOM      8  C   UNL     1       2.654   6.045  19.542  0.00  0.00    +0.000 A 
ATOM      9  C   UNL     1       1.934   6.760  20.487  0.00  0.00    +0.000 A 
ATOM     10  C   UNL     1       1.558   8.073  20.177  0.00  0.00    +0.000 A 
ATOM     11  C   UNL     1       1.945   8.656  18.953  0.00  0.00    +0.000 A 
ATOM     12  C   UNL     1       2.670   7.914  18.014  0.00  0.00    +0.000 A 
ATOM     13  C   UNL     1       3.001   6.611  18.329  0.00  0.00    +0.000 A 
ATOM     14  O   UNL     1       3.696   5.778  17.497  0.00  0.00    +0.000 OA
ENDBRANCH   1  10
BRANCH   1  15
ATOM     15  N   UNL     1       0.396  10.551  20.661  0.00  0.00    +0.000 N 
ATOM     16  C   UNL     1       1.307  11.713  20.797  0.00  0.00    +0.000 C 
ATOM     17  C   UNL     1       0.597  12.870  20.044  0.00  0.00    +0.000 C 
ATOM     18  C   UNL     1      -0.353  12.111  19.151  0.00  0.00    +0.000 A 
ATOM     19  C   UNL     1      -1.135  12.621  18.122  0.00  0.00    +0.000 A 
ATOM     20  C   UNL     1      -2.032  11.766  17.481  0.00  0.00    +0.000 A 
ATOM     21  C   UNL     1      -2.148  10.430  17.889  0.00  0.00    +0.000 A 
ATOM     22  C   UNL     1      -1.368   9.930  18.937  0.00  0.00    +0.000 A 
ATOM     23  C   UNL     1      -0.450  10.771  19.539  0.00  0.00    +0.000 A 
BRANCH  17  24
ATOM     24  C   UNL     1      -0.134  13.800  21.023  0.00  0.00    +0.000 C 
BRANCH  24  25
ATOM     25  O   UNL     1       0.498  13.832  22.303  0.00  0.00    +0.000 OA
ATOM     26  H   UNL     1       0.329  12.985  22.748  0.00  0.00    +0.000 HD
ENDBRANCH  24  25
ENDBRANCH  17  24
ENDBRANCH   1  15
TORSDOF 4
ENDMDL
MODEL 9
REMARK VINA RESULT:      -7.6      1.707      2.487
REMARK  Name = 
REMARK  6 active torsions:
REMARK  status: ('A' for Active; 'I' for Inactive)
REMARK    1  A    between atoms: C_1  and  C_2
REMARK    2  A    between atoms: C_2  and  C_3
REMARK    3  A    between atoms: C_7  and  S_8
REMARK    4  A    between atoms: S_8  and  N_11
REMARK    5  A    between atoms: C_13  and  C_14
REMARK    6  A    between atoms: C_14  and  O_15
REMARK                            x       y       z     vdW  Elec       q    Type
REMARK                         _______ _______ _______ _____ _____    ______ ____
ROOT
ATOM      1  S   UNL     1       4.393   3.500  18.624  0.00  0.00    +0.000 S 
ATOM      2  O   UNL     1       5.030   2.821  19.736  0.00  0.00    +0.000 OA
ATOM      3  O   UNL     1       3.695   2.739  17.609  0.00  0.00    +0.000 OA
ENDROOT
BRANCH   1  10
ATOM      4  C   UNL     1       1.670   9.320  21.844  0.00  0.00    +0.000 C 
ATOM      5  C   UNL     1       1.083   8.535  20.666  0.00  0.00    +0.000 C 
ATOM      6  C   UNL     1      -0.130   9.278  20.101  0.00  0.00    +0.000 C 
ATOM      7  C   UNL     1       2.139   8.278  19.564  0.00  0.00    +0.000 C 
ATOM      8  C   UNL     1       2.333   6.815  19.705  0.00  0.00    +0.000 A 
ATOM      9  C   UNL     1       3.225   5.980  19.049  0.00  0.00    +0.000 A 
ATOM     10  C   UNL     1       3.193   4.612  19.348  0.00  0.00    +0.000 A 
ATOM     11  C   UNL     1       2.305   4.116  20.325  0.00  0.00    +0.000 A 
ATOM     12  C   UNL     1       1.412   4.977  20.972  0.00  0.00    +0.000 A 
ATOM     13  C   UNL     1       1.441   6.316  20.637  0.00  0.00    +0.000 A 
ATOM     14  O   UNL     1       0.616   7.257  21.186  0.00  0.00    +0.000 OA
ENDBRANCH   1  10
BRANCH   1  15
ATOM     15  N   UNL     1       5.513   4.449  17.826  0.00  0.00    +0.000 N 
ATOM     16  C   UNL     1       6.583   5.168  18.558  0.00  0.00    +0.000 C 
ATOM     17  C   UNL     1       7.338   5.979  17.471  0.00  0.00    +0.000 C 
ATOM     18  C   UNL     1       6.949   5.238  16.216  0.00  0.00    +0.000 A 
ATOM     19  C   UNL     1       7.463   5.413  14.937  0.00  0.00    +0.000 A 
ATOM     20  C   UNL     1       6.890   4.697  13.886  0.00  0.00    +0.000 A 
ATOM     21  C   UNL     1       5.806   3.840  14.122  0.00  0.00    +0.000 A 
ATOM     22  C   UNL     1       5.285   3.684  15.411  0.00  0.00    +0.000 A 
ATOM     23  C   UNL     1       5.885   4.362  16.456  0.00  0.00    +0.000 A 
BRANCH  17  24
ATOM     24  C   UNL     1       6.876   7.444  17.455  0.00  0.00    +0.000 C 
BRANCH  24  25
ATOM     25  O   UNL     1       7.970   8.348  17.296  0.00  0.00    +0.000 OA
ATOM     26  H   UNL     1       8.027   8.597  16.359  0.00  0.00    +0.000 HD
ENDBRANCH  24  25
ENDBRANCH  17  24
ENDBRANCH   1  15
TORSDOF 4
ENDMDL
