MODEL 1
REMARK VINA RESULT:      -9.0      0.000      0.000
REMARK  Name = 
REMARK  8 active torsions:
REMARK  status: ('A' for Active; 'I' for Inactive)
REMARK    1  A    between atoms: C_1  and  C_2
REMARK    2  A    between atoms: C_5  and  N_6
REMARK    3  A    between atoms: N_6  and  S_7
REMARK    4  A    between atoms: S_7  and  C_10
REMARK    5  A    between atoms: C_13  and  N_14
REMARK    6  A    between atoms: C_15  and  C_17
REMARK    7  A    between atoms: C_25  and  C_26
REMARK    8  A    between atoms: C_29  and  C_30
REMARK                            x       y       z     vdW  Elec       q    Type
REMARK                         _______ _______ _______ _____ _____    ______ ____
ROOT
ATOM      1  C   UNL     1       0.938   9.635  19.470  0.00  0.00    +0.000 A 
ATOM      2  C   UNL     1       1.697   9.174  18.390  0.00  0.00    +0.000 A 
ATOM      3  C   UNL     1       2.395   7.968  18.487  0.00  0.00    +0.000 A 
ATOM      4  C   UNL     1       2.422   7.281  19.698  0.00  0.00    +0.000 A 
ATOM      5  C   UNL     1       1.661   7.736  20.782  0.00  0.00    +0.000 A 
ATOM      6  C   UNL     1       0.901   8.909  20.667  0.00  0.00    +0.000 A 
ENDROOT
BRANCH   4   7
ATOM      7  N   UNL     1       3.179   6.101  19.774  0.00  0.00    +0.000 N 
ATOM      8  C   UNL     1       2.662   4.824  19.600  0.00  0.00    +0.000 C 
ATOM      9  O   UNL     1       1.468   4.556  19.719  0.00  0.00    +0.000 OA
ATOM     10  H   UNL     1       4.153   6.165  20.045  0.00  0.00    +0.000 HD
BRANCH   8  11
ATOM     11  C   UNL     1       3.653   3.862  19.121  0.00  0.00    +0.000 A 
ATOM     12  O   UNL     1       4.959   4.186  19.434  0.00  0.00    +0.000 OA
ATOM     13  C   UNL     1       5.505   4.429  18.209  0.00  0.00    +0.000 A 
ATOM     14  C   UNL     1       6.626   5.219  17.990  0.00  0.00    +0.000 A 
ATOM     15  C   UNL     1       6.849   5.574  16.657  0.00  0.00    +0.000 A 
ATOM     16  C   UNL     1       6.046   5.081  15.624  0.00  0.00    +0.000 A 
ATOM     17  C   UNL     1       4.998   4.184  15.884  0.00  0.00    +0.000 A 
ATOM     18  C   UNL     1       4.702   3.885  17.219  0.00  0.00    +0.000 A 
ATOM     19  C   UNL     1       3.680   3.170  17.915  0.00  0.00    +0.000 A 
ATOM     20  C   UNL     1       2.685   2.231  17.339  0.00  0.00    +0.000 C 
ENDBRANCH   8  11
ENDBRANCH   4   7
BRANCH   1  21
ATOM     21  S   UNL     1       0.124  11.201  19.352  0.00  0.00    +0.000 S 
ATOM     22  O   UNL     1      -1.312  10.974  19.257  0.00  0.00    +0.000 OA
ATOM     23  O   UNL     1       0.797  11.996  18.354  0.00  0.00    +0.000 OA
BRANCH  21  24
ATOM     24  N   UNL     1       0.478  11.952  20.835  0.00  0.00    +0.000 N 
ATOM     25  H   UNL     1       1.172  12.670  20.641  0.00  0.00    +0.000 HD
BRANCH  24  30
ATOM     26  C   UNL     1      -3.514  12.335  23.853  0.00  0.00    +0.000 C 
ATOM     27  C   UNL     1      -2.453  12.528  22.836  0.00  0.00    +0.000 A 
ATOM     28  N   UNL     1      -2.447  13.631  22.080  0.00  0.00    +0.000 NA
ATOM     29  O   UNL     1      -1.326  13.527  21.281  0.00  0.00    +0.000 OA
ATOM     30  C   UNL     1      -0.680  12.359  21.542  0.00  0.00    +0.000 A 
ATOM     31  C   UNL     1      -1.349  11.677  22.534  0.00  0.00    +0.000 A 
ATOM     32  C   UNL     1      -0.996  10.412  23.221  0.00  0.00    +0.000 C 
ENDBRANCH  24  30
ENDBRANCH  21  24
ENDBRANCH   1  21
TORSDOF 5
ENDMDL
MODEL 2
REMARK VINA RESULT:      -8.8      2.188      2.989
REMARK  Name = 
REMARK  8 active torsions:
REMARK  status: ('A' for Active; 'I' for Inactive)
REMARK    1  A    between atoms: C_1  and  C_2
REMARK    2  A    between atoms: C_5  and  N_6
REMARK    3  A    between atoms: N_6  and  S_7
REMARK    4  A    between atoms: S_7  and  C_10
REMARK    5  A    between atoms: C_13  and  N_14
REMARK    6  A    between atoms: C_15  and  C_17
REMARK    7  A    between atoms: C_25  and  C_26
REMARK    8  A    between atoms: C_29  and  C_30
REMARK                            x       y       z     vdW  Elec       q    Type
REMARK                         _______ _______ _______ _____ _____    ______ ____
ROOT
ATOM      1  C   UNL     1       0.699   9.681  19.540  0.00  0.00    +0.000 A 
ATOM      2  C   UNL     1       0.739   8.957  20.735  0.00  0.00    +0.000 A 
ATOM      3  C   UNL     1       1.572   7.842  20.852  0.00  0.00    +0.000 A 
ATOM      4  C   UNL     1       2.280   7.389  19.741  0.00  0.00    +0.000 A 
ATOM      5  C   UNL     1       2.246   8.113  18.543  0.00  0.00    +0.000 A 
ATOM      6  C   UNL     1       1.466   9.275  18.442  0.00  0.00    +0.000 A 
ENDROOT
BRANCH   4   7
ATOM      7  N   UNL     1       3.064   6.234  19.881  0.00  0.00    +0.000 N 
ATOM      8  C   UNL     1       2.647   4.955  19.538  0.00  0.00    +0.000 C 
ATOM      9  O   UNL     1       1.465   4.637  19.421  0.00  0.00    +0.000 OA
ATOM     10  H   UNL     1       3.970   6.312  20.328  0.00  0.00    +0.000 HD
BRANCH   8  11
ATOM     11  C   UNL     1       3.751   4.062  19.189  0.00  0.00    +0.000 A 
ATOM     12  O   UNL     1       5.005   4.580  19.451  0.00  0.00    +0.000 OA
ATOM     13  C   UNL     1       5.534   4.720  18.202  0.00  0.00    +0.000 A 
ATOM     14  C   UNL     1       6.555   5.602  17.875  0.00  0.00    +0.000 A 
ATOM     15  C   UNL     1       6.751   5.799  16.506  0.00  0.00    +0.000 A 
ATOM     16  C   UNL     1       6.025   5.080  15.551  0.00  0.00    +0.000 A 
ATOM     17  C   UNL     1       5.089   4.107  15.932  0.00  0.00    +0.000 A 
ATOM     18  C   UNL     1       4.814   3.956  17.297  0.00  0.00    +0.000 A 
ATOM     19  C   UNL     1       3.875   3.224  18.086  0.00  0.00    +0.000 A 
ATOM     20  C   UNL     1       3.007   2.104  17.646  0.00  0.00    +0.000 C 
ENDBRANCH   8  11
ENDBRANCH   4   7
BRANCH   1  21
ATOM     21  S   UNL     1      -0.419  11.044  19.390  0.00  0.00    +0.000 S 
ATOM     22  O   UNL     1      -0.346  11.844  20.605  0.00  0.00    +0.000 OA
ATOM     23  O   UNL     1      -1.693  10.547  18.929  0.00  0.00    +0.000 OA
BRANCH  21  24
ATOM     24  N   UNL     1       0.208  11.939  18.089  0.00  0.00    +0.000 N 
ATOM     25  H   UNL     1      -0.385  11.743  17.286  0.00  0.00    +0.000 HD
BRANCH  24  30
ATOM     26  C   UNL     1       2.106  16.446  19.216  0.00  0.00    +0.000 C 
ATOM     27  C   UNL     1       1.238  15.279  18.933  0.00  0.00    +0.000 A 
ATOM     28  N   UNL     1      -0.092  15.415  18.959  0.00  0.00    +0.000 NA
ATOM     29  O   UNL     1      -0.598  14.177  18.614  0.00  0.00    +0.000 OA
ATOM     30  C   UNL     1       0.423  13.303  18.405  0.00  0.00    +0.000 A 
ATOM     31  C   UNL     1       1.625  13.950  18.587  0.00  0.00    +0.000 A 
ATOM     32  C   UNL     1       3.008  13.456  18.390  0.00  0.00    +0.000 C 
ENDBRANCH  24  30
ENDBRANCH  21  24
ENDBRANCH   1  21
TORSDOF 5
ENDMDL
MODEL 3
REMARK VINA RESULT:      -8.8      0.541      1.037
REMARK  Name = 
REMARK  8 active torsions:
REMARK  status: ('A' for Active; 'I' for Inactive)
REMARK    1  A    between atoms: C_1  and  C_2
REMARK    2  A    between atoms: C_5  and  N_6
REMARK    3  A    between atoms: N_6  and  S_7
REMARK    4  A    between atoms: S_7  and  C_10
REMARK    5  A    between atoms: C_13  and  N_14
REMARK    6  A    between atoms: C_15  and  C_17
REMARK    7  A    between atoms: C_25  and  C_26
REMARK    8  A    between atoms: C_29  and  C_30
REMARK                            x       y       z     vdW  Elec       q    Type
REMARK                         _______ _______ _______ _____ _____    ______ ____
ROOT
ATOM      1  C   UNL     1       0.814   9.959  19.552  0.00  0.00    +0.000 A 
ATOM      2  C   UNL     1       0.770   9.224  20.740  0.00  0.00    +0.000 A 
ATOM      3  C   UNL     1       1.484   8.029  20.853  0.00  0.00    +0.000 A 
ATOM      4  C   UNL     1       2.150   7.515  19.744  0.00  0.00    +0.000 A 
ATOM      5  C   UNL     1       2.201   8.248  18.552  0.00  0.00    +0.000 A 
ATOM      6  C   UNL     1       1.545   9.484  18.456  0.00  0.00    +0.000 A 
ENDROOT
BRANCH   4   7
ATOM      7  N   UNL     1       2.811   6.284  19.879  0.00  0.00    +0.000 N 
ATOM      8  C   UNL     1       2.657   5.210  19.012  0.00  0.00    +0.000 C 
ATOM      9  O   UNL     1       1.691   5.078  18.263  0.00  0.00    +0.000 OA
ATOM     10  H   UNL     1       3.385   6.128  20.700  0.00  0.00    +0.000 HD
BRANCH   8  11
ATOM     11  C   UNL     1       3.824   4.330  18.972  0.00  0.00    +0.000 A 
ATOM     12  O   UNL     1       5.018   4.954  19.279  0.00  0.00    +0.000 OA
ATOM     13  C   UNL     1       5.697   4.892  18.098  0.00  0.00    +0.000 A 
ATOM     14  C   UNL     1       6.723   5.752  17.735  0.00  0.00    +0.000 A 
ATOM     15  C   UNL     1       7.086   5.706  16.387  0.00  0.00    +0.000 A 
ATOM     16  C   UNL     1       6.510   4.786  15.505  0.00  0.00    +0.000 A 
ATOM     17  C   UNL     1       5.563   3.850  15.949  0.00  0.00    +0.000 A 
ATOM     18  C   UNL     1       5.122   3.937  17.274  0.00  0.00    +0.000 A 
ATOM     19  C   UNL     1       4.113   3.312  18.070  0.00  0.00    +0.000 A 
ATOM     20  C   UNL     1       3.343   2.084  17.748  0.00  0.00    +0.000 C 
ENDBRANCH   8  11
ENDBRANCH   4   7
BRANCH   1  21
ATOM     21  S   UNL     1      -0.157  11.430  19.405  0.00  0.00    +0.000 S 
ATOM     22  O   UNL     1      -1.565  11.059  19.381  0.00  0.00    +0.000 OA
ATOM     23  O   UNL     1       0.394  12.242  18.347  0.00  0.00    +0.000 OA
BRANCH  21  24
ATOM     24  N   UNL     1       0.177  12.278  20.839  0.00  0.00    +0.000 N 
ATOM     25  H   UNL     1       0.785  13.054  20.586  0.00  0.00    +0.000 HD
BRANCH  24  30
ATOM     26  C   UNL     1      -3.748  12.350  23.967  0.00  0.00    +0.000 C 
ATOM     27  C   UNL     1      -2.732  12.627  22.923  0.00  0.00    +0.000 A 
ATOM     28  N   UNL     1      -2.825  13.734  22.178  0.00  0.00    +0.000 NA
ATOM     29  O   UNL     1      -1.722  13.717  21.349  0.00  0.00    +0.000 OA
ATOM     30  C   UNL     1      -0.987  12.596  21.581  0.00  0.00    +0.000 A 
ATOM     31  C   UNL     1      -1.578  11.860  22.584  0.00  0.00    +0.000 A 
ATOM     32  C   UNL     1      -1.117  10.618  23.248  0.00  0.00    +0.000 C 
ENDBRANCH  24  30
ENDBRANCH  21  24
ENDBRANCH   1  21
TORSDOF 5
ENDMDL
MODEL 4
REMARK VINA RESULT:      -8.7      2.239      3.046
REMARK  Name = 
REMARK  8 active torsions:
REMARK  status: ('A' for Active; 'I' for Inactive)
REMARK    1  A    between atoms: C_1  and  C_2
REMARK    2  A    between atoms: C_5  and  N_6
REMARK    3  A    between atoms: N_6  and  S_7
REMARK    4  A    between atoms: S_7  and  C_10
REMARK    5  A    between atoms: C_13  and  N_14
REMARK    6  A    between atoms: C_15  and  C_17
REMARK    7  A    between atoms: C_25  and  C_26
REMARK    8  A    between atoms: C_29  and  C_30
REMARK                            x       y       z     vdW  Elec       q    Type
REMARK                         _______ _______ _______ _____ _____    ______ ____
ROOT
ATOM      1  C   UNL     1       0.652   9.774  19.340  0.00  0.00    +0.000 A 
ATOM      2  C   UNL     1       0.682   9.109  20.569  0.00  0.00    +0.000 A 
ATOM      3  C   UNL     1       1.514   8.002  20.747  0.00  0.00    +0.000 A 
ATOM      4  C   UNL     1       2.231   7.495  19.666  0.00  0.00    +0.000 A 
ATOM      5  C   UNL     1       2.208   8.160  18.434  0.00  0.00    +0.000 A 
ATOM      6  C   UNL     1       1.430   9.315  18.270  0.00  0.00    +0.000 A 
ENDROOT
BRANCH   4   7
ATOM      7  N   UNL     1       3.014   6.348  19.869  0.00  0.00    +0.000 N 
ATOM      8  C   UNL     1       2.680   5.079  19.416  0.00  0.00    +0.000 C 
ATOM      9  O   UNL     1       1.535   4.747  19.115  0.00  0.00    +0.000 OA
ATOM     10  H   UNL     1       3.845   6.422  20.445  0.00  0.00    +0.000 HD
BRANCH   8  11
ATOM     11  C   UNL     1       3.844   4.222  19.193  0.00  0.00    +0.000 A 
ATOM     12  O   UNL     1       5.058   4.835  19.438  0.00  0.00    +0.000 OA
ATOM     13  C   UNL     1       5.622   4.881  18.198  0.00  0.00    +0.000 A 
ATOM     14  C   UNL     1       6.604   5.783  17.814  0.00  0.00    +0.000 A 
ATOM     15  C   UNL     1       6.838   5.854  16.438  0.00  0.00    +0.000 A 
ATOM     16  C   UNL     1       6.188   5.002  15.541  0.00  0.00    +0.000 A 
ATOM     17  C   UNL     1       5.293   4.019  15.990  0.00  0.00    +0.000 A 
ATOM     18  C   UNL     1       4.978   3.990  17.354  0.00  0.00    +0.000 A 
ATOM     19  C   UNL     1       4.054   3.286  18.186  0.00  0.00    +0.000 A 
ATOM     20  C   UNL     1       3.265   2.079  17.835  0.00  0.00    +0.000 C 
ENDBRANCH   8  11
ENDBRANCH   4   7
BRANCH   1  21
ATOM     21  S   UNL     1      -0.464  11.128  19.113  0.00  0.00    +0.000 S 
ATOM     22  O   UNL     1      -0.671  11.782  20.398  0.00  0.00    +0.000 OA
ATOM     23  O   UNL     1      -1.596  10.668  18.347  0.00  0.00    +0.000 OA
BRANCH  21  24
ATOM     24  N   UNL     1       0.380  12.178  18.078  0.00  0.00    +0.000 N 
ATOM     25  H   UNL     1      -0.305  12.566  17.433  0.00  0.00    +0.000 HD
BRANCH  24  30
ATOM     26  C   UNL     1       2.420  16.212  20.258  0.00  0.00    +0.000 C 
ATOM     27  C   UNL     1       2.123  14.870  19.702  0.00  0.00    +0.000 A 
ATOM     28  N   UNL     1       3.016  13.883  19.829  0.00  0.00    +0.000 NA
ATOM     29  O   UNL     1       2.427  12.774  19.256  0.00  0.00    +0.000 OA
ATOM     30  C   UNL     1       1.200  13.102  18.771  0.00  0.00    +0.000 A 
ATOM     31  C   UNL     1       0.944  14.430  19.032  0.00  0.00    +0.000 A 
ATOM     32  C   UNL     1      -0.280  15.228  18.782  0.00  0.00    +0.000 C 
ENDBRANCH  24  30
ENDBRANCH  21  24
ENDBRANCH   1  21
TORSDOF 5
ENDMDL
MODEL 5
REMARK VINA RESULT:      -8.7      2.455      9.443
REMARK  Name = 
REMARK  8 active torsions:
REMARK  status: ('A' for Active; 'I' for Inactive)
REMARK    1  A    between atoms: C_1  and  C_2
REMARK    2  A    between atoms: C_5  and  N_6
REMARK    3  A    between atoms: N_6  and  S_7
REMARK    4  A    between atoms: S_7  and  C_10
REMARK    5  A    between atoms: C_13  and  N_14
REMARK    6  A    between atoms: C_15  and  C_17
REMARK    7  A    between atoms: C_25  and  C_26
REMARK    8  A    between atoms: C_29  and  C_30
REMARK                            x       y       z     vdW  Elec       q    Type
REMARK                         _______ _______ _______ _____ _____    ______ ____
ROOT
ATOM      1  C   UNL     1       2.378   5.605  18.798  0.00  0.00    +0.000 A 
ATOM      2  C   UNL     1       2.360   6.455  17.688  0.00  0.00    +0.000 A 
ATOM      3  C   UNL     1       2.191   7.830  17.861  0.00  0.00    +0.000 A 
ATOM      4  C   UNL     1       1.931   8.340  19.131  0.00  0.00    +0.000 A 
ATOM      5  C   UNL     1       1.952   7.494  20.246  0.00  0.00    +0.000 A 
ATOM      6  C   UNL     1       2.193   6.121  20.086  0.00  0.00    +0.000 A 
ENDROOT
BRANCH   4   7
ATOM      7  N   UNL     1       1.712   9.721  19.259  0.00  0.00    +0.000 N 
ATOM      8  C   UNL     1       0.460  10.311  19.360  0.00  0.00    +0.000 C 
ATOM      9  O   UNL     1      -0.579   9.762  18.996  0.00  0.00    +0.000 OA
ATOM     10  H   UNL     1       2.507  10.346  19.202  0.00  0.00    +0.000 HD
BRANCH   8  11
ATOM     11  C   UNL     1       0.480  11.588  20.073  0.00  0.00    +0.000 A 
ATOM     12  O   UNL     1       0.563  11.471  21.447  0.00  0.00    +0.000 OA
ATOM     13  C   UNL     1      -0.641  11.961  21.859  0.00  0.00    +0.000 A 
ATOM     14  C   UNL     1      -1.244  11.651  23.070  0.00  0.00    +0.000 A 
ATOM     15  C   UNL     1      -2.587  12.020  23.174  0.00  0.00    +0.000 A 
ATOM     16  C   UNL     1      -3.232  12.734  22.158  0.00  0.00    +0.000 A 
ATOM     17  C   UNL     1      -2.543  13.134  21.003  0.00  0.00    +0.000 A 
ATOM     18  C   UNL     1      -1.223  12.699  20.839  0.00  0.00    +0.000 A 
ATOM     19  C   UNL     1      -0.241  12.745  19.802  0.00  0.00    +0.000 A 
ATOM     20  C   UNL     1      -0.264  13.583  18.577  0.00  0.00    +0.000 C 
ENDBRANCH   8  11
ENDBRANCH   4   7
BRANCH   1  21
ATOM     21  S   UNL     1       2.517   3.859  18.550  0.00  0.00    +0.000 S 
ATOM     22  O   UNL     1       1.379   3.407  17.760  0.00  0.00    +0.000 OA
ATOM     23  O   UNL     1       2.809   3.235  19.817  0.00  0.00    +0.000 OA
BRANCH  21  24
ATOM     24  N   UNL     1       3.938   3.694  17.633  0.00  0.00    +0.000 N 
ATOM     25  H   UNL     1       3.683   3.868  16.663  0.00  0.00    +0.000 HD
BRANCH  24  30
ATOM     26  C   UNL     1       7.809   6.801  18.375  0.00  0.00    +0.000 C 
ATOM     27  C   UNL     1       6.745   5.775  18.481  0.00  0.00    +0.000 A 
ATOM     28  N   UNL     1       6.602   5.076  19.613  0.00  0.00    +0.000 NA
ATOM     29  O   UNL     1       5.514   4.252  19.405  0.00  0.00    +0.000 OA
ATOM     30  C   UNL     1       5.024   4.442  18.150  0.00  0.00    +0.000 A 
ATOM     31  C   UNL     1       5.765   5.410  17.511  0.00  0.00    +0.000 A 
ATOM     32  C   UNL     1       5.574   6.026  16.176  0.00  0.00    +0.000 C 
ENDBRANCH  24  30
ENDBRANCH  21  24
ENDBRANCH   1  21
TORSDOF 5
ENDMDL
MODEL 6
REMARK VINA RESULT:      -8.7      2.833      9.447
REMARK  Name = 
REMARK  8 active torsions:
REMARK  status: ('A' for Active; 'I' for Inactive)
REMARK    1  A    between atoms: C_1  and  C_2
REMARK    2  A    between atoms: C_5  and  N_6
REMARK    3  A    between atoms: N_6  and  S_7
REMARK    4  A    between atoms: S_7  and  C_10
REMARK    5  A    between atoms: C_13  and  N_14
REMARK    6  A    between atoms: C_15  and  C_17
REMARK    7  A    between atoms: C_25  and  C_26
REMARK    8  A    between atoms: C_29  and  C_30
REMARK                            x       y       z     vdW  Elec       q    Type
REMARK                         _______ _______ _______ _____ _____    ______ ____
ROOT
ATOM      1  C   UNL     1       2.758   4.728  19.073  0.00  0.00    +0.000 A 
ATOM      2  C   UNL     1       2.448   5.121  20.378  0.00  0.00    +0.000 A 
ATOM      3  C   UNL     1       1.997   6.418  20.633  0.00  0.00    +0.000 A 
ATOM      4  C   UNL     1       1.961   7.351  19.600  0.00  0.00    +0.000 A 
ATOM      5  C   UNL     1       2.266   6.963  18.290  0.00  0.00    +0.000 A 
ATOM      6  C   UNL     1       2.651   5.642  18.017  0.00  0.00    +0.000 A 
ENDROOT
BRANCH   4   7
ATOM      7  N   UNL     1       1.554   8.660  19.903  0.00  0.00    +0.000 N 
ATOM      8  C   UNL     1       0.618   8.986  20.875  0.00  0.00    +0.000 C 
ATOM      9  O   UNL     1      -0.205   8.187  21.318  0.00  0.00    +0.000 OA
ATOM     10  H   UNL     1       1.903   9.422  19.334  0.00  0.00    +0.000 HD
BRANCH   8  11
ATOM     11  C   UNL     1       0.801  10.329  21.425  0.00  0.00    +0.000 A 
ATOM     12  O   UNL     1       0.283  10.500  22.694  0.00  0.00    +0.000 OA
ATOM     13  C   UNL     1      -0.728  11.390  22.483  0.00  0.00    +0.000 A 
ATOM     14  C   UNL     1      -1.830  11.540  23.314  0.00  0.00    +0.000 A 
ATOM     15  C   UNL     1      -2.879  12.289  22.776  0.00  0.00    +0.000 A 
ATOM     16  C   UNL     1      -2.770  12.913  21.529  0.00  0.00    +0.000 A 
ATOM     17  C   UNL     1      -1.585  12.836  20.780  0.00  0.00    +0.000 A 
ATOM     18  C   UNL     1      -0.555  12.018  21.260  0.00  0.00    +0.000 A 
ATOM     19  C   UNL     1       0.706  11.554  20.774  0.00  0.00    +0.000 A 
ATOM     20  C   UNL     1       1.469  12.071  19.611  0.00  0.00    +0.000 C 
ENDBRANCH   8  11
ENDBRANCH   4   7
BRANCH   1  21
ATOM     21  S   UNL     1       3.399   3.105  18.785  0.00  0.00    +0.000 S 
ATOM     22  O   UNL     1       2.379   2.313  18.110  0.00  0.00    +0.000 OA
ATOM     23  O   UNL     1       3.997   2.622  20.006  0.00  0.00    +0.000 OA
BRANCH  21  24
ATOM     24  N   UNL     1       4.700   3.368  17.723  0.00  0.00    +0.000 N 
ATOM     25  H   UNL     1       4.298   3.542  16.805  0.00  0.00    +0.000 HD
BRANCH  24  30
ATOM     26  C   UNL     1       7.946   7.150  18.315  0.00  0.00    +0.000 C 
ATOM     27  C   UNL     1       7.078   5.959  18.472  0.00  0.00    +0.000 A 
ATOM     28  N   UNL     1       7.039   5.311  19.641  0.00  0.00    +0.000 NA
ATOM     29  O   UNL     1       6.118   4.296  19.473  0.00  0.00    +0.000 OA
ATOM     30  C   UNL     1       5.627   4.325  18.205  0.00  0.00    +0.000 A 
ATOM     31  C   UNL     1       6.197   5.372  17.516  0.00  0.00    +0.000 A 
ATOM     32  C   UNL     1       5.925   5.867  16.146  0.00  0.00    +0.000 C 
ENDBRANCH  24  30
ENDBRANCH  21  24
ENDBRANCH   1  21
TORSDOF 5
ENDMDL
MODEL 7
REMARK VINA RESULT:      -8.7      2.195      3.134
REMARK  Name = 
REMARK  8 active torsions:
REMARK  status: ('A' for Active; 'I' for Inactive)
REMARK    1  A    between atoms: C_1  and  C_2
REMARK    2  A    between atoms: C_5  and  N_6
REMARK    3  A    between atoms: N_6  and  S_7
REMARK    4  A    between atoms: S_7  and  C_10
REMARK    5  A    between atoms: C_13  and  N_14
REMARK    6  A    between atoms: C_15  and  C_17
REMARK    7  A    between atoms: C_25  and  C_26
REMARK    8  A    between atoms: C_29  and  C_30
REMARK                            x       y       z     vdW  Elec       q    Type
REMARK                         _______ _______ _______ _____ _____    ______ ____
ROOT
ATOM      1  C   UNL     1       0.653   9.694  19.714  0.00  0.00    +0.000 A 
ATOM      2  C   UNL     1       1.455   9.264  18.653  0.00  0.00    +0.000 A 
ATOM      3  C   UNL     1       2.179   8.074  18.759  0.00  0.00    +0.000 A 
ATOM      4  C   UNL     1       2.186   7.374  19.963  0.00  0.00    +0.000 A 
ATOM      5  C   UNL     1       1.381   7.799  21.028  0.00  0.00    +0.000 A 
ATOM      6  C   UNL     1       0.596   8.955  20.902  0.00  0.00    +0.000 A 
ENDROOT
BRANCH   4   7
ATOM      7  N   UNL     1       2.968   6.212  20.050  0.00  0.00    +0.000 N 
ATOM      8  C   UNL     1       2.606   4.981  19.521  0.00  0.00    +0.000 C 
ATOM      9  O   UNL     1       1.447   4.677  19.244  0.00  0.00    +0.000 OA
ATOM     10  H   UNL     1       3.821   6.240  20.596  0.00  0.00    +0.000 HD
BRANCH   8  11
ATOM     11  C   UNL     1       3.754   4.137  19.189  0.00  0.00    +0.000 A 
ATOM     12  O   UNL     1       4.980   4.729  19.417  0.00  0.00    +0.000 OA
ATOM     13  C   UNL     1       5.487   4.854  18.157  0.00  0.00    +0.000 A 
ATOM     14  C   UNL     1       6.456   5.777  17.788  0.00  0.00    +0.000 A 
ATOM     15  C   UNL     1       6.626   5.936  16.410  0.00  0.00    +0.000 A 
ATOM     16  C   UNL     1       5.930   5.147  15.490  0.00  0.00    +0.000 A 
ATOM     17  C   UNL     1       5.052   4.139  15.916  0.00  0.00    +0.000 A 
ATOM     18  C   UNL     1       4.800   4.021  17.288  0.00  0.00    +0.000 A 
ATOM     19  C   UNL     1       3.911   3.268  18.114  0.00  0.00    +0.000 A 
ATOM     20  C   UNL     1       3.099   2.088  17.723  0.00  0.00    +0.000 C 
ENDBRANCH   8  11
ENDBRANCH   4   7
BRANCH   1  21
ATOM     21  S   UNL     1      -0.195  11.242  19.587  0.00  0.00    +0.000 S 
ATOM     22  O   UNL     1       0.134  12.051  20.753  0.00  0.00    +0.000 OA
ATOM     23  O   UNL     1      -1.575  10.985  19.254  0.00  0.00    +0.000 OA
BRANCH  21  24
ATOM     24  N   UNL     1       0.475  11.956  18.199  0.00  0.00    +0.000 N 
ATOM     25  H   UNL     1      -0.301  12.172  17.577  0.00  0.00    +0.000 HD
BRANCH  24  30
ATOM     26  C   UNL     1       2.659  16.362  19.201  0.00  0.00    +0.000 C 
ATOM     27  C   UNL     1       2.346  14.945  18.901  0.00  0.00    +0.000 A 
ATOM     28  N   UNL     1       3.333  14.047  18.818  0.00  0.00    +0.000 NA
ATOM     29  O   UNL     1       2.715  12.837  18.577  0.00  0.00    +0.000 OA
ATOM     30  C   UNL     1       1.369  13.015  18.494  0.00  0.00    +0.000 A 
ATOM     31  C   UNL     1       1.069  14.343  18.700  0.00  0.00    +0.000 A 
ATOM     32  C   UNL     1      -0.249  15.015  18.794  0.00  0.00    +0.000 C 
ENDBRANCH  24  30
ENDBRANCH  21  24
ENDBRANCH   1  21
TORSDOF 5
ENDMDL
MODEL 8
REMARK VINA RESULT:      -8.5      2.331      2.712
REMARK  Name = 
REMARK  8 active torsions:
REMARK  status: ('A' for Active; 'I' for Inactive)
REMARK    1  A    between atoms: C_1  and  C_2
REMARK    2  A    between atoms: C_5  and  N_6
REMARK    3  A    between atoms: N_6  and  S_7
REMARK    4  A    between atoms: S_7  and  C_10
REMARK    5  A    between atoms: C_13  and  N_14
REMARK    6  A    between atoms: C_15  and  C_17
REMARK    7  A    between atoms: C_25  and  C_26
REMARK    8  A    between atoms: C_29  and  C_30
REMARK                            x       y       z     vdW  Elec       q    Type
REMARK                         _______ _______ _______ _____ _____    ______ ____
ROOT
ATOM      1  C   UNL     1       0.933   9.671  19.437  0.00  0.00    +0.000 A 
ATOM      2  C   UNL     1       1.666   9.158  18.363  0.00  0.00    +0.000 A 
ATOM      3  C   UNL     1       2.354   7.949  18.497  0.00  0.00    +0.000 A 
ATOM      4  C   UNL     1       2.398   7.313  19.735  0.00  0.00    +0.000 A 
ATOM      5  C   UNL     1       1.662   7.821  20.813  0.00  0.00    +0.000 A 
ATOM      6  C   UNL     1       0.911   8.996  20.663  0.00  0.00    +0.000 A 
ENDROOT
BRANCH   4   7
ATOM      7  N   UNL     1       3.144   6.130  19.847  0.00  0.00    +0.000 N 
ATOM      8  C   UNL     1       2.678   4.871  19.489  0.00  0.00    +0.000 C 
ATOM      9  O   UNL     1       1.484   4.597  19.382  0.00  0.00    +0.000 OA
ATOM     10  H   UNL     1       4.057   6.170  20.283  0.00  0.00    +0.000 HD
BRANCH   8  11
ATOM     11  C   UNL     1       3.747   3.947  19.112  0.00  0.00    +0.000 A 
ATOM     12  O   UNL     1       5.019   4.397  19.409  0.00  0.00    +0.000 OA
ATOM     13  C   UNL     1       5.568   4.569  18.174  0.00  0.00    +0.000 A 
ATOM     14  C   UNL     1       6.631   5.418  17.897  0.00  0.00    +0.000 A 
ATOM     15  C   UNL     1       6.852   5.667  16.540  0.00  0.00    +0.000 A 
ATOM     16  C   UNL     1       6.107   5.023  15.547  0.00  0.00    +0.000 A 
ATOM     17  C   UNL     1       5.124   4.076  15.874  0.00  0.00    +0.000 A 
ATOM     18  C   UNL     1       4.827   3.878  17.228  0.00  0.00    +0.000 A 
ATOM     19  C   UNL     1       3.847   3.154  17.974  0.00  0.00    +0.000 A 
ATOM     20  C   UNL     1       2.937   2.093  17.475  0.00  0.00    +0.000 C 
ENDBRANCH   8  11
ENDBRANCH   4   7
BRANCH   1  21
ATOM     21  S   UNL     1       0.132  11.239  19.268  0.00  0.00    +0.000 S 
ATOM     22  O   UNL     1       1.146  12.258  19.028  0.00  0.00    +0.000 OA
ATOM     23  O   UNL     1      -0.806  11.397  20.353  0.00  0.00    +0.000 OA
BRANCH  21  24
ATOM     24  N   UNL     1      -0.823  11.057  17.875  0.00  0.00    +0.000 N 
ATOM     25  H   UNL     1      -0.565  10.165  17.458  0.00  0.00    +0.000 HD
BRANCH  24  30
ATOM     26  C   UNL     1      -5.839  11.169  17.746  0.00  0.00    +0.000 C 
ATOM     27  C   UNL     1      -4.401  11.361  18.051  0.00  0.00    +0.000 A 
ATOM     28  N   UNL     1      -4.034  12.148  19.068  0.00  0.00    +0.000 NA
ATOM     29  O   UNL     1      -2.656  12.080  19.112  0.00  0.00    +0.000 OA
ATOM     30  C   UNL     1      -2.202  11.275  18.113  0.00  0.00    +0.000 A 
ATOM     31  C   UNL     1      -3.272  10.778  17.403  0.00  0.00    +0.000 A 
ATOM     32  C   UNL     1      -3.301   9.800  16.289  0.00  0.00    +0.000 C 
ENDBRANCH  24  30
ENDBRANCH  21  24
ENDBRANCH   1  21
TORSDOF 5
ENDMDL
MODEL 9
REMARK VINA RESULT:      -8.5      0.916      1.185
REMARK  Name = 
REMARK  8 active torsions:
REMARK  status: ('A' for Active; 'I' for Inactive)
REMARK    1  A    between atoms: C_1  and  C_2
REMARK    2  A    between atoms: C_5  and  N_6
REMARK    3  A    between atoms: N_6  and  S_7
REMARK    4  A    between atoms: S_7  and  C_10
REMARK    5  A    between atoms: C_13  and  N_14
REMARK    6  A    between atoms: C_15  and  C_17
REMARK    7  A    between atoms: C_25  and  C_26
REMARK    8  A    between atoms: C_29  and  C_30
REMARK                            x       y       z     vdW  Elec       q    Type
REMARK                         _______ _______ _______ _____ _____    ______ ____
ROOT
ATOM      1  C   UNL     1       0.740   9.686  19.650  0.00  0.00    +0.000 A 
ATOM      2  C   UNL     1       1.512   9.224  18.579  0.00  0.00    +0.000 A 
ATOM      3  C   UNL     1       2.224   8.028  18.692  0.00  0.00    +0.000 A 
ATOM      4  C   UNL     1       2.251   7.352  19.909  0.00  0.00    +0.000 A 
ATOM      5  C   UNL     1       1.477   7.808  20.984  0.00  0.00    +0.000 A 
ATOM      6  C   UNL     1       0.703   8.970  20.853  0.00  0.00    +0.000 A 
ENDROOT
BRANCH   4   7
ATOM      7  N   UNL     1       3.021   6.183  20.001  0.00  0.00    +0.000 N 
ATOM      8  C   UNL     1       2.611   4.935  19.551  0.00  0.00    +0.000 C 
ATOM      9  O   UNL     1       1.434   4.638  19.359  0.00  0.00    +0.000 OA
ATOM     10  H   UNL     1       3.907   6.221  20.493  0.00  0.00    +0.000 HD
BRANCH   8  11
ATOM     11  C   UNL     1       3.725   4.059  19.189  0.00  0.00    +0.000 A 
ATOM     12  O   UNL     1       4.974   4.596  19.432  0.00  0.00    +0.000 OA
ATOM     13  C   UNL     1       5.483   4.742  18.175  0.00  0.00    +0.000 A 
ATOM     14  C   UNL     1       6.486   5.638  17.832  0.00  0.00    +0.000 A 
ATOM     15  C   UNL     1       6.660   5.834  16.459  0.00  0.00    +0.000 A 
ATOM     16  C   UNL     1       5.932   5.102  15.517  0.00  0.00    +0.000 A 
ATOM     17  C   UNL     1       5.016   4.115  15.914  0.00  0.00    +0.000 A 
ATOM     18  C   UNL     1       4.763   3.964  17.282  0.00  0.00    +0.000 A 
ATOM     19  C   UNL     1       3.846   3.220  18.087  0.00  0.00    +0.000 A 
ATOM     20  C   UNL     1       2.990   2.084  17.661  0.00  0.00    +0.000 C 
ENDBRANCH   8  11
ENDBRANCH   4   7
BRANCH   1  21
ATOM     21  S   UNL     1      -0.092  11.240  19.511  0.00  0.00    +0.000 S 
ATOM     22  O   UNL     1      -1.525  10.996  19.412  0.00  0.00    +0.000 OA
ATOM     23  O   UNL     1       0.576  12.033  18.508  0.00  0.00    +0.000 OA
BRANCH  21  24
ATOM     24  N   UNL     1       0.245  12.011  20.988  0.00  0.00    +0.000 N 
ATOM     25  H   UNL     1       0.767  12.856  20.765  0.00  0.00    +0.000 HD
BRANCH  24  30
ATOM     26  C   UNL     1      -3.828  13.644  23.423  0.00  0.00    +0.000 C 
ATOM     27  C   UNL     1      -2.667  12.880  22.909  0.00  0.00    +0.000 A 
ATOM     28  N   UNL     1      -2.414  11.654  23.381  0.00  0.00    +0.000 NA
ATOM     29  O   UNL     1      -1.314  11.206  22.678  0.00  0.00    +0.000 OA
ATOM     30  C   UNL     1      -0.899  12.166  21.809  0.00  0.00    +0.000 A 
ATOM     31  C   UNL     1      -1.730  13.260  21.903  0.00  0.00    +0.000 A 
ATOM     32  C   UNL     1      -1.746  14.512  21.110  0.00  0.00    +0.000 C 
ENDBRANCH  24  30
ENDBRANCH  21  24
ENDBRANCH   1  21
TORSDOF 5
ENDMDL
