MODEL 1
REMARK VINA RESULT:      -8.4      0.000      0.000
REMARK  Name = 
REMARK  4 active torsions:
REMARK  status: ('A' for Active; 'I' for Inactive)
REMARK    1  A    between atoms: C_1  and  C_2
REMARK    2  A    between atoms: C_9  and  N_10
REMARK    3  A    between atoms: C_11  and  C_13
REMARK    4  A    between atoms: C_22  and  C_23
REMARK                            x       y       z     vdW  Elec       q    Type
REMARK                         _______ _______ _______ _____ _____    ______ ____
ROOT
ATOM      1  N   UNL     1       1.617   8.769  18.782  0.00  0.00    +0.000 N 
ATOM      2  C   UNL     1       2.153   7.560  19.215  0.00  0.00    +0.000 C 
ATOM      3  O   UNL     1       1.931   7.102  20.344  0.00  0.00    +0.000 OA
ATOM      4  H   UNL     1       1.731   8.991  17.805  0.00  0.00    +0.000 HD
ENDROOT
BRANCH   1  13
ATOM      5  C   UNL     1      -2.391  13.980  20.645  0.00  0.00    +0.000 C 
ATOM      6  C   UNL     1      -2.319  13.236  21.949  0.00  0.00    +0.000 C 
ATOM      7  O   UNL     1      -2.937  13.676  22.925  0.00  0.00    +0.000 OA
ATOM      8  N   UNL     1      -1.593  12.068  22.029  0.00  0.00    +0.000 N 
ATOM      9  C   UNL     1      -1.651  11.261  23.260  0.00  0.00    +0.000 C 
ATOM     10  C   UNL     1      -0.648  10.116  23.107  0.00  0.00    +0.000 C 
ATOM     11  C   UNL     1      -0.291  10.224  21.656  0.00  0.00    +0.000 A 
ATOM     12  C   UNL     1       0.513   9.347  20.932  0.00  0.00    +0.000 A 
ATOM     13  C   UNL     1       0.831   9.634  19.596  0.00  0.00    +0.000 A 
ATOM     14  C   UNL     1       0.371  10.834  19.043  0.00  0.00    +0.000 A 
ATOM     15  C   UNL     1      -0.461  11.704  19.783  0.00  0.00    +0.000 A 
ATOM     16  C   UNL     1      -0.800  11.387  21.085  0.00  0.00    +0.000 A 
ENDBRANCH   1  13
BRANCH   2  17
ATOM     17  C   UNL     1       3.004   6.832  18.301  0.00  0.00    +0.000 A 
ATOM     18  O   UNL     1       4.152   7.372  17.782  0.00  0.00    +0.000 OA
ATOM     19  C   UNL     1       4.781   6.374  17.083  0.00  0.00    +0.000 A 
ATOM     20  C   UNL     1       6.028   6.463  16.460  0.00  0.00    +0.000 A 
ATOM     21  C   UNL     1       6.527   5.288  15.881  0.00  0.00    +0.000 A 
ATOM     22  C   UNL     1       5.787   4.108  15.907  0.00  0.00    +0.000 A 
ATOM     23  F   UNL     1       6.302   2.997  15.362  0.00  0.00    +0.000 F 
ATOM     24  C   UNL     1       4.530   4.045  16.504  0.00  0.00    +0.000 A 
ATOM     25  C   UNL     1       4.024   5.207  17.114  0.00  0.00    +0.000 A 
ATOM     26  C   UNL     1       2.858   5.515  17.864  0.00  0.00    +0.000 A 
ATOM     27  C   UNL     1       1.746   4.589  18.214  0.00  0.00    +0.000 C 
ENDBRANCH   2  17
TORSDOF 2
ENDMDL
MODEL 2
REMARK VINA RESULT:      -8.4      3.845      9.468
REMARK  Name = 
REMARK  4 active torsions:
REMARK  status: ('A' for Active; 'I' for Inactive)
REMARK    1  A    between atoms: C_1  and  C_2
REMARK    2  A    between atoms: C_9  and  N_10
REMARK    3  A    between atoms: C_11  and  C_13
REMARK    4  A    between atoms: C_22  and  C_23
REMARK                            x       y       z     vdW  Elec       q    Type
REMARK                         _______ _______ _______ _____ _____    ______ ____
ROOT
ATOM      1  N   UNL     1       1.898   8.247  19.889  0.00  0.00    +0.000 N 
ATOM      2  C   UNL     1       1.146   9.309  19.395  0.00  0.00    +0.000 C 
ATOM      3  O   UNL     1       0.916   9.453  18.187  0.00  0.00    +0.000 OA
ATOM      4  H   UNL     1       1.911   8.129  20.891  0.00  0.00    +0.000 HD
ENDROOT
BRANCH   1  13
ATOM      5  C   UNL     1       6.013   5.460  15.200  0.00  0.00    +0.000 C 
ATOM      6  C   UNL     1       5.397   4.213  15.770  0.00  0.00    +0.000 C 
ATOM      7  O   UNL     1       5.746   3.114  15.325  0.00  0.00    +0.000 OA
ATOM      8  N   UNL     1       4.478   4.313  16.792  0.00  0.00    +0.000 N 
ATOM      9  C   UNL     1       3.994   3.089  17.453  0.00  0.00    +0.000 C 
ATOM     10  C   UNL     1       2.895   3.500  18.435  0.00  0.00    +0.000 C 
ATOM     11  C   UNL     1       3.040   4.991  18.437  0.00  0.00    +0.000 A 
ATOM     12  C   UNL     1       2.356   5.890  19.252  0.00  0.00    +0.000 A 
ATOM     13  C   UNL     1       2.535   7.269  19.073  0.00  0.00    +0.000 A 
ATOM     14  C   UNL     1       3.362   7.706  18.031  0.00  0.00    +0.000 A 
ATOM     15  C   UNL     1       4.064   6.782  17.226  0.00  0.00    +0.000 A 
ATOM     16  C   UNL     1       3.911   5.426  17.442  0.00  0.00    +0.000 A 
ENDBRANCH   1  13
BRANCH   2  17
ATOM     17  C   UNL     1       0.633  10.272  20.343  0.00  0.00    +0.000 A 
ATOM     18  O   UNL     1       0.821  11.621  20.193  0.00  0.00    +0.000 OA
ATOM     19  C   UNL     1       0.089  12.237  21.173  0.00  0.00    +0.000 A 
ATOM     20  C   UNL     1      -0.073  13.615  21.339  0.00  0.00    +0.000 A 
ATOM     21  C   UNL     1      -0.947  14.028  22.355  0.00  0.00    +0.000 A 
ATOM     22  C   UNL     1      -1.588  13.097  23.169  0.00  0.00    +0.000 A 
ATOM     23  F   UNL     1      -2.433  13.524  24.117  0.00  0.00    +0.000 F 
ATOM     24  C   UNL     1      -1.389  11.727  23.011  0.00  0.00    +0.000 A 
ATOM     25  C   UNL     1      -0.537  11.292  21.980  0.00  0.00    +0.000 A 
ATOM     26  C   UNL     1      -0.152  10.024  21.470  0.00  0.00    +0.000 A 
ATOM     27  C   UNL     1      -0.585   8.689  21.966  0.00  0.00    +0.000 C 
ENDBRANCH   2  17
TORSDOF 2
ENDMDL
MODEL 3
REMARK VINA RESULT:      -8.4      4.104      9.814
REMARK  Name = 
REMARK  4 active torsions:
REMARK  status: ('A' for Active; 'I' for Inactive)
REMARK    1  A    between atoms: C_1  and  C_2
REMARK    2  A    between atoms: C_9  and  N_10
REMARK    3  A    between atoms: C_11  and  C_13
REMARK    4  A    between atoms: C_22  and  C_23
REMARK                            x       y       z     vdW  Elec       q    Type
REMARK                         _______ _______ _______ _____ _____    ______ ____
ROOT
ATOM      1  N   UNL     1       0.441   9.735  20.312  0.00  0.00    +0.000 N 
ATOM      2  C   UNL     1       0.577  10.269  21.589  0.00  0.00    +0.000 C 
ATOM      3  O   UNL     1       1.486   9.925  22.358  0.00  0.00    +0.000 OA
ATOM      4  H   UNL     1      -0.235  10.177  19.706  0.00  0.00    +0.000 HD
ENDROOT
BRANCH   1  13
ATOM      5  C   UNL     1       4.886   6.485  16.266  0.00  0.00    +0.000 C 
ATOM      6  C   UNL     1       4.652   5.416  17.297  0.00  0.00    +0.000 C 
ATOM      7  O   UNL     1       5.255   4.342  17.194  0.00  0.00    +0.000 OA
ATOM      8  N   UNL     1       3.797   5.659  18.349  0.00  0.00    +0.000 N 
ATOM      9  C   UNL     1       3.689   4.673  19.439  0.00  0.00    +0.000 C 
ATOM     10  C   UNL     1       2.576   5.144  20.376  0.00  0.00    +0.000 C 
ATOM     11  C   UNL     1       2.322   6.529  19.866  0.00  0.00    +0.000 A 
ATOM     12  C   UNL     1       1.470   7.477  20.429  0.00  0.00    +0.000 A 
ATOM     13  C   UNL     1       1.269   8.704  19.781  0.00  0.00    +0.000 A 
ATOM     14  C   UNL     1       1.893   8.919  18.547  0.00  0.00    +0.000 A 
ATOM     15  C   UNL     1       2.770   7.957  17.999  0.00  0.00    +0.000 A 
ATOM     16  C   UNL     1       2.992   6.769  18.670  0.00  0.00    +0.000 A 
ENDBRANCH   1  13
BRANCH   2  17
ATOM     17  C   UNL     1      -0.393  11.250  22.019  0.00  0.00    +0.000 A 
ATOM     18  O   UNL     1      -1.529  10.907  22.706  0.00  0.00    +0.000 OA
ATOM     19  C   UNL     1      -2.138  12.076  23.079  0.00  0.00    +0.000 A 
ATOM     20  C   UNL     1      -3.283  12.194  23.869  0.00  0.00    +0.000 A 
ATOM     21  C   UNL     1      -3.682  13.494  24.210  0.00  0.00    +0.000 A 
ATOM     22  C   UNL     1      -2.977  14.603  23.747  0.00  0.00    +0.000 A 
ATOM     23  F   UNL     1      -3.371  15.831  24.108  0.00  0.00    +0.000 F 
ATOM     24  C   UNL     1      -1.855  14.468  22.932  0.00  0.00    +0.000 A 
ATOM     25  C   UNL     1      -1.424  13.171  22.601  0.00  0.00    +0.000 A 
ATOM     26  C   UNL     1      -0.321  12.637  21.881  0.00  0.00    +0.000 A 
ATOM     27  C   UNL     1       0.762  13.401  21.205  0.00  0.00    +0.000 C 
ENDBRANCH   2  17
TORSDOF 2
ENDMDL
MODEL 4
REMARK VINA RESULT:      -8.4      3.809      9.532
REMARK  Name = 
REMARK  4 active torsions:
REMARK  status: ('A' for Active; 'I' for Inactive)
REMARK    1  A    between atoms: C_1  and  C_2
REMARK    2  A    between atoms: C_9  and  N_10
REMARK    3  A    between atoms: C_11  and  C_13
REMARK    4  A    between atoms: C_22  and  C_23
REMARK                            x       y       z     vdW  Elec       q    Type
REMARK                         _______ _______ _______ _____ _____    ______ ____
ROOT
ATOM      1  N   UNL     1       1.774   8.503  19.602  0.00  0.00    +0.000 N 
ATOM      2  C   UNL     1       0.965   9.474  19.020  0.00  0.00    +0.000 C 
ATOM      3  O   UNL     1       0.714   9.488  17.808  0.00  0.00    +0.000 OA
ATOM      4  H   UNL     1       1.805   8.484  20.610  0.00  0.00    +0.000 HD
ENDROOT
BRANCH   1  13
ATOM      5  C   UNL     1       6.133   5.457  15.311  0.00  0.00    +0.000 C 
ATOM      6  C   UNL     1       5.470   4.245  15.903  0.00  0.00    +0.000 C 
ATOM      7  O   UNL     1       5.834   3.122  15.534  0.00  0.00    +0.000 OA
ATOM      8  N   UNL     1       4.493   4.401  16.861  0.00  0.00    +0.000 N 
ATOM      9  C   UNL     1       3.957   3.215  17.551  0.00  0.00    +0.000 C 
ATOM     10  C   UNL     1       2.806   3.683  18.443  0.00  0.00    +0.000 C 
ATOM     11  C   UNL     1       2.966   5.170  18.382  0.00  0.00    +0.000 A 
ATOM     12  C   UNL     1       2.245   6.114  19.110  0.00  0.00    +0.000 A 
ATOM     13  C   UNL     1       2.449   7.481  18.875  0.00  0.00    +0.000 A 
ATOM     14  C   UNL     1       3.341   7.860  17.864  0.00  0.00    +0.000 A 
ATOM     15  C   UNL     1       4.080   6.892  17.149  0.00  0.00    +0.000 A 
ATOM     16  C   UNL     1       3.900   5.549  17.421  0.00  0.00    +0.000 A 
ENDBRANCH   1  13
BRANCH   2  17
ATOM     17  C   UNL     1       0.417  10.500  19.879  0.00  0.00    +0.000 A 
ATOM     18  O   UNL     1      -0.539  10.231  20.824  0.00  0.00    +0.000 OA
ATOM     19  C   UNL     1      -0.719  11.381  21.546  0.00  0.00    +0.000 A 
ATOM     20  C   UNL     1      -1.544  11.533  22.663  0.00  0.00    +0.000 A 
ATOM     21  C   UNL     1      -1.505  12.777  23.310  0.00  0.00    +0.000 A 
ATOM     22  C   UNL     1      -0.702  13.809  22.828  0.00  0.00    +0.000 A 
ATOM     23  F   UNL     1      -0.672  14.978  23.482  0.00  0.00    +0.000 F 
ATOM     24  C   UNL     1       0.089  13.650  21.693  0.00  0.00    +0.000 A 
ATOM     25  C   UNL     1       0.084  12.401  21.046  0.00  0.00    +0.000 A 
ATOM     26  C   UNL     1       0.786  11.844  19.944  0.00  0.00    +0.000 A 
ATOM     27  C   UNL     1       1.799  12.522  19.090  0.00  0.00    +0.000 C 
ENDBRANCH   2  17
TORSDOF 2
ENDMDL
MODEL 5
REMARK VINA RESULT:      -8.3      4.166      9.141
REMARK  Name = 
REMARK  4 active torsions:
REMARK  status: ('A' for Active; 'I' for Inactive)
REMARK    1  A    between atoms: C_1  and  C_2
REMARK    2  A    between atoms: C_9  and  N_10
REMARK    3  A    between atoms: C_11  and  C_13
REMARK    4  A    between atoms: C_22  and  C_23
REMARK                            x       y       z     vdW  Elec       q    Type
REMARK                         _______ _______ _______ _____ _____    ______ ____
ROOT
ATOM      1  N   UNL     1       2.122   8.958  19.158  0.00  0.00    +0.000 N 
ATOM      2  C   UNL     1       1.233   9.669  18.356  0.00  0.00    +0.000 C 
ATOM      3  O   UNL     1       0.600   9.137  17.435  0.00  0.00    +0.000 OA
ATOM      4  H   UNL     1       2.480   9.436  19.971  0.00  0.00    +0.000 HD
ENDROOT
BRANCH   1  13
ATOM      5  C   UNL     1       2.077   2.164  19.886  0.00  0.00    +0.000 C 
ATOM      6  C   UNL     1       3.056   2.292  18.753  0.00  0.00    +0.000 C 
ATOM      7  O   UNL     1       3.549   1.267  18.268  0.00  0.00    +0.000 OA
ATOM      8  N   UNL     1       3.366   3.539  18.257  0.00  0.00    +0.000 N 
ATOM      9  C   UNL     1       4.203   3.652  17.049  0.00  0.00    +0.000 C 
ATOM     10  C   UNL     1       4.488   5.137  16.825  0.00  0.00    +0.000 C 
ATOM     11  C   UNL     1       3.545   5.773  17.798  0.00  0.00    +0.000 A 
ATOM     12  C   UNL     1       3.297   7.136  17.945  0.00  0.00    +0.000 A 
ATOM     13  C   UNL     1       2.450   7.585  18.967  0.00  0.00    +0.000 A 
ATOM     14  C   UNL     1       1.917   6.643  19.856  0.00  0.00    +0.000 A 
ATOM     15  C   UNL     1       2.161   5.262  19.682  0.00  0.00    +0.000 A 
ATOM     16  C   UNL     1       2.964   4.832  18.644  0.00  0.00    +0.000 A 
ENDBRANCH   1  13
BRANCH   2  17
ATOM     17  C   UNL     1       1.067  11.080  18.620  0.00  0.00    +0.000 A 
ATOM     18  O   UNL     1       2.096  11.977  18.487  0.00  0.00    +0.000 OA
ATOM     19  C   UNL     1       1.562  13.226  18.666  0.00  0.00    +0.000 A 
ATOM     20  C   UNL     1       2.240  14.439  18.535  0.00  0.00    +0.000 A 
ATOM     21  C   UNL     1       1.474  15.606  18.670  0.00  0.00    +0.000 A 
ATOM     22  C   UNL     1       0.111  15.539  18.953  0.00  0.00    +0.000 A 
ATOM     23  F   UNL     1      -0.596  16.672  19.054  0.00  0.00    +0.000 F 
ATOM     24  C   UNL     1      -0.542  14.319  19.113  0.00  0.00    +0.000 A 
ATOM     25  C   UNL     1       0.203  13.137  18.955  0.00  0.00    +0.000 A 
ATOM     26  C   UNL     1      -0.106  11.751  18.966  0.00  0.00    +0.000 A 
ATOM     27  C   UNL     1      -1.441  11.132  19.193  0.00  0.00    +0.000 C 
ENDBRANCH   2  17
TORSDOF 2
ENDMDL
MODEL 6
REMARK VINA RESULT:      -8.2      4.215      8.945
REMARK  Name = 
REMARK  4 active torsions:
REMARK  status: ('A' for Active; 'I' for Inactive)
REMARK    1  A    between atoms: C_1  and  C_2
REMARK    2  A    between atoms: C_9  and  N_10
REMARK    3  A    between atoms: C_11  and  C_13
REMARK    4  A    between atoms: C_22  and  C_23
REMARK                            x       y       z     vdW  Elec       q    Type
REMARK                         _______ _______ _______ _____ _____    ______ ____
ROOT
ATOM      1  N   UNL     1       1.798   8.971  19.543  0.00  0.00    +0.000 N 
ATOM      2  C   UNL     1       1.180   9.742  18.563  0.00  0.00    +0.000 C 
ATOM      3  O   UNL     1       0.757   9.256  17.506  0.00  0.00    +0.000 OA
ATOM      4  H   UNL     1       1.978   9.422  20.428  0.00  0.00    +0.000 HD
ENDROOT
BRANCH   1  13
ATOM      5  C   UNL     1       4.287   3.100  17.088  0.00  0.00    +0.000 C 
ATOM      6  C   UNL     1       3.609   2.589  18.329  0.00  0.00    +0.000 C 
ATOM      7  O   UNL     1       3.668   1.383  18.591  0.00  0.00    +0.000 OA
ATOM      8  N   UNL     1       2.962   3.473  19.165  0.00  0.00    +0.000 N 
ATOM      9  C   UNL     1       2.434   2.996  20.455  0.00  0.00    +0.000 C 
ATOM     10  C   UNL     1       1.657   4.151  21.089  0.00  0.00    +0.000 C 
ATOM     11  C   UNL     1       2.044   5.294  20.202  0.00  0.00    +0.000 A 
ATOM     12  C   UNL     1       1.711   6.635  20.383  0.00  0.00    +0.000 A 
ATOM     13  C   UNL     1       2.073   7.580  19.412  0.00  0.00    +0.000 A 
ATOM     14  C   UNL     1       2.717   7.134  18.252  0.00  0.00    +0.000 A 
ATOM     15  C   UNL     1       3.067   5.774  18.093  0.00  0.00    +0.000 A 
ATOM     16  C   UNL     1       2.740   4.861  19.077  0.00  0.00    +0.000 A 
ENDBRANCH   1  13
BRANCH   2  17
ATOM     17  C   UNL     1       1.047  11.161  18.805  0.00  0.00    +0.000 A 
ATOM     18  O   UNL     1       2.085  12.037  18.622  0.00  0.00    +0.000 OA
ATOM     19  C   UNL     1       1.578  13.298  18.795  0.00  0.00    +0.000 A 
ATOM     20  C   UNL     1       2.272  14.497  18.619  0.00  0.00    +0.000 A 
ATOM     21  C   UNL     1       1.530  15.679  18.756  0.00  0.00    +0.000 A 
ATOM     22  C   UNL     1       0.177  15.641  19.083  0.00  0.00    +0.000 A 
ATOM     23  F   UNL     1      -0.508  16.788  19.185  0.00  0.00    +0.000 F 
ATOM     24  C   UNL     1      -0.492  14.436  19.288  0.00  0.00    +0.000 A 
ATOM     25  C   UNL     1       0.228  13.238  19.128  0.00  0.00    +0.000 A 
ATOM     26  C   UNL     1      -0.104  11.858  19.176  0.00  0.00    +0.000 A 
ATOM     27  C   UNL     1      -1.441  11.267  19.457  0.00  0.00    +0.000 C 
ENDBRANCH   2  17
TORSDOF 2
ENDMDL
MODEL 7
REMARK VINA RESULT:      -8.2      4.196      9.321
REMARK  Name = 
REMARK  4 active torsions:
REMARK  status: ('A' for Active; 'I' for Inactive)
REMARK    1  A    between atoms: C_1  and  C_2
REMARK    2  A    between atoms: C_9  and  N_10
REMARK    3  A    between atoms: C_11  and  C_13
REMARK    4  A    between atoms: C_22  and  C_23
REMARK                            x       y       z     vdW  Elec       q    Type
REMARK                         _______ _______ _______ _____ _____    ______ ____
ROOT
ATOM      1  N   UNL     1       1.466   8.764  20.722  0.00  0.00    +0.000 N 
ATOM      2  C   UNL     1       0.694   9.707  20.050  0.00  0.00    +0.000 C 
ATOM      3  O   UNL     1       0.153   9.467  18.962  0.00  0.00    +0.000 OA
ATOM      4  H   UNL     1       1.744   8.995  21.664  0.00  0.00    +0.000 HD
ENDROOT
BRANCH   1  13
ATOM      5  C   UNL     1       4.236   3.856  16.860  0.00  0.00    +0.000 C 
ATOM      6  C   UNL     1       3.475   3.008  17.840  0.00  0.00    +0.000 C 
ATOM      7  O   UNL     1       3.534   1.777  17.740  0.00  0.00    +0.000 OA
ATOM      8  N   UNL     1       2.750   3.612  18.844  0.00  0.00    +0.000 N 
ATOM      9  C   UNL     1       2.134   2.781  19.893  0.00  0.00    +0.000 C 
ATOM     10  C   UNL     1       1.290   3.704  20.774  0.00  0.00    +0.000 C 
ATOM     11  C   UNL     1       1.724   5.054  20.294  0.00  0.00    +0.000 A 
ATOM     12  C   UNL     1       1.355   6.285  20.832  0.00  0.00    +0.000 A 
ATOM     13  C   UNL     1       1.774   7.471  20.212  0.00  0.00    +0.000 A 
ATOM     14  C   UNL     1       2.513   7.381  19.026  0.00  0.00    +0.000 A 
ATOM     15  C   UNL     1       2.897   6.125  18.504  0.00  0.00    +0.000 A 
ATOM     16  C   UNL     1       2.512   4.965  19.149  0.00  0.00    +0.000 A 
ENDBRANCH   1  13
BRANCH   2  17
ATOM     17  C   UNL     1       0.539  11.010  20.657  0.00  0.00    +0.000 A 
ATOM     18  O   UNL     1       1.018  12.153  20.071  0.00  0.00    +0.000 OA
ATOM     19  C   UNL     1       0.575  13.205  20.828  0.00  0.00    +0.000 A 
ATOM     20  C   UNL     1       0.761  14.560  20.547  0.00  0.00    +0.000 A 
ATOM     21  C   UNL     1       0.138  15.474  21.410  0.00  0.00    +0.000 A 
ATOM     22  C   UNL     1      -0.598  15.033  22.507  0.00  0.00    +0.000 A 
ATOM     23  F   UNL     1      -1.198  15.931  23.300  0.00  0.00    +0.000 F 
ATOM     24  C   UNL     1      -0.746  13.677  22.792  0.00  0.00    +0.000 A 
ATOM     25  C   UNL     1      -0.152  12.745  21.922  0.00  0.00    +0.000 A 
ATOM     26  C   UNL     1      -0.139  11.327  21.834  0.00  0.00    +0.000 A 
ATOM     27  C   UNL     1      -0.808  10.366  22.753  0.00  0.00    +0.000 C 
ENDBRANCH   2  17
TORSDOF 2
ENDMDL
MODEL 8
REMARK VINA RESULT:      -8.1      4.027      9.028
REMARK  Name = 
REMARK  4 active torsions:
REMARK  status: ('A' for Active; 'I' for Inactive)
REMARK    1  A    between atoms: C_1  and  C_2
REMARK    2  A    between atoms: C_9  and  N_10
REMARK    3  A    between atoms: C_11  and  C_13
REMARK    4  A    between atoms: C_22  and  C_23
REMARK                            x       y       z     vdW  Elec       q    Type
REMARK                         _______ _______ _______ _____ _____    ______ ____
ROOT
ATOM      1  N   UNL     1       1.714   8.773  19.603  0.00  0.00    +0.000 N 
ATOM      2  C   UNL     1       0.776   9.295  20.488  0.00  0.00    +0.000 C 
ATOM      3  O   UNL     1       0.169   8.587  21.303  0.00  0.00    +0.000 OA
ATOM      4  H   UNL     1       2.262   9.440  19.079  0.00  0.00    +0.000 HD
ENDROOT
BRANCH   1  13
ATOM      5  C   UNL     1       4.006   2.880  17.014  0.00  0.00    +0.000 C 
ATOM      6  C   UNL     1       3.569   2.408  18.373  0.00  0.00    +0.000 C 
ATOM      7  O   UNL     1       3.722   1.218  18.672  0.00  0.00    +0.000 OA
ATOM      8  N   UNL     1       3.034   3.308  19.267  0.00  0.00    +0.000 N 
ATOM      9  C   UNL     1       2.751   2.877  20.648  0.00  0.00    +0.000 C 
ATOM     10  C   UNL     1       2.042   4.033  21.354  0.00  0.00    +0.000 C 
ATOM     11  C   UNL     1       2.225   5.144  20.367  0.00  0.00    +0.000 A 
ATOM     12  C   UNL     1       1.870   6.480  20.544  0.00  0.00    +0.000 A 
ATOM     13  C   UNL     1       2.023   7.388  19.487  0.00  0.00    +0.000 A 
ATOM     14  C   UNL     1       2.482   6.908  18.254  0.00  0.00    +0.000 A 
ATOM     15  C   UNL     1       2.858   5.555  18.096  0.00  0.00    +0.000 A 
ATOM     16  C   UNL     1       2.741   4.681  19.160  0.00  0.00    +0.000 A 
ENDBRANCH   1  13
BRANCH   2  17
ATOM     17  C   UNL     1       0.508  10.714  20.430  0.00  0.00    +0.000 A 
ATOM     18  O   UNL     1       1.107  11.609  21.278  0.00  0.00    +0.000 OA
ATOM     19  C   UNL     1       0.747  12.861  20.855  0.00  0.00    +0.000 A 
ATOM     20  C   UNL     1       1.200  14.072  21.384  0.00  0.00    +0.000 A 
ATOM     21  C   UNL     1       0.775  15.240  20.734  0.00  0.00    +0.000 A 
ATOM     22  C   UNL     1      -0.082  15.178  19.638  0.00  0.00    +0.000 A 
ATOM     23  F   UNL     1      -0.453  16.311  19.028  0.00  0.00    +0.000 F 
ATOM     24  C   UNL     1      -0.551  13.962  19.145  0.00  0.00    +0.000 A 
ATOM     25  C   UNL     1      -0.114  12.778  19.766  0.00  0.00    +0.000 A 
ATOM     26  C   UNL     1      -0.302  11.392  19.518  0.00  0.00    +0.000 A 
ATOM     27  C   UNL     1      -1.113  10.777  18.432  0.00  0.00    +0.000 C 
ENDBRANCH   2  17
TORSDOF 2
ENDMDL
MODEL 9
REMARK VINA RESULT:      -8.1      2.619      3.839
REMARK  Name = 
REMARK  4 active torsions:
REMARK  status: ('A' for Active; 'I' for Inactive)
REMARK    1  A    between atoms: C_1  and  C_2
REMARK    2  A    between atoms: C_9  and  N_10
REMARK    3  A    between atoms: C_11  and  C_13
REMARK    4  A    between atoms: C_22  and  C_23
REMARK                            x       y       z     vdW  Elec       q    Type
REMARK                         _______ _______ _______ _____ _____    ______ ____
ROOT
ATOM      1  N   UNL     1       1.227   9.000  19.036  0.00  0.00    +0.000 N 
ATOM      2  C   UNL     1       1.596   8.221  20.129  0.00  0.00    +0.000 C 
ATOM      3  O   UNL     1       1.658   8.678  21.278  0.00  0.00    +0.000 OA
ATOM      4  H   UNL     1       1.063   8.513  18.168  0.00  0.00    +0.000 HD
ENDROOT
BRANCH   1  13
ATOM      5  C   UNL     1      -1.836  14.897  20.623  0.00  0.00    +0.000 C 
ATOM      6  C   UNL     1      -0.639  15.425  19.883  0.00  0.00    +0.000 C 
ATOM      7  O   UNL     1      -0.498  16.647  19.764  0.00  0.00    +0.000 OA
ATOM      8  N   UNL     1       0.291  14.544  19.376  0.00  0.00    +0.000 N 
ATOM      9  C   UNL     1       1.539  15.064  18.790  0.00  0.00    +0.000 C 
ATOM     10  C   UNL     1       2.297  13.878  18.194  0.00  0.00    +0.000 C 
ATOM     11  C   UNL     1       1.519  12.721  18.741  0.00  0.00    +0.000 A 
ATOM     12  C   UNL     1       1.836  11.370  18.609  0.00  0.00    +0.000 A 
ATOM     13  C   UNL     1       0.956  10.396  19.103  0.00  0.00    +0.000 A 
ATOM     14  C   UNL     1      -0.254  10.814  19.669  0.00  0.00    +0.000 A 
ATOM     15  C   UNL     1      -0.552  12.187  19.814  0.00  0.00    +0.000 A 
ATOM     16  C   UNL     1       0.344  13.137  19.361  0.00  0.00    +0.000 A 
ENDBRANCH   1  13
BRANCH   2  17
ATOM     17  C   UNL     1       1.924   6.834  19.889  0.00  0.00    +0.000 A 
ATOM     18  O   UNL     1       1.394   5.815  20.638  0.00  0.00    +0.000 OA
ATOM     19  C   UNL     1       1.794   4.642  20.054  0.00  0.00    +0.000 A 
ATOM     20  C   UNL     1       1.413   3.355  20.443  0.00  0.00    +0.000 A 
ATOM     21  C   UNL     1       1.867   2.296  19.644  0.00  0.00    +0.000 A 
ATOM     22  C   UNL     1       2.683   2.532  18.539  0.00  0.00    +0.000 A 
ATOM     23  F   UNL     1       3.081   1.500  17.784  0.00  0.00    +0.000 F 
ATOM     24  C   UNL     1       3.080   3.819  18.185  0.00  0.00    +0.000 A 
ATOM     25  C   UNL     1       2.613   4.897  18.959  0.00  0.00    +0.000 A 
ATOM     26  C   UNL     1       2.731   6.311  18.878  0.00  0.00    +0.000 A 
ATOM     27  C   UNL     1       3.476   7.091  17.853  0.00  0.00    +0.000 C 
ENDBRANCH   2  17
TORSDOF 2
ENDMDL
