MODEL 1
REMARK VINA RESULT:      -9.0      0.000      0.000
REMARK  Name = 
REMARK  8 active torsions:
REMARK  status: ('A' for Active; 'I' for Inactive)
REMARK    1  A    between atoms: C_1  and  N_2
REMARK    2  A    between atoms: C_6  and  C_7
REMARK    3  A    between atoms: C_7  and  C_8
REMARK    4  A    between atoms: C_8  and  C_9
REMARK    5  A    between atoms: C_13  and  C_14
REMARK    6  A    between atoms: C_14  and  N_15
REMARK    7  A    between atoms: N_15  and  C_16
REMARK    8  A    between atoms: C_22  and  C_23
REMARK                            x       y       z     vdW  Elec       q    Type
REMARK                         _______ _______ _______ _____ _____    ______ ____
ROOT
ATOM      1  C   UNL     1       4.056   4.586  17.337  0.00  0.00    +0.000 A 
ATOM      2  C   UNL     1       3.477   3.333  17.061  0.00  0.00    +0.000 A 
ATOM      3  C   UNL     1       2.300   2.907  17.689  0.00  0.00    +0.000 A 
ATOM      4  C   UNL     1       1.677   3.717  18.636  0.00  0.00    +0.000 A 
ATOM      5  C   UNL     1       2.236   4.948  18.975  0.00  0.00    +0.000 A 
ATOM      6  C   UNL     1       3.400   5.370  18.311  0.00  0.00    +0.000 A 
ENDROOT
BRANCH   1   7
ATOM      7  C   UNL     1       5.372   5.127  16.592  0.00  0.00    +0.000 C 
ATOM      8  C   UNL     1       5.206   6.437  15.770  0.00  0.00    +0.000 C 
ATOM      9  O   UNL     1       6.196   7.132  16.550  0.00  0.00    +0.000 OA
ATOM     10  C   UNL     1       6.344   6.004  17.439  0.00  0.00    +0.000 C 
BRANCH   7  11
ATOM     11  C   UNL     1       6.032   4.020  15.744  0.00  0.00    +0.000 C 
BRANCH  11  17
ATOM     12  C   UNL     1       5.570   3.379  12.670  0.00  0.00    +0.000 C 
ATOM     13  N   UNL     1       6.562   4.250  13.245  0.00  0.00    +0.000 N 
ATOM     14  C   UNL     1       7.432   5.014  12.531  0.00  0.00    +0.000 A 
ATOM     15  N   UNL     1       8.225   5.659  13.351  0.00  0.00    +0.000 NA
ATOM     16  N   UNL     1       7.845   5.338  14.631  0.00  0.00    +0.000 NA
ATOM     17  C   UNL     1       6.824   4.504  14.571  0.00  0.00    +0.000 A 
ENDBRANCH  11  17
ENDBRANCH   7  11
ENDBRANCH   1   7
BRANCH   5  18
ATOM     18  C   UNL     1       1.683   5.800  20.086  0.00  0.00    +0.000 C 
BRANCH  18  19
ATOM     19  N   UNL     1       2.457   7.024  20.302  0.00  0.00    +0.000 N 
ATOM     20  H   UNL     1       3.433   6.918  20.034  0.00  0.00    +0.000 HD
BRANCH  19  21
ATOM     21  C   UNL     1       1.888   8.218  19.796  0.00  0.00    +0.000 A 
ATOM     22  C   UNL     1       1.934   8.493  18.414  0.00  0.00    +0.000 A 
ATOM     23  C   UNL     1       1.302   9.608  17.876  0.00  0.00    +0.000 A 
ATOM     24  C   UNL     1       0.609  10.422  18.734  0.00  0.00    +0.000 A 
ATOM     25  F   UNL     1      -0.027  11.489  18.229  0.00  0.00    +0.000 F 
ATOM     26  N   UNL     1       0.507  10.203  20.057  0.00  0.00    +0.000 NA
ATOM     27  C   UNL     1       1.118   9.106  20.592  0.00  0.00    +0.000 A 
BRANCH  27  28
ATOM     28  C   UNL     1       0.837   8.927  22.076  0.00  0.00    +0.000 C 
ATOM     29  C   UNL     1      -0.584   8.518  22.447  0.00  0.00    +0.000 C 
ATOM     30  C   UNL     1      -0.026   9.818  22.933  0.00  0.00    +0.000 C 
ENDBRANCH  27  28
ENDBRANCH  19  21
ENDBRANCH  18  19
ENDBRANCH   5  18
TORSDOF 7
ENDMDL
MODEL 2
REMARK VINA RESULT:      -8.5      3.089      4.357
REMARK  Name = 
REMARK  8 active torsions:
REMARK  status: ('A' for Active; 'I' for Inactive)
REMARK    1  A    between atoms: C_1  and  N_2
REMARK    2  A    between atoms: C_6  and  C_7
REMARK    3  A    between atoms: C_7  and  C_8
REMARK    4  A    between atoms: C_8  and  C_9
REMARK    5  A    between atoms: C_13  and  C_14
REMARK    6  A    between atoms: C_14  and  N_15
REMARK    7  A    between atoms: N_15  and  C_16
REMARK    8  A    between atoms: C_22  and  C_23
REMARK                            x       y       z     vdW  Elec       q    Type
REMARK                         _______ _______ _______ _____ _____    ______ ____
ROOT
ATOM      1  C   UNL     1       3.588   5.877  18.503  0.00  0.00    +0.000 A 
ATOM      2  C   UNL     1       3.223   5.497  19.809  0.00  0.00    +0.000 A 
ATOM      3  C   UNL     1       2.334   6.255  20.579  0.00  0.00    +0.000 A 
ATOM      4  C   UNL     1       1.799   7.439  20.073  0.00  0.00    +0.000 A 
ATOM      5  C   UNL     1       2.164   7.879  18.801  0.00  0.00    +0.000 A 
ATOM      6  C   UNL     1       3.033   7.087  18.033  0.00  0.00    +0.000 A 
ENDROOT
BRANCH   1   7
ATOM      7  C   UNL     1       4.559   4.998  17.574  0.00  0.00    +0.000 C 
ATOM      8  C   UNL     1       5.569   5.791  16.694  0.00  0.00    +0.000 C 
ATOM      9  O   UNL     1       6.705   5.153  17.304  0.00  0.00    +0.000 OA
ATOM     10  C   UNL     1       5.859   4.452  18.240  0.00  0.00    +0.000 C 
BRANCH   7  11
ATOM     11  C   UNL     1       3.762   3.986  16.726  0.00  0.00    +0.000 C 
BRANCH  11  17
ATOM     12  C   UNL     1       3.760   1.400  18.566  0.00  0.00    +0.000 C 
ATOM     13  N   UNL     1       2.646   2.257  18.257  0.00  0.00    +0.000 N 
ATOM     14  C   UNL     1       1.397   2.129  18.783  0.00  0.00    +0.000 A 
ATOM     15  N   UNL     1       0.609   3.041  18.269  0.00  0.00    +0.000 NA
ATOM     16  N   UNL     1       1.363   3.805  17.413  0.00  0.00    +0.000 NA
ATOM     17  C   UNL     1       2.601   3.348  17.421  0.00  0.00    +0.000 A 
ENDBRANCH  11  17
ENDBRANCH   7  11
ENDBRANCH   1   7
BRANCH   5  18
ATOM     18  C   UNL     1       1.725   9.214  18.260  0.00  0.00    +0.000 C 
BRANCH  18  19
ATOM     19  N   UNL     1       1.147  10.080  19.287  0.00  0.00    +0.000 N 
ATOM     20  H   UNL     1       1.795  10.801  19.597  0.00  0.00    +0.000 HD
BRANCH  19  21
ATOM     21  C   UNL     1      -0.141  10.600  19.010  0.00  0.00    +0.000 A 
ATOM     22  C   UNL     1      -0.831  10.200  17.847  0.00  0.00    +0.000 A 
ATOM     23  C   UNL     1      -2.133  10.618  17.597  0.00  0.00    +0.000 A 
ATOM     24  C   UNL     1      -2.735  11.417  18.534  0.00  0.00    +0.000 A 
ATOM     25  F   UNL     1      -3.999  11.810  18.321  0.00  0.00    +0.000 F 
ATOM     26  N   UNL     1      -2.142  11.815  19.673  0.00  0.00    +0.000 NA
ATOM     27  C   UNL     1      -0.866  11.402  19.930  0.00  0.00    +0.000 A 
BRANCH  27  28
ATOM     28  C   UNL     1      -0.358  11.841  21.295  0.00  0.00    +0.000 C 
ATOM     29  C   UNL     1      -0.525  10.838  22.430  0.00  0.00    +0.000 C 
ATOM     30  C   UNL     1      -1.204  12.168  22.499  0.00  0.00    +0.000 C 
ENDBRANCH  27  28
ENDBRANCH  19  21
ENDBRANCH  18  19
ENDBRANCH   5  18
TORSDOF 7
ENDMDL
MODEL 3
REMARK VINA RESULT:      -8.5      3.252      4.935
REMARK  Name = 
REMARK  8 active torsions:
REMARK  status: ('A' for Active; 'I' for Inactive)
REMARK    1  A    between atoms: C_1  and  N_2
REMARK    2  A    between atoms: C_6  and  C_7
REMARK    3  A    between atoms: C_7  and  C_8
REMARK    4  A    between atoms: C_8  and  C_9
REMARK    5  A    between atoms: C_13  and  C_14
REMARK    6  A    between atoms: C_14  and  N_15
REMARK    7  A    between atoms: N_15  and  C_16
REMARK    8  A    between atoms: C_22  and  C_23
REMARK                            x       y       z     vdW  Elec       q    Type
REMARK                         _______ _______ _______ _____ _____    ______ ____
ROOT
ATOM      1  C   UNL     1       3.653   5.937  18.490  0.00  0.00    +0.000 A 
ATOM      2  C   UNL     1       3.206   5.612  19.785  0.00  0.00    +0.000 A 
ATOM      3  C   UNL     1       2.330   6.440  20.496  0.00  0.00    +0.000 A 
ATOM      4  C   UNL     1       1.891   7.640  19.939  0.00  0.00    +0.000 A 
ATOM      5  C   UNL     1       2.339   8.026  18.677  0.00  0.00    +0.000 A 
ATOM      6  C   UNL     1       3.194   7.166  17.968  0.00  0.00    +0.000 A 
ENDROOT
BRANCH   1   7
ATOM      7  C   UNL     1       4.611   4.980  17.626  0.00  0.00    +0.000 C 
ATOM      8  C   UNL     1       5.700   5.690  16.772  0.00  0.00    +0.000 C 
ATOM      9  O   UNL     1       6.772   5.007  17.448  0.00  0.00    +0.000 OA
ATOM     10  C   UNL     1       5.848   4.381  18.363  0.00  0.00    +0.000 C 
BRANCH   7  11
ATOM     11  C   UNL     1       3.794   3.990  16.771  0.00  0.00    +0.000 C 
BRANCH  11  17
ATOM     12  C   UNL     1       3.679   1.432  18.645  0.00  0.00    +0.000 C 
ATOM     13  N   UNL     1       2.597   2.316  18.301  0.00  0.00    +0.000 N 
ATOM     14  C   UNL     1       1.334   2.231  18.803  0.00  0.00    +0.000 A 
ATOM     15  N   UNL     1       0.583   3.158  18.259  0.00  0.00    +0.000 NA
ATOM     16  N   UNL     1       1.377   3.888  17.409  0.00  0.00    +0.000 NA
ATOM     17  C   UNL     1       2.601   3.396  17.449  0.00  0.00    +0.000 A 
ENDBRANCH  11  17
ENDBRANCH   7  11
ENDBRANCH   1   7
BRANCH   5  18
ATOM     18  C   UNL     1       2.007   9.371  18.086  0.00  0.00    +0.000 C 
BRANCH  18  19
ATOM     19  N   UNL     1       0.654   9.429  17.533  0.00  0.00    +0.000 N 
ATOM     20  H   UNL     1       0.271   8.505  17.344  0.00  0.00    +0.000 HD
BRANCH  19  21
ATOM     21  C   UNL     1      -0.265  10.259  18.221  0.00  0.00    +0.000 A 
ATOM     22  C   UNL     1       0.160  11.014  19.333  0.00  0.00    +0.000 A 
ATOM     23  C   UNL     1      -0.693  11.909  19.969  0.00  0.00    +0.000 A 
ATOM     24  C   UNL     1      -1.959  12.051  19.462  0.00  0.00    +0.000 A 
ATOM     25  F   UNL     1      -2.787  12.927  20.048  0.00  0.00    +0.000 F 
ATOM     26  N   UNL     1      -2.418  11.379  18.392  0.00  0.00    +0.000 NA
ATOM     27  C   UNL     1      -1.584  10.504  17.757  0.00  0.00    +0.000 A 
BRANCH  27  28
ATOM     28  C   UNL     1      -2.198   9.892  16.507  0.00  0.00    +0.000 C 
ATOM     29  C   UNL     1      -2.752  10.872  15.480  0.00  0.00    +0.000 C 
ATOM     30  C   UNL     1      -3.660   9.886  16.143  0.00  0.00    +0.000 C 
ENDBRANCH  27  28
ENDBRANCH  19  21
ENDBRANCH  18  19
ENDBRANCH   5  18
TORSDOF 7
ENDMDL
MODEL 4
REMARK VINA RESULT:      -8.4      2.908      4.479
REMARK  Name = 
REMARK  8 active torsions:
REMARK  status: ('A' for Active; 'I' for Inactive)
REMARK    1  A    between atoms: C_1  and  N_2
REMARK    2  A    between atoms: C_6  and  C_7
REMARK    3  A    between atoms: C_7  and  C_8
REMARK    4  A    between atoms: C_8  and  C_9
REMARK    5  A    between atoms: C_13  and  C_14
REMARK    6  A    between atoms: C_14  and  N_15
REMARK    7  A    between atoms: N_15  and  C_16
REMARK    8  A    between atoms: C_22  and  C_23
REMARK                            x       y       z     vdW  Elec       q    Type
REMARK                         _______ _______ _______ _____ _____    ______ ____
ROOT
ATOM      1  C   UNL     1       2.469   6.830  19.147  0.00  0.00    +0.000 A 
ATOM      2  C   UNL     1       2.048   6.741  20.488  0.00  0.00    +0.000 A 
ATOM      3  C   UNL     1       1.304   7.757  21.099  0.00  0.00    +0.000 A 
ATOM      4  C   UNL     1       0.977   8.912  20.391  0.00  0.00    +0.000 A 
ATOM      5  C   UNL     1       1.409   9.065  19.073  0.00  0.00    +0.000 A 
ATOM      6  C   UNL     1       2.128   8.021  18.470  0.00  0.00    +0.000 A 
ENDROOT
BRANCH   1   7
ATOM      7  C   UNL     1       3.274   5.657  18.401  0.00  0.00    +0.000 C 
ATOM      8  C   UNL     1       3.724   4.462  19.289  0.00  0.00    +0.000 C 
ATOM      9  O   UNL     1       2.979   3.512  18.506  0.00  0.00    +0.000 OA
ATOM     10  C   UNL     1       2.419   4.564  17.692  0.00  0.00    +0.000 C 
BRANCH   7  11
ATOM     11  C   UNL     1       4.457   6.219  17.586  0.00  0.00    +0.000 C 
BRANCH  11  17
ATOM     12  C   UNL     1       5.901   3.987  15.853  0.00  0.00    +0.000 C 
ATOM     13  N   UNL     1       6.398   4.635  17.039  0.00  0.00    +0.000 N 
ATOM     14  C   UNL     1       7.635   4.437  17.572  0.00  0.00    +0.000 A 
ATOM     15  N   UNL     1       7.758   5.146  18.668  0.00  0.00    +0.000 NA
ATOM     16  N   UNL     1       6.591   5.850  18.838  0.00  0.00    +0.000 NA
ATOM     17  C   UNL     1       5.776   5.561  17.842  0.00  0.00    +0.000 A 
ENDBRANCH  11  17
ENDBRANCH   7  11
ENDBRANCH   1   7
BRANCH   5  18
ATOM     18  C   UNL     1       1.204  10.345  18.308  0.00  0.00    +0.000 C 
BRANCH  18  19
ATOM     19  N   UNL     1       0.233  11.237  18.943  0.00  0.00    +0.000 N 
ATOM     20  H   UNL     1       0.561  12.199  18.988  0.00  0.00    +0.000 HD
BRANCH  19  21
ATOM     21  C   UNL     1      -1.098  11.147  18.469  0.00  0.00    +0.000 A 
ATOM     22  C   UNL     1      -1.447  10.163  17.521  0.00  0.00    +0.000 A 
ATOM     23  C   UNL     1      -2.763   9.988  17.108  0.00  0.00    +0.000 A 
ATOM     24  C   UNL     1      -3.719  10.791  17.674  0.00  0.00    +0.000 A 
ATOM     25  F   UNL     1      -4.996  10.620  17.306  0.00  0.00    +0.000 F 
ATOM     26  N   UNL     1      -3.456  11.732  18.599  0.00  0.00    +0.000 NA
ATOM     27  C   UNL     1      -2.167  11.904  19.015  0.00  0.00    +0.000 A 
BRANCH  27  28
ATOM     28  C   UNL     1      -2.031  12.927  20.133  0.00  0.00    +0.000 C 
ATOM     29  C   UNL     1      -2.020  12.374  21.553  0.00  0.00    +0.000 C 
ATOM     30  C   UNL     1      -3.100  13.314  21.122  0.00  0.00    +0.000 C 
ENDBRANCH  27  28
ENDBRANCH  19  21
ENDBRANCH  18  19
ENDBRANCH   5  18
TORSDOF 7
ENDMDL
MODEL 5
REMARK VINA RESULT:      -8.4      3.162      4.636
REMARK  Name = 
REMARK  8 active torsions:
REMARK  status: ('A' for Active; 'I' for Inactive)
REMARK    1  A    between atoms: C_1  and  N_2
REMARK    2  A    between atoms: C_6  and  C_7
REMARK    3  A    between atoms: C_7  and  C_8
REMARK    4  A    between atoms: C_8  and  C_9
REMARK    5  A    between atoms: C_13  and  C_14
REMARK    6  A    between atoms: C_14  and  N_15
REMARK    7  A    between atoms: N_15  and  C_16
REMARK    8  A    between atoms: C_22  and  C_23
REMARK                            x       y       z     vdW  Elec       q    Type
REMARK                         _______ _______ _______ _____ _____    ______ ____
ROOT
ATOM      1  C   UNL     1       3.928   5.791  18.312  0.00  0.00    +0.000 A 
ATOM      2  C   UNL     1       3.576   5.468  19.636  0.00  0.00    +0.000 A 
ATOM      3  C   UNL     1       2.660   6.232  20.367  0.00  0.00    +0.000 A 
ATOM      4  C   UNL     1       2.082   7.367  19.801  0.00  0.00    +0.000 A 
ATOM      5  C   UNL     1       2.432   7.753  18.507  0.00  0.00    +0.000 A 
ATOM      6  C   UNL     1       3.330   6.955  17.780  0.00  0.00    +0.000 A 
ENDROOT
BRANCH   1   7
ATOM      7  C   UNL     1       4.932   4.902  17.429  0.00  0.00    +0.000 C 
ATOM      8  C   UNL     1       5.865   5.681  16.458  0.00  0.00    +0.000 C 
ATOM      9  O   UNL     1       7.056   5.168  17.084  0.00  0.00    +0.000 OA
ATOM     10  C   UNL     1       6.280   4.496  18.098  0.00  0.00    +0.000 C 
BRANCH   7  11
ATOM     11  C   UNL     1       4.181   3.774  16.690  0.00  0.00    +0.000 C 
BRANCH  11  17
ATOM     12  C   UNL     1       4.137   1.588  18.991  0.00  0.00    +0.000 C 
ATOM     13  N   UNL     1       3.017   2.310  18.445  0.00  0.00    +0.000 N 
ATOM     14  C   UNL     1       1.737   2.218  18.899  0.00  0.00    +0.000 A 
ATOM     15  N   UNL     1       0.956   2.972  18.165  0.00  0.00    +0.000 NA
ATOM     16  N   UNL     1       1.745   3.599  17.231  0.00  0.00    +0.000 NA
ATOM     17  C   UNL     1       2.996   3.219  17.413  0.00  0.00    +0.000 A 
ENDBRANCH  11  17
ENDBRANCH   7  11
ENDBRANCH   1   7
BRANCH   5  18
ATOM     18  C   UNL     1       1.946   9.041  17.897  0.00  0.00    +0.000 C 
BRANCH  18  19
ATOM     19  N   UNL     1       0.600   9.406  18.339  0.00  0.00    +0.000 N 
ATOM     20  H   UNL     1       0.303   8.877  19.157  0.00  0.00    +0.000 HD
BRANCH  19  21
ATOM     21  C   UNL     1       0.343  10.792  18.476  0.00  0.00    +0.000 A 
ATOM     22  C   UNL     1       1.411  11.695  18.655  0.00  0.00    +0.000 A 
ATOM     23  C   UNL     1       1.199  13.068  18.696  0.00  0.00    +0.000 A 
ATOM     24  C   UNL     1      -0.085  13.519  18.532  0.00  0.00    +0.000 A 
ATOM     25  F   UNL     1      -0.305  14.841  18.545  0.00  0.00    +0.000 F 
ATOM     26  N   UNL     1      -1.143  12.713  18.335  0.00  0.00    +0.000 NA
ATOM     27  C   UNL     1      -0.943  11.363  18.285  0.00  0.00    +0.000 A 
BRANCH  27  28
ATOM     28  C   UNL     1      -2.206  10.581  17.956  0.00  0.00    +0.000 C 
ATOM     29  C   UNL     1      -2.412  10.225  16.488  0.00  0.00    +0.000 C 
ATOM     30  C   UNL     1      -3.400  11.097  17.195  0.00  0.00    +0.000 C 
ENDBRANCH  27  28
ENDBRANCH  19  21
ENDBRANCH  18  19
ENDBRANCH   5  18
TORSDOF 7
ENDMDL
MODEL 6
REMARK VINA RESULT:      -8.4      2.569      3.942
REMARK  Name = 
REMARK  8 active torsions:
REMARK  status: ('A' for Active; 'I' for Inactive)
REMARK    1  A    between atoms: C_1  and  N_2
REMARK    2  A    between atoms: C_6  and  C_7
REMARK    3  A    between atoms: C_7  and  C_8
REMARK    4  A    between atoms: C_8  and  C_9
REMARK    5  A    between atoms: C_13  and  C_14
REMARK    6  A    between atoms: C_14  and  N_15
REMARK    7  A    between atoms: N_15  and  C_16
REMARK    8  A    between atoms: C_22  and  C_23
REMARK                            x       y       z     vdW  Elec       q    Type
REMARK                         _______ _______ _______ _____ _____    ______ ____
ROOT
ATOM      1  C   UNL     1       2.709   5.209  19.008  0.00  0.00    +0.000 A 
ATOM      2  C   UNL     1       2.319   5.273  20.359  0.00  0.00    +0.000 A 
ATOM      3  C   UNL     1       1.797   6.442  20.924  0.00  0.00    +0.000 A 
ATOM      4  C   UNL     1       1.671   7.598  20.155  0.00  0.00    +0.000 A 
ATOM      5  C   UNL     1       2.084   7.596  18.823  0.00  0.00    +0.000 A 
ATOM      6  C   UNL     1       2.577   6.404  18.268  0.00  0.00    +0.000 A 
ENDROOT
BRANCH   1   7
ATOM      7  C   UNL     1       3.259   3.867  18.317  0.00  0.00    +0.000 C 
ATOM      8  C   UNL     1       3.555   2.675  19.272  0.00  0.00    +0.000 C 
ATOM      9  O   UNL     1       2.614   1.817  18.602  0.00  0.00    +0.000 OA
ATOM     10  C   UNL     1       2.190   2.891  17.737  0.00  0.00    +0.000 C 
BRANCH   7  11
ATOM     11  C   UNL     1       4.467   4.159  17.404  0.00  0.00    +0.000 C 
BRANCH  11  17
ATOM     12  C   UNL     1       7.317   4.778  16.151  0.00  0.00    +0.000 C 
ATOM     13  N   UNL     1       6.929   4.864  17.535  0.00  0.00    +0.000 N 
ATOM     14  C   UNL     1       7.731   5.312  18.540  0.00  0.00    +0.000 A 
ATOM     15  N   UNL     1       7.092   5.228  19.681  0.00  0.00    +0.000 NA
ATOM     16  N   UNL     1       5.832   4.749  19.416  0.00  0.00    +0.000 NA
ATOM     17  C   UNL     1       5.723   4.550  18.115  0.00  0.00    +0.000 A 
ENDBRANCH  11  17
ENDBRANCH   7  11
ENDBRANCH   1   7
BRANCH   5  18
ATOM     18  C   UNL     1       2.099   8.849  17.987  0.00  0.00    +0.000 C 
BRANCH  18  19
ATOM     19  N   UNL     1       1.638  10.027  18.722  0.00  0.00    +0.000 N 
ATOM     20  H   UNL     1       2.236  10.836  18.573  0.00  0.00    +0.000 HD
BRANCH  19  21
ATOM     21  C   UNL     1       0.264  10.344  18.592  0.00  0.00    +0.000 A 
ATOM     22  C   UNL     1      -0.470   9.868  17.486  0.00  0.00    +0.000 A 
ATOM     23  C   UNL     1      -1.840  10.082  17.378  0.00  0.00    +0.000 A 
ATOM     24  C   UNL     1      -2.460  10.753  18.399  0.00  0.00    +0.000 A 
ATOM     25  F   UNL     1      -3.784  10.948  18.325  0.00  0.00    +0.000 F 
ATOM     26  N   UNL     1      -1.823  11.212  19.491  0.00  0.00    +0.000 NA
ATOM     27  C   UNL     1      -0.479  10.999  19.608  0.00  0.00    +0.000 A 
BRANCH  27  28
ATOM     28  C   UNL     1       0.090  11.480  20.934  0.00  0.00    +0.000 C 
ATOM     29  C   UNL     1      -0.046  10.522  22.112  0.00  0.00    +0.000 C 
ATOM     30  C   UNL     1      -0.702  11.865  22.157  0.00  0.00    +0.000 C 
ENDBRANCH  27  28
ENDBRANCH  19  21
ENDBRANCH  18  19
ENDBRANCH   5  18
TORSDOF 7
ENDMDL
MODEL 7
REMARK VINA RESULT:      -8.3      2.984      4.503
REMARK  Name = 
REMARK  8 active torsions:
REMARK  status: ('A' for Active; 'I' for Inactive)
REMARK    1  A    between atoms: C_1  and  N_2
REMARK    2  A    between atoms: C_6  and  C_7
REMARK    3  A    between atoms: C_7  and  C_8
REMARK    4  A    between atoms: C_8  and  C_9
REMARK    5  A    between atoms: C_13  and  C_14
REMARK    6  A    between atoms: C_14  and  N_15
REMARK    7  A    between atoms: N_15  and  C_16
REMARK    8  A    between atoms: C_22  and  C_23
REMARK                            x       y       z     vdW  Elec       q    Type
REMARK                         _______ _______ _______ _____ _____    ______ ____
ROOT
ATOM      1  C   UNL     1       3.520   6.730  18.187  0.00  0.00    +0.000 A 
ATOM      2  C   UNL     1       3.112   6.292  19.460  0.00  0.00    +0.000 A 
ATOM      3  C   UNL     1       2.119   6.957  20.189  0.00  0.00    +0.000 A 
ATOM      4  C   UNL     1       1.518   8.104  19.673  0.00  0.00    +0.000 A 
ATOM      5  C   UNL     1       1.919   8.602  18.434  0.00  0.00    +0.000 A 
ATOM      6  C   UNL     1       2.895   7.902  17.706  0.00  0.00    +0.000 A 
ENDROOT
BRANCH   1   7
ATOM      7  C   UNL     1       4.615   5.957  17.302  0.00  0.00    +0.000 C 
ATOM      8  C   UNL     1       5.018   6.635  15.962  0.00  0.00    +0.000 C 
ATOM      9  O   UNL     1       6.401   6.731  16.348  0.00  0.00    +0.000 OA
ATOM     10  C   UNL     1       6.110   6.210  17.662  0.00  0.00    +0.000 C 
BRANCH   7  11
ATOM     11  C   UNL     1       4.218   4.483  17.079  0.00  0.00    +0.000 C 
BRANCH  11  17
ATOM     12  C   UNL     1       1.764   2.847  18.251  0.00  0.00    +0.000 C 
ATOM     13  N   UNL     1       3.107   2.901  18.765  0.00  0.00    +0.000 N 
ATOM     14  C   UNL     1       3.565   2.176  19.822  0.00  0.00    +0.000 A 
ATOM     15  N   UNL     1       4.817   2.484  20.057  0.00  0.00    +0.000 NA
ATOM     16  N   UNL     1       5.200   3.405  19.113  0.00  0.00    +0.000 NA
ATOM     17  C   UNL     1       4.175   3.642  18.315  0.00  0.00    +0.000 A 
ENDBRANCH  11  17
ENDBRANCH   7  11
ENDBRANCH   1   7
BRANCH   5  18
ATOM     18  C   UNL     1       1.404   9.908  17.891  0.00  0.00    +0.000 C 
BRANCH  18  19
ATOM     19  N   UNL     1       0.537  10.613  18.836  0.00  0.00    +0.000 N 
ATOM     20  H   UNL     1       0.943  11.489  19.157  0.00  0.00    +0.000 HD
BRANCH  19  21
ATOM     21  C   UNL     1      -0.817  10.759  18.448  0.00  0.00    +0.000 A 
ATOM     22  C   UNL     1      -1.361   9.927  17.448  0.00  0.00    +0.000 A 
ATOM     23  C   UNL     1      -2.709   9.983  17.113  0.00  0.00    +0.000 A 
ATOM     24  C   UNL     1      -3.501  10.860  17.807  0.00  0.00    +0.000 A 
ATOM     25  F   UNL     1      -4.808  10.909  17.514  0.00  0.00    +0.000 F 
ATOM     26  N   UNL     1      -3.050  11.664  18.786  0.00  0.00    +0.000 NA
ATOM     27  C   UNL     1      -1.729  11.610  19.126  0.00  0.00    +0.000 A 
BRANCH  27  28
ATOM     28  C   UNL     1      -1.379  12.495  20.313  0.00  0.00    +0.000 C 
ATOM     29  C   UNL     1      -1.303  11.803  21.669  0.00  0.00    +0.000 C 
ATOM     30  C   UNL     1      -2.305  12.887  21.436  0.00  0.00    +0.000 C 
ENDBRANCH  27  28
ENDBRANCH  19  21
ENDBRANCH  18  19
ENDBRANCH   5  18
TORSDOF 7
ENDMDL
MODEL 8
REMARK VINA RESULT:      -8.3      1.661      2.180
REMARK  Name = 
REMARK  8 active torsions:
REMARK  status: ('A' for Active; 'I' for Inactive)
REMARK    1  A    between atoms: C_1  and  N_2
REMARK    2  A    between atoms: C_6  and  C_7
REMARK    3  A    between atoms: C_7  and  C_8
REMARK    4  A    between atoms: C_8  and  C_9
REMARK    5  A    between atoms: C_13  and  C_14
REMARK    6  A    between atoms: C_14  and  N_15
REMARK    7  A    between atoms: N_15  and  C_16
REMARK    8  A    between atoms: C_22  and  C_23
REMARK                            x       y       z     vdW  Elec       q    Type
REMARK                         _______ _______ _______ _____ _____    ______ ____
ROOT
ATOM      1  C   UNL     1       5.386   5.635  18.633  0.00  0.00    +0.000 A 
ATOM      2  C   UNL     1       4.836   4.573  19.375  0.00  0.00    +0.000 A 
ATOM      3  C   UNL     1       3.466   4.490  19.647  0.00  0.00    +0.000 A 
ATOM      4  C   UNL     1       2.601   5.489  19.203  0.00  0.00    +0.000 A 
ATOM      5  C   UNL     1       3.104   6.584  18.501  0.00  0.00    +0.000 A 
ATOM      6  C   UNL     1       4.477   6.631  18.213  0.00  0.00    +0.000 A 
ENDROOT
BRANCH   1   7
ATOM      7  C   UNL     1       6.945   5.728  18.255  0.00  0.00    +0.000 C 
ATOM      8  C   UNL     1       7.416   7.063  17.612  0.00  0.00    +0.000 C 
ATOM      9  O   UNL     1       8.362   7.316  18.667  0.00  0.00    +0.000 OA
ATOM     10  C   UNL     1       7.916   6.154  19.397  0.00  0.00    +0.000 C 
BRANCH   7  11
ATOM     11  C   UNL     1       7.391   4.517  17.410  0.00  0.00    +0.000 C 
BRANCH  11  17
ATOM     12  C   UNL     1       4.704   3.458  16.094  0.00  0.00    +0.000 C 
ATOM     13  N   UNL     1       5.790   4.143  15.442  0.00  0.00    +0.000 N 
ATOM     14  C   UNL     1       5.797   4.520  14.134  0.00  0.00    +0.000 A 
ATOM     15  N   UNL     1       6.944   5.085  13.846  0.00  0.00    +0.000 NA
ATOM     16  N   UNL     1       7.693   5.111  14.998  0.00  0.00    +0.000 NA
ATOM     17  C   UNL     1       6.988   4.563  15.970  0.00  0.00    +0.000 A 
ENDBRANCH  11  17
ENDBRANCH   7  11
ENDBRANCH   1   7
BRANCH   5  18
ATOM     18  C   UNL     1       2.239   7.756  18.119  0.00  0.00    +0.000 C 
BRANCH  18  19
ATOM     19  N   UNL     1       1.960   8.647  19.245  0.00  0.00    +0.000 N 
ATOM     20  H   UNL     1       2.783   9.168  19.541  0.00  0.00    +0.000 HD
BRANCH  19  21
ATOM     21  C   UNL     1       0.818   9.474  19.117  0.00  0.00    +0.000 A 
ATOM     22  C   UNL     1       0.221   9.665  17.854  0.00  0.00    +0.000 A 
ATOM     23  C   UNL     1      -0.955  10.393  17.711  0.00  0.00    +0.000 A 
ATOM     24  C   UNL     1      -1.530  10.902  18.846  0.00  0.00    +0.000 A 
ATOM     25  F   UNL     1      -2.676  11.586  18.730  0.00  0.00    +0.000 F 
ATOM     26  N   UNL     1      -1.024  10.737  20.081  0.00  0.00    +0.000 NA
ATOM     27  C   UNL     1       0.126  10.016  20.231  0.00  0.00    +0.000 A 
BRANCH  27  28
ATOM     28  C   UNL     1       0.527   9.823  21.686  0.00  0.00    +0.000 C 
ATOM     29  C   UNL     1      -0.137   8.663  22.419  0.00  0.00    +0.000 C 
ATOM     30  C   UNL     1      -0.346  10.066  22.891  0.00  0.00    +0.000 C 
ENDBRANCH  27  28
ENDBRANCH  19  21
ENDBRANCH  18  19
ENDBRANCH   5  18
TORSDOF 7
ENDMDL
MODEL 9
REMARK VINA RESULT:      -8.3      2.871      4.677
REMARK  Name = 
REMARK  8 active torsions:
REMARK  status: ('A' for Active; 'I' for Inactive)
REMARK    1  A    between atoms: C_1  and  N_2
REMARK    2  A    between atoms: C_6  and  C_7
REMARK    3  A    between atoms: C_7  and  C_8
REMARK    4  A    between atoms: C_8  and  C_9
REMARK    5  A    between atoms: C_13  and  C_14
REMARK    6  A    between atoms: C_14  and  N_15
REMARK    7  A    between atoms: N_15  and  C_16
REMARK    8  A    between atoms: C_22  and  C_23
REMARK                            x       y       z     vdW  Elec       q    Type
REMARK                         _______ _______ _______ _____ _____    ______ ____
ROOT
ATOM      1  C   UNL     1       3.980   6.410  18.270  0.00  0.00    +0.000 A 
ATOM      2  C   UNL     1       3.456   5.911  19.477  0.00  0.00    +0.000 A 
ATOM      3  C   UNL     1       2.370   6.517  20.120  0.00  0.00    +0.000 A 
ATOM      4  C   UNL     1       1.787   7.664  19.584  0.00  0.00    +0.000 A 
ATOM      5  C   UNL     1       2.299   8.221  18.413  0.00  0.00    +0.000 A 
ATOM      6  C   UNL     1       3.369   7.580  17.767  0.00  0.00    +0.000 A 
ENDROOT
BRANCH   1   7
ATOM      7  C   UNL     1       5.187   5.705  17.479  0.00  0.00    +0.000 C 
ATOM      8  C   UNL     1       5.157   5.830  15.929  0.00  0.00    +0.000 C 
ATOM      9  O   UNL     1       6.432   6.497  15.890  0.00  0.00    +0.000 OA
ATOM     10  C   UNL     1       6.502   6.529  17.332  0.00  0.00    +0.000 C 
BRANCH   7  11
ATOM     11  C   UNL     1       5.361   4.235  17.914  0.00  0.00    +0.000 C 
BRANCH  11  17
ATOM     12  C   UNL     1       4.290   2.247  20.145  0.00  0.00    +0.000 C 
ATOM     13  N   UNL     1       3.649   2.603  18.905  0.00  0.00    +0.000 N 
ATOM     14  C   UNL     1       2.411   2.186  18.523  0.00  0.00    +0.000 A 
ATOM     15  N   UNL     1       2.139   2.655  17.330  0.00  0.00    +0.000 NA
ATOM     16  N   UNL     1       3.206   3.424  16.935  0.00  0.00    +0.000 NA
ATOM     17  C   UNL     1       4.111   3.414  17.896  0.00  0.00    +0.000 A 
ENDBRANCH  11  17
ENDBRANCH   7  11
ENDBRANCH   1   7
BRANCH   5  18
ATOM     18  C   UNL     1       1.798   9.532  17.865  0.00  0.00    +0.000 C 
BRANCH  18  19
ATOM     19  N   UNL     1       0.354   9.536  17.635  0.00  0.00    +0.000 N 
ATOM     20  H   UNL     1      -0.038   8.597  17.609  0.00  0.00    +0.000 HD
BRANCH  19  21
ATOM     21  C   UNL     1      -0.404  10.411  18.451  0.00  0.00    +0.000 A 
ATOM     22  C   UNL     1       0.237  11.202  19.426  0.00  0.00    +0.000 A 
ATOM     23  C   UNL     1      -0.465  12.139  20.175  0.00  0.00    +0.000 A 
ATOM     24  C   UNL     1      -1.804  12.285  19.918  0.00  0.00    +0.000 A 
ATOM     25  F   UNL     1      -2.492  13.201  20.614  0.00  0.00    +0.000 F 
ATOM     26  N   UNL     1      -2.470  11.579  18.987  0.00  0.00    +0.000 NA
ATOM     27  C   UNL     1      -1.785  10.663  18.241  0.00  0.00    +0.000 A 
BRANCH  27  28
ATOM     28  C   UNL     1      -2.638  10.012  17.162  0.00  0.00    +0.000 C 
ATOM     29  C   UNL     1      -2.601  10.671  15.788  0.00  0.00    +0.000 C 
ATOM     30  C   UNL     1      -3.887  10.588  16.545  0.00  0.00    +0.000 C 
ENDBRANCH  27  28
ENDBRANCH  19  21
ENDBRANCH  18  19
ENDBRANCH   5  18
TORSDOF 7
ENDMDL
