MODEL 1
REMARK VINA RESULT:      -8.8      0.000      0.000
REMARK  Name = 
REMARK  3 active torsions:
REMARK  status: ('A' for Active; 'I' for Inactive)
REMARK    1  A    between atoms: C_2  and  C_3
REMARK    2  A    between atoms: C_3  and  C_4
REMARK    3  A    between atoms: C_18  and  C_19
REMARK                            x       y       z     vdW  Elec       q    Type
REMARK                         _______ _______ _______ _____ _____    ______ ____
ROOT
ATOM      1  O   UNL     1       4.037   1.277  17.676  0.00  0.00    +0.000 OA
ATOM      2  C   UNL     1       3.592   2.375  18.030  0.00  0.00    +0.000 C 
ATOM      3  N   UNL     1       3.281   2.550  19.348  0.00  0.00    +0.000 N 
ATOM      4  C   UNL     1       2.818   3.709  19.892  0.00  0.00    +0.000 A 
ATOM      5  N   UNL     1       2.831   4.909  19.375  0.00  0.00    +0.000 NA
ATOM      6  C   UNL     1       2.111   5.771  20.182  0.00  0.00    +0.000 A 
ATOM      7  C   UNL     1       1.666   5.211  21.366  0.00  0.00    +0.000 A 
ATOM      8  S   UNL     1       2.105   3.550  21.430  0.00  0.00    +0.000 S 
ATOM      9  H   UNL     1       3.285   1.720  19.920  0.00  0.00    +0.000 HD
ENDROOT
BRANCH   6  10
ATOM     10  C   UNL     1       1.870   7.148  19.768  0.00  0.00    +0.000 A 
ATOM     11  C   UNL     1       2.228   7.600  18.488  0.00  0.00    +0.000 A 
ATOM     12  C   UNL     1       2.006   8.927  18.115  0.00  0.00    +0.000 A 
ATOM     13  C   UNL     1       1.435   9.817  19.020  0.00  0.00    +0.000 A 
ATOM     14  C   UNL     1       1.068   9.380  20.294  0.00  0.00    +0.000 A 
ATOM     15  C   UNL     1       1.300   8.057  20.673  0.00  0.00    +0.000 A 
ATOM     16  O   UNL     1       0.484  10.198  21.229  0.00  0.00    +0.000 OA
ATOM     17  C   UNL     1      -0.014  11.402  20.632  0.00  0.00    +0.000 C 
ATOM     18  C   UNL     1       1.009  11.995  19.676  0.00  0.00    +0.000 C 
ATOM     19  O   UNL     1       1.260  11.106  18.585  0.00  0.00    +0.000 OA
ENDBRANCH   6  10
BRANCH   2  20
ATOM     20  C   UNL     1       3.434   3.493  17.025  0.00  0.00    +0.000 C 
BRANCH  20  21
ATOM     21  C   UNL     1       4.709   3.983  16.358  0.00  0.00    +0.000 A 
ATOM     22  N   UNL     1       4.916   3.709  15.102  0.00  0.00    +0.000 NA
ATOM     23  N   UNL     1       6.022   4.216  14.499  0.00  0.00    +0.000 N 
ATOM     24  C   UNL     1       6.998   4.971  15.100  0.00  0.00    +0.000 A 
ATOM     25  O   UNL     1       7.963   5.408  14.485  0.00  0.00    +0.000 OA
ATOM     26  C   UNL     1       6.822   5.231  16.537  0.00  0.00    +0.000 A 
ATOM     27  C   UNL     1       7.803   5.926  17.250  0.00  0.00    +0.000 A 
ATOM     28  C   UNL     1       7.628   6.166  18.612  0.00  0.00    +0.000 A 
ATOM     29  C   UNL     1       6.472   5.721  19.252  0.00  0.00    +0.000 A 
ATOM     30  C   UNL     1       5.493   5.024  18.537  0.00  0.00    +0.000 A 
ATOM     31  C   UNL     1       5.672   4.767  17.173  0.00  0.00    +0.000 A 
ATOM     32  H   UNL     1       6.116   4.046  13.503  0.00  0.00    +0.000 HD
ENDBRANCH  20  21
ENDBRANCH   2  20
TORSDOF 3
ENDMDL
MODEL 2
REMARK VINA RESULT:      -8.7      1.293      2.164
REMARK  Name = 
REMARK  3 active torsions:
REMARK  status: ('A' for Active; 'I' for Inactive)
REMARK    1  A    between atoms: C_2  and  C_3
REMARK    2  A    between atoms: C_3  and  C_4
REMARK    3  A    between atoms: C_18  and  C_19
REMARK                            x       y       z     vdW  Elec       q    Type
REMARK                         _______ _______ _______ _____ _____    ______ ____
ROOT
ATOM      1  O   UNL     1       4.066   1.427  17.600  0.00  0.00    +0.000 OA
ATOM      2  C   UNL     1       3.619   2.529  17.938  0.00  0.00    +0.000 C 
ATOM      3  N   UNL     1       3.274   2.712  19.247  0.00  0.00    +0.000 N 
ATOM      4  C   UNL     1       2.804   3.876  19.774  0.00  0.00    +0.000 A 
ATOM      5  N   UNL     1       2.839   5.074  19.253  0.00  0.00    +0.000 NA
ATOM      6  C   UNL     1       2.104   5.943  20.037  0.00  0.00    +0.000 A 
ATOM      7  C   UNL     1       1.624   5.391  21.211  0.00  0.00    +0.000 A 
ATOM      8  S   UNL     1       2.050   3.727  21.293  0.00  0.00    +0.000 S 
ATOM      9  H   UNL     1       3.258   1.884  19.822  0.00  0.00    +0.000 HD
ENDROOT
BRANCH   6  10
ATOM     10  C   UNL     1       1.882   7.321  19.611  0.00  0.00    +0.000 A 
ATOM     11  C   UNL     1       2.239   7.754  18.325  0.00  0.00    +0.000 A 
ATOM     12  C   UNL     1       2.036   9.081  17.940  0.00  0.00    +0.000 A 
ATOM     13  C   UNL     1       1.486   9.989  18.840  0.00  0.00    +0.000 A 
ATOM     14  C   UNL     1       1.121   9.570  20.122  0.00  0.00    +0.000 A 
ATOM     15  C   UNL     1       1.334   8.247  20.511  0.00  0.00    +0.000 A 
ATOM     16  O   UNL     1       0.557  10.407  21.052  0.00  0.00    +0.000 OA
ATOM     17  C   UNL     1       0.076  11.613  20.447  0.00  0.00    +0.000 C 
ATOM     18  C   UNL     1       1.101  12.180  19.479  0.00  0.00    +0.000 C 
ATOM     19  O   UNL     1       1.330  11.276  18.394  0.00  0.00    +0.000 OA
ENDBRANCH   6  10
BRANCH   2  20
ATOM     20  C   UNL     1       3.495   3.644  16.925  0.00  0.00    +0.000 C 
BRANCH  20  21
ATOM     21  C   UNL     1       4.706   4.549  16.768  0.00  0.00    +0.000 A 
ATOM     22  N   UNL     1       5.021   5.364  17.732  0.00  0.00    +0.000 NA
ATOM     23  N   UNL     1       6.148   6.113  17.610  0.00  0.00    +0.000 N 
ATOM     24  C   UNL     1       6.991   6.137  16.527  0.00  0.00    +0.000 A 
ATOM     25  O   UNL     1       8.000   6.829  16.496  0.00  0.00    +0.000 OA
ATOM     26  C   UNL     1       6.614   5.277  15.394  0.00  0.00    +0.000 A 
ATOM     27  C   UNL     1       7.370   5.293  14.219  0.00  0.00    +0.000 A 
ATOM     28  C   UNL     1       7.003   4.477  13.150  0.00  0.00    +0.000 A 
ATOM     29  C   UNL     1       5.892   3.642  13.264  0.00  0.00    +0.000 A 
ATOM     30  C   UNL     1       5.136   3.630  14.440  0.00  0.00    +0.000 A 
ATOM     31  C   UNL     1       5.491   4.460  15.510  0.00  0.00    +0.000 A 
ATOM     32  H   UNL     1       6.405   6.683  18.409  0.00  0.00    +0.000 HD
ENDBRANCH  20  21
ENDBRANCH   2  20
TORSDOF 3
ENDMDL
MODEL 3
REMARK VINA RESULT:      -8.7      0.824      1.503
REMARK  Name = 
REMARK  3 active torsions:
REMARK  status: ('A' for Active; 'I' for Inactive)
REMARK    1  A    between atoms: C_2  and  C_3
REMARK    2  A    between atoms: C_3  and  C_4
REMARK    3  A    between atoms: C_18  and  C_19
REMARK                            x       y       z     vdW  Elec       q    Type
REMARK                         _______ _______ _______ _____ _____    ______ ____
ROOT
ATOM      1  O   UNL     1       4.204   1.137  17.403  0.00  0.00    +0.000 OA
ATOM      2  C   UNL     1       3.711   2.140  17.931  0.00  0.00    +0.000 C 
ATOM      3  N   UNL     1       3.395   2.082  19.258  0.00  0.00    +0.000 N 
ATOM      4  C   UNL     1       2.882   3.113  19.983  0.00  0.00    +0.000 A 
ATOM      5  N   UNL     1       2.840   4.381  19.672  0.00  0.00    +0.000 NA
ATOM      6  C   UNL     1       2.085   5.066  20.605  0.00  0.00    +0.000 A 
ATOM      7  C   UNL     1       1.667   4.299  21.678  0.00  0.00    +0.000 A 
ATOM      8  S   UNL     1       2.180   2.671  21.470  0.00  0.00    +0.000 S 
ATOM      9  H   UNL     1       3.437   1.170  19.685  0.00  0.00    +0.000 HD
ENDROOT
BRANCH   6  10
ATOM     10  C   UNL     1       1.782   6.480  20.423  0.00  0.00    +0.000 A 
ATOM     11  C   UNL     1       1.078   7.208  21.396  0.00  0.00    +0.000 A 
ATOM     12  C   UNL     1       0.781   8.558  21.197  0.00  0.00    +0.000 A 
ATOM     13  C   UNL     1       1.173   9.190  20.021  0.00  0.00    +0.000 A 
ATOM     14  C   UNL     1       1.879   8.480  19.047  0.00  0.00    +0.000 A 
ATOM     15  C   UNL     1       2.166   7.127  19.239  0.00  0.00    +0.000 A 
ATOM     16  O   UNL     1       2.312   9.044  17.873  0.00  0.00    +0.000 OA
ATOM     17  C   UNL     1       2.272  10.475  17.935  0.00  0.00    +0.000 C 
ATOM     18  C   UNL     1       0.962  10.954  18.539  0.00  0.00    +0.000 C 
ATOM     19  O   UNL     1       0.833  10.512  19.893  0.00  0.00    +0.000 OA
ENDBRANCH   6  10
BRANCH   2  20
ATOM     20  C   UNL     1       3.502   3.400  17.124  0.00  0.00    +0.000 C 
BRANCH  20  21
ATOM     21  C   UNL     1       4.730   3.966  16.428  0.00  0.00    +0.000 A 
ATOM     22  N   UNL     1       4.896   3.751  15.155  0.00  0.00    +0.000 NA
ATOM     23  N   UNL     1       5.958   4.324  14.531  0.00  0.00    +0.000 N 
ATOM     24  C   UNL     1       6.928   5.092  15.124  0.00  0.00    +0.000 A 
ATOM     25  O   UNL     1       7.850   5.590  14.491  0.00  0.00    +0.000 OA
ATOM     26  C   UNL     1       6.800   5.288  16.577  0.00  0.00    +0.000 A 
ATOM     27  C   UNL     1       7.783   5.992  17.280  0.00  0.00    +0.000 A 
ATOM     28  C   UNL     1       7.653   6.170  18.656  0.00  0.00    +0.000 A 
ATOM     29  C   UNL     1       6.541   5.656  19.321  0.00  0.00    +0.000 A 
ATOM     30  C   UNL     1       5.561   4.950  18.616  0.00  0.00    +0.000 A 
ATOM     31  C   UNL     1       5.695   4.754  17.237  0.00  0.00    +0.000 A 
ATOM     32  H   UNL     1       6.018   4.197  13.526  0.00  0.00    +0.000 HD
ENDBRANCH  20  21
ENDBRANCH   2  20
TORSDOF 3
ENDMDL
MODEL 4
REMARK VINA RESULT:      -8.5      6.862     10.256
REMARK  Name = 
REMARK  3 active torsions:
REMARK  status: ('A' for Active; 'I' for Inactive)
REMARK    1  A    between atoms: C_2  and  C_3
REMARK    2  A    between atoms: C_3  and  C_4
REMARK    3  A    between atoms: C_18  and  C_19
REMARK                            x       y       z     vdW  Elec       q    Type
REMARK                         _______ _______ _______ _____ _____    ______ ____
ROOT
ATOM      1  O   UNL     1       1.056   9.566  23.555  0.00  0.00    +0.000 OA
ATOM      2  C   UNL     1       0.385   9.859  22.559  0.00  0.00    +0.000 C 
ATOM      3  N   UNL     1       0.860   9.495  21.332  0.00  0.00    +0.000 N 
ATOM      4  C   UNL     1       0.219   9.715  20.151  0.00  0.00    +0.000 A 
ATOM      5  N   UNL     1      -1.031  10.044  19.957  0.00  0.00    +0.000 NA
ATOM      6  C   UNL     1      -1.233  10.336  18.621  0.00  0.00    +0.000 A 
ATOM      7  C   UNL     1      -0.137  10.102  17.810  0.00  0.00    +0.000 A 
ATOM      8  S   UNL     1       1.193   9.569  18.763  0.00  0.00    +0.000 S 
ATOM      9  H   UNL     1       1.807   9.152  21.306  0.00  0.00    +0.000 HD
ENDROOT
BRANCH   6  10
ATOM     10  C   UNL     1      -2.517  10.848  18.158  0.00  0.00    +0.000 A 
ATOM     11  C   UNL     1      -2.972  10.607  16.852  0.00  0.00    +0.000 A 
ATOM     12  C   UNL     1      -4.197  11.120  16.420  0.00  0.00    +0.000 A 
ATOM     13  C   UNL     1      -4.972  11.888  17.284  0.00  0.00    +0.000 A 
ATOM     14  C   UNL     1      -4.535  12.131  18.588  0.00  0.00    +0.000 A 
ATOM     15  C   UNL     1      -3.305  11.629  19.017  0.00  0.00    +0.000 A 
ATOM     16  O   UNL     1      -5.256  12.863  19.497  0.00  0.00    +0.000 OA
ATOM     17  C   UNL     1      -6.616  13.026  19.076  0.00  0.00    +0.000 C 
ATOM     18  C   UNL     1      -6.685  13.410  17.607  0.00  0.00    +0.000 C 
ATOM     19  O   UNL     1      -6.155  12.368  16.783  0.00  0.00    +0.000 OA
ENDBRANCH   6  10
BRANCH   2  20
ATOM     20  C   UNL     1      -0.940  10.570  22.715  0.00  0.00    +0.000 C 
BRANCH  20  21
ATOM     21  C   UNL     1      -0.902  12.088  22.642  0.00  0.00    +0.000 A 
ATOM     22  N   UNL     1       0.156  12.676  22.163  0.00  0.00    +0.000 NA
ATOM     23  N   UNL     1       0.147  14.028  22.035  0.00  0.00    +0.000 N 
ATOM     24  C   UNL     1      -0.870  14.871  22.408  0.00  0.00    +0.000 A 
ATOM     25  O   UNL     1      -0.812  16.083  22.246  0.00  0.00    +0.000 OA
ATOM     26  C   UNL     1      -2.047  14.233  23.019  0.00  0.00    +0.000 A 
ATOM     27  C   UNL     1      -3.100  15.018  23.500  0.00  0.00    +0.000 A 
ATOM     28  C   UNL     1      -4.209  14.404  24.079  0.00  0.00    +0.000 A 
ATOM     29  C   UNL     1      -4.267  13.014  24.166  0.00  0.00    +0.000 A 
ATOM     30  C   UNL     1      -3.212  12.232  23.687  0.00  0.00    +0.000 A 
ATOM     31  C   UNL     1      -2.088  12.844  23.119  0.00  0.00    +0.000 A 
ATOM     32  H   UNL     1       0.957  14.449  21.591  0.00  0.00    +0.000 HD
ENDBRANCH  20  21
ENDBRANCH   2  20
TORSDOF 3
ENDMDL
MODEL 5
REMARK VINA RESULT:      -8.5      7.437     10.323
REMARK  Name = 
REMARK  3 active torsions:
REMARK  status: ('A' for Active; 'I' for Inactive)
REMARK    1  A    between atoms: C_2  and  C_3
REMARK    2  A    between atoms: C_3  and  C_4
REMARK    3  A    between atoms: C_18  and  C_19
REMARK                            x       y       z     vdW  Elec       q    Type
REMARK                         _______ _______ _______ _____ _____    ______ ____
ROOT
ATOM      1  O   UNL     1      -0.522  15.262  24.514  0.00  0.00    +0.000 OA
ATOM      2  C   UNL     1      -1.235  14.736  23.651  0.00  0.00    +0.000 C 
ATOM      3  N   UNL     1      -2.584  14.710  23.857  0.00  0.00    +0.000 N 
ATOM      4  C   UNL     1      -3.497  14.200  22.984  0.00  0.00    +0.000 A 
ATOM      5  N   UNL     1      -3.331  13.900  21.723  0.00  0.00    +0.000 NA
ATOM      6  C   UNL     1      -4.456  13.253  21.248  0.00  0.00    +0.000 A 
ATOM      7  C   UNL     1      -5.503  13.186  22.149  0.00  0.00    +0.000 A 
ATOM      8  S   UNL     1      -5.035  13.893  23.645  0.00  0.00    +0.000 S 
ATOM      9  H   UNL     1      -2.899  14.979  24.776  0.00  0.00    +0.000 HD
ENDROOT
BRANCH   6  10
ATOM     10  C   UNL     1      -4.482  12.702  19.898  0.00  0.00    +0.000 A 
ATOM     11  C   UNL     1      -5.611  12.839  19.074  0.00  0.00    +0.000 A 
ATOM     12  C   UNL     1      -5.625  12.291  17.790  0.00  0.00    +0.000 A 
ATOM     13  C   UNL     1      -4.517  11.591  17.322  0.00  0.00    +0.000 A 
ATOM     14  C   UNL     1      -3.385  11.452  18.128  0.00  0.00    +0.000 A 
ATOM     15  C   UNL     1      -3.374  11.989  19.416  0.00  0.00    +0.000 A 
ATOM     16  O   UNL     1      -2.252  10.792  17.723  0.00  0.00    +0.000 OA
ATOM     17  C   UNL     1      -2.242  10.592  16.304  0.00  0.00    +0.000 C 
ATOM     18  C   UNL     1      -3.594  10.095  15.817  0.00  0.00    +0.000 C 
ATOM     19  O   UNL     1      -4.611  11.070  16.057  0.00  0.00    +0.000 OA
ENDBRANCH   6  10
BRANCH   2  20
ATOM     20  C   UNL     1      -0.616  14.174  22.392  0.00  0.00    +0.000 C 
BRANCH  20  21
ATOM     21  C   UNL     1      -0.517  12.658  22.309  0.00  0.00    +0.000 A 
ATOM     22  N   UNL     1      -0.871  11.941  23.336  0.00  0.00    +0.000 NA
ATOM     23  N   UNL     1      -0.848  10.587  23.222  0.00  0.00    +0.000 N 
ATOM     24  C   UNL     1      -0.436   9.873  22.126  0.00  0.00    +0.000 A 
ATOM     25  O   UNL     1      -0.459   8.650  22.092  0.00  0.00    +0.000 OA
ATOM     26  C   UNL     1       0.037  10.665  20.979  0.00  0.00    +0.000 A 
ATOM     27  C   UNL     1       0.547  10.023  19.846  0.00  0.00    +0.000 A 
ATOM     28  C   UNL     1       0.995  10.782  18.766  0.00  0.00    +0.000 A 
ATOM     29  C   UNL     1       0.923  12.173  18.817  0.00  0.00    +0.000 A 
ATOM     30  C   UNL     1       0.415  12.812  19.953  0.00  0.00    +0.000 A 
ATOM     31  C   UNL     1      -0.021  12.055  21.046  0.00  0.00    +0.000 A 
ATOM     32  H   UNL     1      -1.199  10.058  24.014  0.00  0.00    +0.000 HD
ENDBRANCH  20  21
ENDBRANCH   2  20
TORSDOF 3
ENDMDL
MODEL 6
REMARK VINA RESULT:      -8.4      1.513      2.585
REMARK  Name = 
REMARK  3 active torsions:
REMARK  status: ('A' for Active; 'I' for Inactive)
REMARK    1  A    between atoms: C_2  and  C_3
REMARK    2  A    between atoms: C_3  and  C_4
REMARK    3  A    between atoms: C_18  and  C_19
REMARK                            x       y       z     vdW  Elec       q    Type
REMARK                         _______ _______ _______ _____ _____    ______ ____
ROOT
ATOM      1  O   UNL     1       4.218   1.373  17.266  0.00  0.00    +0.000 OA
ATOM      2  C   UNL     1       3.717   2.359  17.818  0.00  0.00    +0.000 C 
ATOM      3  N   UNL     1       3.426   2.275  19.149  0.00  0.00    +0.000 N 
ATOM      4  C   UNL     1       2.908   3.286  19.900  0.00  0.00    +0.000 A 
ATOM      5  N   UNL     1       2.839   4.558  19.608  0.00  0.00    +0.000 NA
ATOM      6  C   UNL     1       2.089   5.214  20.566  0.00  0.00    +0.000 A 
ATOM      7  C   UNL     1       1.704   4.424  21.634  0.00  0.00    +0.000 A 
ATOM      8  S   UNL     1       2.241   2.809  21.391  0.00  0.00    +0.000 S 
ATOM      9  H   UNL     1       3.492   1.357  19.561  0.00  0.00    +0.000 HD
ENDROOT
BRANCH   6  10
ATOM     10  C   UNL     1       1.757   6.626  20.411  0.00  0.00    +0.000 A 
ATOM     11  C   UNL     1       1.043   7.321  21.400  0.00  0.00    +0.000 A 
ATOM     12  C   UNL     1       0.719   8.669  21.227  0.00  0.00    +0.000 A 
ATOM     13  C   UNL     1       1.096   9.330  20.062  0.00  0.00    +0.000 A 
ATOM     14  C   UNL     1       1.812   8.652  19.072  0.00  0.00    +0.000 A 
ATOM     15  C   UNL     1       2.126   7.303  19.238  0.00  0.00    +0.000 A 
ATOM     16  O   UNL     1       2.230   9.247  17.908  0.00  0.00    +0.000 OA
ATOM     17  C   UNL     1       2.163  10.675  17.998  0.00  0.00    +0.000 C 
ATOM     18  C   UNL     1       0.846  11.118  18.614  0.00  0.00    +0.000 C 
ATOM     19  O   UNL     1       0.730  10.647  19.959  0.00  0.00    +0.000 OA
ENDBRANCH   6  10
BRANCH   2  20
ATOM     20  C   UNL     1       3.471   3.628  17.034  0.00  0.00    +0.000 C 
BRANCH  20  21
ATOM     21  C   UNL     1       4.661   4.561  16.872  0.00  0.00    +0.000 A 
ATOM     22  N   UNL     1       4.950   5.395  17.828  0.00  0.00    +0.000 NA
ATOM     23  N   UNL     1       6.058   6.171  17.702  0.00  0.00    +0.000 N 
ATOM     24  C   UNL     1       6.906   6.202  16.624  0.00  0.00    +0.000 A 
ATOM     25  O   UNL     1       7.898   6.919  16.590  0.00  0.00    +0.000 OA
ATOM     26  C   UNL     1       6.558   5.319  15.500  0.00  0.00    +0.000 A 
ATOM     27  C   UNL     1       7.321   5.339  14.329  0.00  0.00    +0.000 A 
ATOM     28  C   UNL     1       6.981   4.500  13.269  0.00  0.00    +0.000 A 
ATOM     29  C   UNL     1       5.890   3.640  13.387  0.00  0.00    +0.000 A 
ATOM     30  C   UNL     1       5.127   3.623  14.559  0.00  0.00    +0.000 A 
ATOM     31  C   UNL     1       5.455   4.475  15.620  0.00  0.00    +0.000 A 
ATOM     32  H   UNL     1       6.296   6.757  18.496  0.00  0.00    +0.000 HD
ENDBRANCH  20  21
ENDBRANCH   2  20
TORSDOF 3
ENDMDL
MODEL 7
REMARK VINA RESULT:      -8.4      4.578      9.359
REMARK  Name = 
REMARK  3 active torsions:
REMARK  status: ('A' for Active; 'I' for Inactive)
REMARK    1  A    between atoms: C_2  and  C_3
REMARK    2  A    between atoms: C_3  and  C_4
REMARK    3  A    between atoms: C_18  and  C_19
REMARK                            x       y       z     vdW  Elec       q    Type
REMARK                         _______ _______ _______ _____ _____    ______ ____
ROOT
ATOM      1  O   UNL     1      -2.223  14.339  20.803  0.00  0.00    +0.000 OA
ATOM      2  C   UNL     1      -1.529  13.328  20.648  0.00  0.00    +0.000 C 
ATOM      3  N   UNL     1      -1.584  12.354  21.604  0.00  0.00    +0.000 N 
ATOM      4  C   UNL     1      -0.908  11.174  21.555  0.00  0.00    +0.000 A 
ATOM      5  N   UNL     1      -0.317  10.621  20.528  0.00  0.00    +0.000 NA
ATOM      6  C   UNL     1       0.395   9.511  20.944  0.00  0.00    +0.000 A 
ATOM      7  C   UNL     1       0.224   9.186  22.277  0.00  0.00    +0.000 A 
ATOM      8  S   UNL     1      -0.801  10.341  23.035  0.00  0.00    +0.000 S 
ATOM      9  H   UNL     1      -2.068  12.594  22.455  0.00  0.00    +0.000 HD
ENDROOT
BRANCH   6  10
ATOM     10  C   UNL     1       1.244   8.781  20.010  0.00  0.00    +0.000 A 
ATOM     11  C   UNL     1       1.498   9.269  18.718  0.00  0.00    +0.000 A 
ATOM     12  C   UNL     1       2.299   8.547  17.831  0.00  0.00    +0.000 A 
ATOM     13  C   UNL     1       2.844   7.328  18.221  0.00  0.00    +0.000 A 
ATOM     14  C   UNL     1       2.605   6.833  19.505  0.00  0.00    +0.000 A 
ATOM     15  C   UNL     1       1.795   7.547  20.389  0.00  0.00    +0.000 A 
ATOM     16  O   UNL     1       3.126   5.648  19.962  0.00  0.00    +0.000 OA
ATOM     17  C   UNL     1       4.192   5.188  19.122  0.00  0.00    +0.000 C 
ATOM     18  C   UNL     1       3.815   5.305  17.655  0.00  0.00    +0.000 C 
ATOM     19  O   UNL     1       3.608   6.673  17.290  0.00  0.00    +0.000 OA
ENDBRANCH   6  10
BRANCH   2  20
ATOM     20  C   UNL     1      -0.673  13.174  19.412  0.00  0.00    +0.000 C 
BRANCH  20  21
ATOM     21  C   UNL     1       0.681  13.866  19.440  0.00  0.00    +0.000 A 
ATOM     22  N   UNL     1       1.712  13.229  19.914  0.00  0.00    +0.000 NA
ATOM     23  N   UNL     1       2.928  13.831  19.864  0.00  0.00    +0.000 N 
ATOM     24  C   UNL     1       3.188  15.094  19.396  0.00  0.00    +0.000 A 
ATOM     25  O   UNL     1       4.318  15.565  19.368  0.00  0.00    +0.000 OA
ATOM     26  C   UNL     1       2.025  15.860  18.922  0.00  0.00    +0.000 A 
ATOM     27  C   UNL     1       2.182  17.183  18.497  0.00  0.00    +0.000 A 
ATOM     28  C   UNL     1       1.073  17.902  18.052  0.00  0.00    +0.000 A 
ATOM     29  C   UNL     1      -0.182  17.295  18.023  0.00  0.00    +0.000 A 
ATOM     30  C   UNL     1      -0.336  15.972  18.451  0.00  0.00    +0.000 A 
ATOM     31  C   UNL     1       0.772  15.252  18.913  0.00  0.00    +0.000 A 
ATOM     32  H   UNL     1       3.722  13.279  20.174  0.00  0.00    +0.000 HD
ENDBRANCH  20  21
ENDBRANCH   2  20
TORSDOF 3
ENDMDL
MODEL 8
REMARK VINA RESULT:      -8.3      6.365      9.506
REMARK  Name = 
REMARK  3 active torsions:
REMARK  status: ('A' for Active; 'I' for Inactive)
REMARK    1  A    between atoms: C_2  and  C_3
REMARK    2  A    between atoms: C_3  and  C_4
REMARK    3  A    between atoms: C_18  and  C_19
REMARK                            x       y       z     vdW  Elec       q    Type
REMARK                         _______ _______ _______ _____ _____    ______ ____
ROOT
ATOM      1  O   UNL     1       2.089   9.550  17.497  0.00  0.00    +0.000 OA
ATOM      2  C   UNL     1       1.725  10.649  17.929  0.00  0.00    +0.000 C 
ATOM      3  N   UNL     1       2.560  11.716  17.764  0.00  0.00    +0.000 N 
ATOM      4  C   UNL     1       2.283  12.992  18.153  0.00  0.00    +0.000 A 
ATOM      5  N   UNL     1       1.129  13.503  18.491  0.00  0.00    +0.000 NA
ATOM      6  C   UNL     1       1.313  14.782  18.981  0.00  0.00    +0.000 A 
ATOM      7  C   UNL     1       2.611  15.251  18.888  0.00  0.00    +0.000 A 
ATOM      8  S   UNL     1       3.630  14.030  18.233  0.00  0.00    +0.000 S 
ATOM      9  H   UNL     1       3.491  11.506  17.440  0.00  0.00    +0.000 HD
ENDROOT
BRANCH   6  10
ATOM     10  C   UNL     1       0.194  15.531  19.541  0.00  0.00    +0.000 A 
ATOM     11  C   UNL     1      -0.536  16.445  18.763  0.00  0.00    +0.000 A 
ATOM     12  C   UNL     1      -1.593  17.166  19.321  0.00  0.00    +0.000 A 
ATOM     13  C   UNL     1      -1.923  16.991  20.662  0.00  0.00    +0.000 A 
ATOM     14  C   UNL     1      -1.210  16.082  21.445  0.00  0.00    +0.000 A 
ATOM     15  C   UNL     1      -0.145  15.369  20.893  0.00  0.00    +0.000 A 
ATOM     16  O   UNL     1      -1.493  15.846  22.767  0.00  0.00    +0.000 OA
ATOM     17  C   UNL     1      -2.784  16.355  23.124  0.00  0.00    +0.000 C 
ATOM     18  C   UNL     1      -2.987  17.755  22.569  0.00  0.00    +0.000 C 
ATOM     19  O   UNL     1      -2.964  17.745  21.140  0.00  0.00    +0.000 OA
ENDBRANCH   6  10
BRANCH   2  20
ATOM     20  C   UNL     1       0.374  10.799  18.590  0.00  0.00    +0.000 C 
BRANCH  20  21
ATOM     21  C   UNL     1       0.302  10.437  20.066  0.00  0.00    +0.000 A 
ATOM     22  N   UNL     1       1.108   9.531  20.538  0.00  0.00    +0.000 NA
ATOM     23  N   UNL     1       1.084   9.271  21.871  0.00  0.00    +0.000 N 
ATOM     24  C   UNL     1       0.247   9.845  22.794  0.00  0.00    +0.000 A 
ATOM     25  O   UNL     1       0.295   9.570  23.986  0.00  0.00    +0.000 OA
ATOM     26  C   UNL     1      -0.723  10.820  22.269  0.00  0.00    +0.000 A 
ATOM     27  C   UNL     1      -1.667  11.399  23.122  0.00  0.00    +0.000 A 
ATOM     28  C   UNL     1      -2.583  12.319  22.615  0.00  0.00    +0.000 A 
ATOM     29  C   UNL     1      -2.545  12.664  21.265  0.00  0.00    +0.000 A 
ATOM     30  C   UNL     1      -1.601  12.081  20.413  0.00  0.00    +0.000 A 
ATOM     31  C   UNL     1      -0.690  11.144  20.915  0.00  0.00    +0.000 A 
ATOM     32  H   UNL     1       1.775   8.613  22.219  0.00  0.00    +0.000 HD
ENDBRANCH  20  21
ENDBRANCH   2  20
TORSDOF 3
ENDMDL
MODEL 9
REMARK VINA RESULT:      -8.2      2.045      7.611
REMARK  Name = 
REMARK  3 active torsions:
REMARK  status: ('A' for Active; 'I' for Inactive)
REMARK    1  A    between atoms: C_2  and  C_3
REMARK    2  A    between atoms: C_3  and  C_4
REMARK    3  A    between atoms: C_18  and  C_19
REMARK                            x       y       z     vdW  Elec       q    Type
REMARK                         _______ _______ _______ _____ _____    ______ ____
ROOT
ATOM      1  O   UNL     1       0.678   5.975  21.057  0.00  0.00    +0.000 OA
ATOM      2  C   UNL     1       1.545   5.641  20.242  0.00  0.00    +0.000 C 
ATOM      3  N   UNL     1       1.576   4.340  19.829  0.00  0.00    +0.000 N 
ATOM      4  C   UNL     1       2.446   3.833  18.912  0.00  0.00    +0.000 A 
ATOM      5  N   UNL     1       3.205   4.483  18.071  0.00  0.00    +0.000 NA
ATOM      6  C   UNL     1       4.059   3.600  17.436  0.00  0.00    +0.000 A 
ATOM      7  C   UNL     1       3.834   2.269  17.738  0.00  0.00    +0.000 A 
ATOM      8  S   UNL     1       2.568   2.136  18.894  0.00  0.00    +0.000 S 
ATOM      9  H   UNL     1       0.989   3.698  20.338  0.00  0.00    +0.000 HD
ENDROOT
BRANCH   6  10
ATOM     10  C   UNL     1       5.095   4.087  16.533  0.00  0.00    +0.000 A 
ATOM     11  C   UNL     1       6.108   4.950  16.982  0.00  0.00    +0.000 A 
ATOM     12  C   UNL     1       7.083   5.420  16.099  0.00  0.00    +0.000 A 
ATOM     13  C   UNL     1       7.048   5.043  14.760  0.00  0.00    +0.000 A 
ATOM     14  C   UNL     1       6.049   4.181  14.301  0.00  0.00    +0.000 A 
ATOM     15  C   UNL     1       5.068   3.719  15.180  0.00  0.00    +0.000 A 
ATOM     16  O   UNL     1       5.966   3.754  13.000  0.00  0.00    +0.000 OA
ATOM     17  C   UNL     1       7.186   4.000  12.290  0.00  0.00    +0.000 C 
ATOM     18  C   UNL     1       7.702   5.402  12.569  0.00  0.00    +0.000 C 
ATOM     19  O   UNL     1       8.030   5.557  13.953  0.00  0.00    +0.000 OA
ENDBRANCH   6  10
BRANCH   2  20
ATOM     20  C   UNL     1       2.515   6.665  19.700  0.00  0.00    +0.000 C 
BRANCH  20  21
ATOM     21  C   UNL     1       1.920   8.001  19.281  0.00  0.00    +0.000 A 
ATOM     22  N   UNL     1       1.991   8.366  18.034  0.00  0.00    +0.000 NA
ATOM     23  N   UNL     1       1.391   9.526  17.660  0.00  0.00    +0.000 N 
ATOM     24  C   UNL     1       0.738  10.403  18.488  0.00  0.00    +0.000 A 
ATOM     25  O   UNL     1       0.206  11.426  18.075  0.00  0.00    +0.000 OA
ATOM     26  C   UNL     1       0.709  10.046  19.916  0.00  0.00    +0.000 A 
ATOM     27  C   UNL     1       0.133  10.917  20.846  0.00  0.00    +0.000 A 
ATOM     28  C   UNL     1       0.113  10.571  22.196  0.00  0.00    +0.000 A 
ATOM     29  C   UNL     1       0.658   9.356  22.609  0.00  0.00    +0.000 A 
ATOM     30  C   UNL     1       1.236   8.488  21.677  0.00  0.00    +0.000 A 
ATOM     31  C   UNL     1       1.272   8.839  20.322  0.00  0.00    +0.000 A 
ATOM     32  H   UNL     1       1.401   9.745  16.669  0.00  0.00    +0.000 HD
ENDBRANCH  20  21
ENDBRANCH   2  20
TORSDOF 3
ENDMDL
