MODEL 1
REMARK VINA RESULT:      -9.4      0.000      0.000
REMARK  Name = 
REMARK  5 active torsions:
REMARK  status: ('A' for Active; 'I' for Inactive)
REMARK    1  A    between atoms: C_6  and  N_7
REMARK    2  A    between atoms: C_8  and  C_10
REMARK    3  A    between atoms: C_15  and  O_16
REMARK    4  A    between atoms: O_16  and  C_17
REMARK    5  A    between atoms: C_17  and  C_18
REMARK                            x       y       z     vdW  Elec       q    Type
REMARK                         _______ _______ _______ _____ _____    ______ ____
ROOT
ATOM      1  N   UNL     1       2.986   7.403  17.932  0.00  0.00    +0.000 N 
ATOM      2  C   UNL     1       3.727   6.338  18.446  0.00  0.00    +0.000 C 
ATOM      3  O   UNL     1       3.575   5.883  19.573  0.00  0.00    +0.000 OA
ATOM      4  H   UNL     1       2.983   7.575  16.939  0.00  0.00    +0.000 HD
ENDROOT
BRANCH   1  10
ATOM      5  O   UNL     1      -0.955  10.392  23.184  0.00  0.00    +0.000 OA
ATOM      6  C   UNL     1      -0.358   9.983  22.203  0.00  0.00    +0.000 C 
ATOM      7  C   UNL     1       0.695   8.875  22.169  0.00  0.00    +0.000 C 
ATOM      8  C   UNL     1       1.030   8.807  20.711  0.00  0.00    +0.000 A 
ATOM      9  C   UNL     1       1.893   7.960  20.041  0.00  0.00    +0.000 A 
ATOM     10  C   UNL     1       2.067   8.166  18.670  0.00  0.00    +0.000 A 
ATOM     11  C   UNL     1       1.386   9.205  18.000  0.00  0.00    +0.000 A 
ATOM     12  C   UNL     1       0.463  10.008  18.676  0.00  0.00    +0.000 A 
ATOM     13  C   UNL     1       0.318   9.790  20.026  0.00  0.00    +0.000 A 
ATOM     14  N   UNL     1      -0.508  10.463  20.905  0.00  0.00    +0.000 N 
ATOM     15  H   UNL     1      -1.154  11.204  20.670  0.00  0.00    +0.000 HD
ENDBRANCH   1  10
BRANCH   2  16
ATOM     16  C   UNL     1       4.727   5.748  17.491  0.00  0.00    +0.000 A 
ATOM     17  C   UNL     1       5.958   6.410  17.286  0.00  0.00    +0.000 A 
ATOM     18  C   UNL     1       6.992   5.809  16.570  0.00  0.00    +0.000 A 
ATOM     19  C   UNL     1       6.807   4.544  16.046  0.00  0.00    +0.000 A 
ATOM     20  C   UNL     1       5.573   3.909  16.169  0.00  0.00    +0.000 A 
ATOM     21  C   UNL     1       4.498   4.523  16.834  0.00  0.00    +0.000 A 
BRANCH  21  22
ATOM     22  O   UNL     1       3.241   3.953  16.860  0.00  0.00    +0.000 OA
BRANCH  22  23
ATOM     23  C   UNL     1       3.170   2.693  17.548  0.00  0.00    +0.000 C 
BRANCH  23  24
ATOM     24  C   UNL     1       2.575   2.753  18.937  0.00  0.00    +0.000 A 
ATOM     25  C   UNL     1       3.327   2.477  20.085  0.00  0.00    +0.000 A 
ATOM     26  C   UNL     1       2.775   2.678  21.354  0.00  0.00    +0.000 A 
ATOM     27  C   UNL     1       1.472   3.159  21.490  0.00  0.00    +0.000 A 
ATOM     28  C   UNL     1       0.714   3.437  20.356  0.00  0.00    +0.000 A 
ATOM     29  C   UNL     1       1.263   3.240  19.090  0.00  0.00    +0.000 A 
ENDBRANCH  23  24
ENDBRANCH  22  23
ENDBRANCH  21  22
ENDBRANCH   2  16
TORSDOF 5
ENDMDL
MODEL 2
REMARK VINA RESULT:      -9.3      1.007      1.518
REMARK  Name = 
REMARK  5 active torsions:
REMARK  status: ('A' for Active; 'I' for Inactive)
REMARK    1  A    between atoms: C_6  and  N_7
REMARK    2  A    between atoms: C_8  and  C_10
REMARK    3  A    between atoms: C_15  and  O_16
REMARK    4  A    between atoms: O_16  and  C_17
REMARK    5  A    between atoms: C_17  and  C_18
REMARK                            x       y       z     vdW  Elec       q    Type
REMARK                         _______ _______ _______ _____ _____    ______ ____
ROOT
ATOM      1  N   UNL     1       3.498   7.241  18.055  0.00  0.00    +0.000 N 
ATOM      2  C   UNL     1       3.353   5.933  17.592  0.00  0.00    +0.000 C 
ATOM      3  O   UNL     1       2.285   5.336  17.563  0.00  0.00    +0.000 OA
ATOM      4  H   UNL     1       4.335   7.758  17.836  0.00  0.00    +0.000 HD
ENDROOT
BRANCH   1  10
ATOM      5  O   UNL     1      -1.083  10.274  22.731  0.00  0.00    +0.000 OA
ATOM      6  C   UNL     1      -0.372   9.850  21.836  0.00  0.00    +0.000 C 
ATOM      7  C   UNL     1       0.724   8.792  21.962  0.00  0.00    +0.000 C 
ATOM      8  C   UNL     1       1.210   8.675  20.551  0.00  0.00    +0.000 A 
ATOM      9  C   UNL     1       2.171   7.840  20.013  0.00  0.00    +0.000 A 
ATOM     10  C   UNL     1       2.478   7.993  18.658  0.00  0.00    +0.000 A 
ATOM     11  C   UNL     1       1.826   8.969  17.873  0.00  0.00    +0.000 A 
ATOM     12  C   UNL     1       0.806   9.757  18.412  0.00  0.00    +0.000 A 
ATOM     13  C   UNL     1       0.532   9.592  19.750  0.00  0.00    +0.000 A 
ATOM     14  N   UNL     1      -0.408  10.265  20.507  0.00  0.00    +0.000 N 
ATOM     15  H   UNL     1      -1.056  10.963  20.173  0.00  0.00    +0.000 HD
ENDBRANCH   1  10
BRANCH   2  16
ATOM     16  C   UNL     1       4.619   5.300  17.086  0.00  0.00    +0.000 A 
ATOM     17  C   UNL     1       4.866   5.266  15.696  0.00  0.00    +0.000 A 
ATOM     18  C   UNL     1       6.103   4.873  15.190  0.00  0.00    +0.000 A 
ATOM     19  C   UNL     1       7.107   4.503  16.066  0.00  0.00    +0.000 A 
ATOM     20  C   UNL     1       6.857   4.453  17.435  0.00  0.00    +0.000 A 
ATOM     21  C   UNL     1       5.597   4.787  17.961  0.00  0.00    +0.000 A 
BRANCH  21  22
ATOM     22  O   UNL     1       5.306   4.628  19.301  0.00  0.00    +0.000 OA
BRANCH  22  23
ATOM     23  C   UNL     1       4.872   3.307  19.667  0.00  0.00    +0.000 C 
BRANCH  23  24
ATOM     24  C   UNL     1       3.375   3.140  19.808  0.00  0.00    +0.000 A 
ATOM     25  C   UNL     1       2.612   3.937  20.669  0.00  0.00    +0.000 A 
ATOM     26  C   UNL     1       1.218   3.842  20.667  0.00  0.00    +0.000 A 
ATOM     27  C   UNL     1       0.571   2.956  19.803  0.00  0.00    +0.000 A 
ATOM     28  C   UNL     1       1.318   2.159  18.941  0.00  0.00    +0.000 A 
ATOM     29  C   UNL     1       2.710   2.254  18.940  0.00  0.00    +0.000 A 
ENDBRANCH  23  24
ENDBRANCH  22  23
ENDBRANCH  21  22
ENDBRANCH   2  16
TORSDOF 5
ENDMDL
MODEL 3
REMARK VINA RESULT:      -9.3      1.212      1.292
REMARK  Name = 
REMARK  5 active torsions:
REMARK  status: ('A' for Active; 'I' for Inactive)
REMARK    1  A    between atoms: C_6  and  N_7
REMARK    2  A    between atoms: C_8  and  C_10
REMARK    3  A    between atoms: C_15  and  O_16
REMARK    4  A    between atoms: O_16  and  C_17
REMARK    5  A    between atoms: C_17  and  C_18
REMARK                            x       y       z     vdW  Elec       q    Type
REMARK                         _______ _______ _______ _____ _____    ______ ____
ROOT
ATOM      1  N   UNL     1       3.166   6.565  17.624  0.00  0.00    +0.000 N 
ATOM      2  C   UNL     1       4.507   6.704  17.264  0.00  0.00    +0.000 C 
ATOM      3  O   UNL     1       5.232   7.602  17.671  0.00  0.00    +0.000 OA
ATOM      4  H   UNL     1       2.692   5.691  17.456  0.00  0.00    +0.000 HD
ENDROOT
BRANCH   1  10
ATOM      5  O   UNL     1       0.062  10.240  23.001  0.00  0.00    +0.000 OA
ATOM      6  C   UNL     1       0.537   9.729  22.001  0.00  0.00    +0.000 C 
ATOM      7  C   UNL     1       1.334   8.426  21.930  0.00  0.00    +0.000 C 
ATOM      8  C   UNL     1       1.613   8.309  20.464  0.00  0.00    +0.000 A 
ATOM      9  C   UNL     1       2.263   7.309  19.764  0.00  0.00    +0.000 A 
ATOM     10  C   UNL     1       2.445   7.493  18.392  0.00  0.00    +0.000 A 
ATOM     11  C   UNL     1       1.980   8.661  17.748  0.00  0.00    +0.000 A 
ATOM     12  C   UNL     1       1.262   9.629  18.454  0.00  0.00    +0.000 A 
ATOM     13  C   UNL     1       1.106   9.428  19.806  0.00  0.00    +0.000 A 
ATOM     14  N   UNL     1       0.460  10.247  20.711  0.00  0.00    +0.000 N 
ATOM     15  H   UNL     1      -0.022  11.109  20.499  0.00  0.00    +0.000 HD
ENDBRANCH   1  10
BRANCH   2  16
ATOM     16  C   UNL     1       5.026   5.633  16.345  0.00  0.00    +0.000 A 
ATOM     17  C   UNL     1       5.285   5.950  14.993  0.00  0.00    +0.000 A 
ATOM     18  C   UNL     1       5.948   5.056  14.154  0.00  0.00    +0.000 A 
ATOM     19  C   UNL     1       6.355   3.833  14.654  0.00  0.00    +0.000 A 
ATOM     20  C   UNL     1       6.038   3.471  15.961  0.00  0.00    +0.000 A 
ATOM     21  C   UNL     1       5.316   4.333  16.804  0.00  0.00    +0.000 A 
BRANCH  21  22
ATOM     22  O   UNL     1       4.897   3.937  18.058  0.00  0.00    +0.000 OA
BRANCH  22  23
ATOM     23  C   UNL     1       3.875   2.926  18.055  0.00  0.00    +0.000 C 
BRANCH  23  24
ATOM     24  C   UNL     1       2.934   2.963  19.239  0.00  0.00    +0.000 A 
ATOM     25  C   UNL     1       3.305   2.492  20.504  0.00  0.00    +0.000 A 
ATOM     26  C   UNL     1       2.455   2.670  21.599  0.00  0.00    +0.000 A 
ATOM     27  C   UNL     1       1.231   3.323  21.446  0.00  0.00    +0.000 A 
ATOM     28  C   UNL     1       0.850   3.797  20.194  0.00  0.00    +0.000 A 
ATOM     29  C   UNL     1       1.698   3.622  19.100  0.00  0.00    +0.000 A 
ENDBRANCH  23  24
ENDBRANCH  22  23
ENDBRANCH  21  22
ENDBRANCH   2  16
TORSDOF 5
ENDMDL
MODEL 4
REMARK VINA RESULT:      -9.2      1.383      1.923
REMARK  Name = 
REMARK  5 active torsions:
REMARK  status: ('A' for Active; 'I' for Inactive)
REMARK    1  A    between atoms: C_6  and  N_7
REMARK    2  A    between atoms: C_8  and  C_10
REMARK    3  A    between atoms: C_15  and  O_16
REMARK    4  A    between atoms: O_16  and  C_17
REMARK    5  A    between atoms: C_17  and  C_18
REMARK                            x       y       z     vdW  Elec       q    Type
REMARK                         _______ _______ _______ _____ _____    ______ ____
ROOT
ATOM      1  N   UNL     1       3.249   6.395  17.716  0.00  0.00    +0.000 N 
ATOM      2  C   UNL     1       4.571   6.574  17.306  0.00  0.00    +0.000 C 
ATOM      3  O   UNL     1       5.296   7.471  17.718  0.00  0.00    +0.000 OA
ATOM      4  H   UNL     1       2.786   5.518  17.534  0.00  0.00    +0.000 HD
ENDROOT
BRANCH   1  10
ATOM      5  O   UNL     1      -0.676  11.845  20.349  0.00  0.00    +0.000 OA
ATOM      6  C   UNL     1      -0.016  10.866  20.044  0.00  0.00    +0.000 C 
ATOM      7  C   UNL     1       0.539  10.533  18.659  0.00  0.00    +0.000 C 
ATOM      8  C   UNL     1       1.271   9.253  18.915  0.00  0.00    +0.000 A 
ATOM      9  C   UNL     1       2.023   8.476  18.053  0.00  0.00    +0.000 A 
ATOM     10  C   UNL     1       2.544   7.278  18.548  0.00  0.00    +0.000 A 
ATOM     11  C   UNL     1       2.307   6.880  19.881  0.00  0.00    +0.000 A 
ATOM     12  C   UNL     1       1.605   7.708  20.761  0.00  0.00    +0.000 A 
ATOM     13  C   UNL     1       1.095   8.876  20.245  0.00  0.00    +0.000 A 
ATOM     14  N   UNL     1       0.355   9.838  20.906  0.00  0.00    +0.000 N 
ATOM     15  H   UNL     1       0.105   9.831  21.884  0.00  0.00    +0.000 HD
ENDBRANCH   1  10
BRANCH   2  16
ATOM     16  C   UNL     1       5.071   5.550  16.326  0.00  0.00    +0.000 A 
ATOM     17  C   UNL     1       5.332   5.940  14.993  0.00  0.00    +0.000 A 
ATOM     18  C   UNL     1       5.979   5.085  14.103  0.00  0.00    +0.000 A 
ATOM     19  C   UNL     1       6.367   3.829  14.530  0.00  0.00    +0.000 A 
ATOM     20  C   UNL     1       6.047   3.397  15.815  0.00  0.00    +0.000 A 
ATOM     21  C   UNL     1       5.342   4.221  16.708  0.00  0.00    +0.000 A 
BRANCH  21  22
ATOM     22  O   UNL     1       4.919   3.760  17.939  0.00  0.00    +0.000 OA
BRANCH  22  23
ATOM     23  C   UNL     1       3.807   2.850  17.887  0.00  0.00    +0.000 C 
BRANCH  23  24
ATOM     24  C   UNL     1       2.900   2.878  19.097  0.00  0.00    +0.000 A 
ATOM     25  C   UNL     1       3.364   2.592  20.386  0.00  0.00    +0.000 A 
ATOM     26  C   UNL     1       2.526   2.763  21.492  0.00  0.00    +0.000 A 
ATOM     27  C   UNL     1       1.219   3.223  21.323  0.00  0.00    +0.000 A 
ATOM     28  C   UNL     1       0.744   3.511  20.046  0.00  0.00    +0.000 A 
ATOM     29  C   UNL     1       1.581   3.344  18.943  0.00  0.00    +0.000 A 
ENDBRANCH  23  24
ENDBRANCH  22  23
ENDBRANCH  21  22
ENDBRANCH   2  16
TORSDOF 5
ENDMDL
MODEL 5
REMARK VINA RESULT:      -9.2      0.948      1.747
REMARK  Name = 
REMARK  5 active torsions:
REMARK  status: ('A' for Active; 'I' for Inactive)
REMARK    1  A    between atoms: C_6  and  N_7
REMARK    2  A    between atoms: C_8  and  C_10
REMARK    3  A    between atoms: C_15  and  O_16
REMARK    4  A    between atoms: O_16  and  C_17
REMARK    5  A    between atoms: C_17  and  C_18
REMARK                            x       y       z     vdW  Elec       q    Type
REMARK                         _______ _______ _______ _____ _____    ______ ____
ROOT
ATOM      1  N   UNL     1       3.246   6.814  17.852  0.00  0.00    +0.000 N 
ATOM      2  C   UNL     1       4.347   6.042  18.226  0.00  0.00    +0.000 C 
ATOM      3  O   UNL     1       4.676   5.842  19.388  0.00  0.00    +0.000 OA
ATOM      4  H   UNL     1       2.886   6.747  16.913  0.00  0.00    +0.000 HD
ENDROOT
BRANCH   1  10
ATOM      5  O   UNL     1      -1.075  11.731  20.886  0.00  0.00    +0.000 OA
ATOM      6  C   UNL     1      -0.353  10.825  20.504  0.00  0.00    +0.000 C 
ATOM      7  C   UNL     1       0.296  10.691  19.126  0.00  0.00    +0.000 C 
ATOM      8  C   UNL     1       1.071   9.418  19.268  0.00  0.00    +0.000 A 
ATOM      9  C   UNL     1       1.907   8.787  18.366  0.00  0.00    +0.000 A 
ATOM     10  C   UNL     1       2.453   7.557  18.741  0.00  0.00    +0.000 A 
ATOM     11  C   UNL     1       2.157   6.984  19.997  0.00  0.00    +0.000 A 
ATOM     12  C   UNL     1       1.368   7.666  20.926  0.00  0.00    +0.000 A 
ATOM     13  C   UNL     1       0.835   8.870  20.527  0.00  0.00    +0.000 A 
ATOM     14  N   UNL     1       0.014   9.711  21.254  0.00  0.00    +0.000 N 
ATOM     15  H   UNL     1      -0.292   9.571  22.206  0.00  0.00    +0.000 HD
ENDBRANCH   1  10
BRANCH   2  16
ATOM     16  C   UNL     1       5.103   5.428  17.081  0.00  0.00    +0.000 A 
ATOM     17  C   UNL     1       6.294   6.041  16.633  0.00  0.00    +0.000 A 
ATOM     18  C   UNL     1       7.132   5.411  15.714  0.00  0.00    +0.000 A 
ATOM     19  C   UNL     1       6.787   4.164  15.228  0.00  0.00    +0.000 A 
ATOM     20  C   UNL     1       5.578   3.579  15.597  0.00  0.00    +0.000 A 
ATOM     21  C   UNL     1       4.691   4.225  16.473  0.00  0.00    +0.000 A 
BRANCH  21  22
ATOM     22  O   UNL     1       3.442   3.708  16.752  0.00  0.00    +0.000 OA
BRANCH  22  23
ATOM     23  C   UNL     1       3.439   2.630  17.703  0.00  0.00    +0.000 C 
BRANCH  23  24
ATOM     24  C   UNL     1       2.730   2.926  19.006  0.00  0.00    +0.000 A 
ATOM     25  C   UNL     1       1.417   3.409  19.050  0.00  0.00    +0.000 A 
ATOM     26  C   UNL     1       0.754   3.538  20.273  0.00  0.00    +0.000 A 
ATOM     27  C   UNL     1       1.391   3.183  21.463  0.00  0.00    +0.000 A 
ATOM     28  C   UNL     1       2.697   2.700  21.434  0.00  0.00    +0.000 A 
ATOM     29  C   UNL     1       3.359   2.568  20.213  0.00  0.00    +0.000 A 
ENDBRANCH  23  24
ENDBRANCH  22  23
ENDBRANCH  21  22
ENDBRANCH   2  16
TORSDOF 5
ENDMDL
MODEL 6
REMARK VINA RESULT:      -8.7      1.408      2.212
REMARK  Name = 
REMARK  5 active torsions:
REMARK  status: ('A' for Active; 'I' for Inactive)
REMARK    1  A    between atoms: C_6  and  N_7
REMARK    2  A    between atoms: C_8  and  C_10
REMARK    3  A    between atoms: C_15  and  O_16
REMARK    4  A    between atoms: O_16  and  C_17
REMARK    5  A    between atoms: C_17  and  C_18
REMARK                            x       y       z     vdW  Elec       q    Type
REMARK                         _______ _______ _______ _____ _____    ______ ____
ROOT
ATOM      1  N   UNL     1       3.565   7.340  18.060  0.00  0.00    +0.000 N 
ATOM      2  C   UNL     1       3.449   6.037  17.571  0.00  0.00    +0.000 C 
ATOM      3  O   UNL     1       2.393   5.420  17.522  0.00  0.00    +0.000 OA
ATOM      4  H   UNL     1       4.394   7.876  17.857  0.00  0.00    +0.000 HD
ENDROOT
BRANCH   1  10
ATOM      5  O   UNL     1      -2.090  11.617  19.392  0.00  0.00    +0.000 OA
ATOM      6  C   UNL     1      -1.141  10.855  19.312  0.00  0.00    +0.000 C 
ATOM      7  C   UNL     1      -0.321  10.543  18.061  0.00  0.00    +0.000 C 
ATOM      8  C   UNL     1       0.702   9.585  18.587  0.00  0.00    +0.000 A 
ATOM      9  C   UNL     1       1.760   8.976  17.939  0.00  0.00    +0.000 A 
ATOM     10  C   UNL     1       2.525   8.060  18.667  0.00  0.00    +0.000 A 
ATOM     11  C   UNL     1       2.221   7.771  20.014  0.00  0.00    +0.000 A 
ATOM     12  C   UNL     1       1.193   8.446  20.677  0.00  0.00    +0.000 A 
ATOM     13  C   UNL     1       0.450   9.334  19.935  0.00  0.00    +0.000 A 
ATOM     14  N   UNL     1      -0.621  10.098  20.358  0.00  0.00    +0.000 N 
ATOM     15  H   UNL     1      -0.997  10.133  21.295  0.00  0.00    +0.000 HD
ENDBRANCH   1  10
BRANCH   2  16
ATOM     16  C   UNL     1       4.732   5.438  17.066  0.00  0.00    +0.000 A 
ATOM     17  C   UNL     1       5.027   5.503  15.686  0.00  0.00    +0.000 A 
ATOM     18  C   UNL     1       6.281   5.143  15.197  0.00  0.00    +0.000 A 
ATOM     19  C   UNL     1       7.253   4.708  16.078  0.00  0.00    +0.000 A 
ATOM     20  C   UNL     1       6.955   4.561  17.432  0.00  0.00    +0.000 A 
ATOM     21  C   UNL     1       5.678   4.860  17.935  0.00  0.00    +0.000 A 
BRANCH  21  22
ATOM     22  O   UNL     1       5.341   4.607  19.249  0.00  0.00    +0.000 OA
BRANCH  22  23
ATOM     23  C   UNL     1       4.827   3.286  19.491  0.00  0.00    +0.000 C 
BRANCH  23  24
ATOM     24  C   UNL     1       3.318   3.185  19.548  0.00  0.00    +0.000 A 
ATOM     25  C   UNL     1       2.599   2.289  18.749  0.00  0.00    +0.000 A 
ATOM     26  C   UNL     1       1.222   2.131  18.931  0.00  0.00    +0.000 A 
ATOM     27  C   UNL     1       0.551   2.861  19.913  0.00  0.00    +0.000 A 
ATOM     28  C   UNL     1       1.255   3.756  20.715  0.00  0.00    +0.000 A 
ATOM     29  C   UNL     1       2.629   3.912  20.536  0.00  0.00    +0.000 A 
ENDBRANCH  23  24
ENDBRANCH  22  23
ENDBRANCH  21  22
ENDBRANCH   2  16
TORSDOF 5
ENDMDL
MODEL 7
REMARK VINA RESULT:      -8.6      2.149      6.864
REMARK  Name = 
REMARK  5 active torsions:
REMARK  status: ('A' for Active; 'I' for Inactive)
REMARK    1  A    between atoms: C_6  and  N_7
REMARK    2  A    between atoms: C_8  and  C_10
REMARK    3  A    between atoms: C_15  and  O_16
REMARK    4  A    between atoms: O_16  and  C_17
REMARK    5  A    between atoms: C_17  and  C_18
REMARK                            x       y       z     vdW  Elec       q    Type
REMARK                         _______ _______ _______ _____ _____    ______ ____
ROOT
ATOM      1  N   UNL     1       3.648   6.865  18.559  0.00  0.00    +0.000 N 
ATOM      2  C   UNL     1       2.709   7.856  18.271  0.00  0.00    +0.000 C 
ATOM      3  O   UNL     1       2.563   8.354  17.162  0.00  0.00    +0.000 OA
ATOM      4  H   UNL     1       3.564   6.331  19.409  0.00  0.00    +0.000 HD
ENDROOT
BRANCH   1  10
ATOM      5  O   UNL     1       7.133   3.752  13.062  0.00  0.00    +0.000 OA
ATOM      6  C   UNL     1       6.678   4.335  14.032  0.00  0.00    +0.000 C 
ATOM      7  C   UNL     1       5.218   4.354  14.486  0.00  0.00    +0.000 C 
ATOM      8  C   UNL     1       5.286   5.193  15.724  0.00  0.00    +0.000 A 
ATOM      9  C   UNL     1       4.287   5.539  16.614  0.00  0.00    +0.000 A 
ATOM     10  C   UNL     1       4.622   6.402  17.660  0.00  0.00    +0.000 A 
ATOM     11  C   UNL     1       5.935   6.901  17.797  0.00  0.00    +0.000 A 
ATOM     12  C   UNL     1       6.951   6.487  16.932  0.00  0.00    +0.000 A 
ATOM     13  C   UNL     1       6.592   5.645  15.905  0.00  0.00    +0.000 A 
ATOM     14  N   UNL     1       7.407   5.122  14.919  0.00  0.00    +0.000 N 
ATOM     15  H   UNL     1       8.402   5.264  14.829  0.00  0.00    +0.000 HD
ENDBRANCH   1  10
BRANCH   2  16
ATOM     16  C   UNL     1       1.843   8.260  19.431  0.00  0.00    +0.000 A 
ATOM     17  C   UNL     1       1.239   9.538  19.429  0.00  0.00    +0.000 A 
ATOM     18  C   UNL     1       0.277   9.885  20.376  0.00  0.00    +0.000 A 
ATOM     19  C   UNL     1      -0.089   8.963  21.339  0.00  0.00    +0.000 A 
ATOM     20  C   UNL     1       0.553   7.728  21.405  0.00  0.00    +0.000 A 
ATOM     21  C   UNL     1       1.569   7.383  20.498  0.00  0.00    +0.000 A 
BRANCH  21  22
ATOM     22  O   UNL     1       2.289   6.212  20.629  0.00  0.00    +0.000 OA
BRANCH  22  23
ATOM     23  C   UNL     1       1.505   5.012  20.519  0.00  0.00    +0.000 C 
BRANCH  23  24
ATOM     24  C   UNL     1       2.103   3.933  19.644  0.00  0.00    +0.000 A 
ATOM     25  C   UNL     1       1.572   3.607  18.390  0.00  0.00    +0.000 A 
ATOM     26  C   UNL     1       2.236   2.701  17.558  0.00  0.00    +0.000 A 
ATOM     27  C   UNL     1       3.436   2.117  17.964  0.00  0.00    +0.000 A 
ATOM     28  C   UNL     1       3.975   2.432  19.208  0.00  0.00    +0.000 A 
ATOM     29  C   UNL     1       3.316   3.338  20.039  0.00  0.00    +0.000 A 
ENDBRANCH  23  24
ENDBRANCH  22  23
ENDBRANCH  21  22
ENDBRANCH   2  16
TORSDOF 5
ENDMDL
MODEL 8
REMARK VINA RESULT:      -8.6      1.058      1.666
REMARK  Name = 
REMARK  5 active torsions:
REMARK  status: ('A' for Active; 'I' for Inactive)
REMARK    1  A    between atoms: C_6  and  N_7
REMARK    2  A    between atoms: C_8  and  C_10
REMARK    3  A    between atoms: C_15  and  O_16
REMARK    4  A    between atoms: O_16  and  C_17
REMARK    5  A    between atoms: C_17  and  C_18
REMARK                            x       y       z     vdW  Elec       q    Type
REMARK                         _______ _______ _______ _____ _____    ______ ____
ROOT
ATOM      1  N   UNL     1       3.191   7.520  18.093  0.00  0.00    +0.000 N 
ATOM      2  C   UNL     1       3.056   6.177  17.739  0.00  0.00    +0.000 C 
ATOM      3  O   UNL     1       2.032   5.527  17.910  0.00  0.00    +0.000 OA
ATOM      4  H   UNL     1       3.955   8.060  17.717  0.00  0.00    +0.000 HD
ENDROOT
BRANCH   1  10
ATOM      5  O   UNL     1      -2.105  12.042  19.977  0.00  0.00    +0.000 OA
ATOM      6  C   UNL     1      -1.212  11.230  19.802  0.00  0.00    +0.000 C 
ATOM      7  C   UNL     1      -0.472  10.952  18.493  0.00  0.00    +0.000 C 
ATOM      8  C   UNL     1       0.508   9.899  18.906  0.00  0.00    +0.000 A 
ATOM      9  C   UNL     1       1.494   9.270  18.168  0.00  0.00    +0.000 A 
ATOM     10  C   UNL     1       2.229   8.262  18.796  0.00  0.00    +0.000 A 
ATOM     11  C   UNL     1       1.969   7.901  20.136  0.00  0.00    +0.000 A 
ATOM     12  C   UNL     1       1.019   8.593  20.891  0.00  0.00    +0.000 A 
ATOM     13  C   UNL     1       0.303   9.574  20.245  0.00  0.00    +0.000 A 
ATOM     14  N   UNL     1      -0.695  10.373  20.770  0.00  0.00    +0.000 N 
ATOM     15  H   UNL     1      -1.025  10.368  21.724  0.00  0.00    +0.000 HD
ENDBRANCH   1  10
BRANCH   2  16
ATOM     16  C   UNL     1       4.268   5.572  17.087  0.00  0.00    +0.000 A 
ATOM     17  C   UNL     1       5.383   6.393  16.809  0.00  0.00    +0.000 A 
ATOM     18  C   UNL     1       6.596   5.848  16.391  0.00  0.00    +0.000 A 
ATOM     19  C   UNL     1       6.708   4.479  16.241  0.00  0.00    +0.000 A 
ATOM     20  C   UNL     1       5.597   3.661  16.433  0.00  0.00    +0.000 A 
ATOM     21  C   UNL     1       4.349   4.196  16.794  0.00  0.00    +0.000 A 
BRANCH  21  22
ATOM     22  O   UNL     1       3.218   3.409  16.873  0.00  0.00    +0.000 OA
BRANCH  22  23
ATOM     23  C   UNL     1       3.340   2.273  17.746  0.00  0.00    +0.000 C 
BRANCH  23  24
ATOM     24  C   UNL     1       2.673   2.426  19.095  0.00  0.00    +0.000 A 
ATOM     25  C   UNL     1       3.405   2.509  20.285  0.00  0.00    +0.000 A 
ATOM     26  C   UNL     1       2.757   2.788  21.492  0.00  0.00    +0.000 A 
ATOM     27  C   UNL     1       1.377   2.991  21.523  0.00  0.00    +0.000 A 
ATOM     28  C   UNL     1       0.637   2.912  20.347  0.00  0.00    +0.000 A 
ATOM     29  C   UNL     1       1.282   2.636  19.141  0.00  0.00    +0.000 A 
ENDBRANCH  23  24
ENDBRANCH  22  23
ENDBRANCH  21  22
ENDBRANCH   2  16
TORSDOF 5
ENDMDL
MODEL 9
REMARK VINA RESULT:      -8.4      1.189      2.019
REMARK  Name = 
REMARK  5 active torsions:
REMARK  status: ('A' for Active; 'I' for Inactive)
REMARK    1  A    between atoms: C_6  and  N_7
REMARK    2  A    between atoms: C_8  and  C_10
REMARK    3  A    between atoms: C_15  and  O_16
REMARK    4  A    between atoms: O_16  and  C_17
REMARK    5  A    between atoms: C_17  and  C_18
REMARK                            x       y       z     vdW  Elec       q    Type
REMARK                         _______ _______ _______ _____ _____    ______ ____
ROOT
ATOM      1  N   UNL     1       3.169   7.795  18.113  0.00  0.00    +0.000 N 
ATOM      2  C   UNL     1       3.090   6.455  17.732  0.00  0.00    +0.000 C 
ATOM      3  O   UNL     1       2.062   5.791  17.785  0.00  0.00    +0.000 OA
ATOM      4  H   UNL     1       3.962   8.348  17.828  0.00  0.00    +0.000 HD
ENDROOT
BRANCH   1  10
ATOM      5  O   UNL     1      -2.536  12.012  19.422  0.00  0.00    +0.000 OA
ATOM      6  C   UNL     1      -1.575  11.265  19.348  0.00  0.00    +0.000 C 
ATOM      7  C   UNL     1      -0.774  10.927  18.090  0.00  0.00    +0.000 C 
ATOM      8  C   UNL     1       0.276  10.005  18.627  0.00  0.00    +0.000 A 
ATOM      9  C   UNL     1       1.333   9.394  17.977  0.00  0.00    +0.000 A 
ATOM     10  C   UNL     1       2.128   8.516  18.718  0.00  0.00    +0.000 A 
ATOM     11  C   UNL     1       1.856   8.265  20.080  0.00  0.00    +0.000 A 
ATOM     12  C   UNL     1       0.829   8.942  20.741  0.00  0.00    +0.000 A 
ATOM     13  C   UNL     1       0.056   9.793  19.987  0.00  0.00    +0.000 A 
ATOM     14  N   UNL     1      -1.021  10.551  20.407  0.00  0.00    +0.000 N 
ATOM     15  H   UNL     1      -1.379  10.609  21.349  0.00  0.00    +0.000 HD
ENDBRANCH   1  10
BRANCH   2  16
ATOM     16  C   UNL     1       4.372   5.872  17.207  0.00  0.00    +0.000 A 
ATOM     17  C   UNL     1       5.500   6.710  17.059  0.00  0.00    +0.000 A 
ATOM     18  C   UNL     1       6.758   6.185  16.767  0.00  0.00    +0.000 A 
ATOM     19  C   UNL     1       6.903   4.819  16.614  0.00  0.00    +0.000 A 
ATOM     20  C   UNL     1       5.788   3.985  16.677  0.00  0.00    +0.000 A 
ATOM     21  C   UNL     1       4.503   4.502  16.909  0.00  0.00    +0.000 A 
BRANCH  21  22
ATOM     22  O   UNL     1       3.380   3.700  16.857  0.00  0.00    +0.000 OA
BRANCH  22  23
ATOM     23  C   UNL     1       3.419   2.559  17.731  0.00  0.00    +0.000 C 
BRANCH  23  24
ATOM     24  C   UNL     1       2.709   2.741  19.054  0.00  0.00    +0.000 A 
ATOM     25  C   UNL     1       1.319   2.884  19.144  0.00  0.00    +0.000 A 
ATOM     26  C   UNL     1       0.693   2.912  20.393  0.00  0.00    +0.000 A 
ATOM     27  C   UNL     1       1.443   2.792  21.563  0.00  0.00    +0.000 A 
ATOM     28  C   UNL     1       2.826   2.649  21.489  0.00  0.00    +0.000 A 
ATOM     29  C   UNL     1       3.453   2.619  20.243  0.00  0.00    +0.000 A 
ENDBRANCH  23  24
ENDBRANCH  22  23
ENDBRANCH  21  22
ENDBRANCH   2  16
TORSDOF 5
ENDMDL
