MODEL 1
REMARK VINA RESULT:      -8.8      0.000      0.000
REMARK  Name = 
REMARK  2 active torsions:
REMARK  status: ('A' for Active; 'I' for Inactive)
REMARK    1  A    between atoms: C_2  and  C_10
REMARK    2  A    between atoms: C_12  and  C_13
REMARK                            x       y       z     vdW  Elec       q    Type
REMARK                         _______ _______ _______ _____ _____    ______ ____
ROOT
ATOM      1  C   UNL     1       4.027   5.880  17.583  0.00  0.00    +0.000 A 
ATOM      2  C   UNL     1       3.333   7.084  17.754  0.00  0.00    +0.000 A 
ATOM      3  C   UNL     1       2.490   7.227  18.839  0.00  0.00    +0.000 A 
ATOM      4  N   UNL     1       2.264   6.187  19.688  0.00  0.00    +0.000 NA
ATOM      5  C   UNL     1       2.932   5.029  19.528  0.00  0.00    +0.000 A 
ATOM      6  C   UNL     1       2.690   4.011  20.436  0.00  0.00    +0.000 A 
ATOM      7  C   UNL     1       3.366   2.792  20.380  0.00  0.00    +0.000 A 
ATOM      8  C   UNL     1       4.333   2.587  19.412  0.00  0.00    +0.000 A 
ATOM      9  C   UNL     1       4.591   3.595  18.481  0.00  0.00    +0.000 A 
ATOM     10  C   UNL     1       3.871   4.818  18.500  0.00  0.00    +0.000 A 
ENDROOT
BRANCH   1  12
ATOM     11  O   UNL     1       5.557   6.865  16.130  0.00  0.00    +0.000 OA
ATOM     12  C   UNL     1       4.967   5.833  16.436  0.00  0.00    +0.000 C 
ATOM     13  N   UNL     1       5.015   4.643  15.742  0.00  0.00    +0.000 N 
ATOM     14  C   UNL     1       5.783   4.460  14.590  0.00  0.00    +0.000 A 
ATOM     15  C   UNL     1       7.052   5.012  14.451  0.00  0.00    +0.000 A 
ATOM     16  C   UNL     1       7.724   4.849  13.242  0.00  0.00    +0.000 A 
ATOM     17  C   UNL     1       7.096   4.168  12.209  0.00  0.00    +0.000 A 
ATOM     18  C   UNL     1       5.846   3.623  12.452  0.00  0.00    +0.000 A 
ATOM     19  N   UNL     1       5.197   3.714  13.633  0.00  0.00    +0.000 NA
ATOM     20  H   UNL     1       4.229   4.009  15.808  0.00  0.00    +0.000 HD
ENDBRANCH   1  12
BRANCH   3  21
ATOM     21  C   UNL     1       1.812   8.493  19.194  0.00  0.00    +0.000 A 
ATOM     22  C   UNL     1       1.647   9.519  18.250  0.00  0.00    +0.000 A 
ATOM     23  C   UNL     1       0.973  10.675  18.602  0.00  0.00    +0.000 A 
ATOM     24  N   UNL     1       0.446  10.894  19.823  0.00  0.00    +0.000 NA
ATOM     25  C   UNL     1       0.595   9.905  20.724  0.00  0.00    +0.000 A 
ATOM     26  C   UNL     1       1.254   8.712  20.461  0.00  0.00    +0.000 A 
ENDBRANCH   3  21
TORSDOF 2
ENDMDL
MODEL 2
REMARK VINA RESULT:      -8.5      1.764      7.488
REMARK  Name = 
REMARK  2 active torsions:
REMARK  status: ('A' for Active; 'I' for Inactive)
REMARK    1  A    between atoms: C_2  and  C_10
REMARK    2  A    between atoms: C_12  and  C_13
REMARK                            x       y       z     vdW  Elec       q    Type
REMARK                         _______ _______ _______ _____ _____    ______ ____
ROOT
ATOM      1  C   UNL     1       3.093   6.114  19.075  0.00  0.00    +0.000 A 
ATOM      2  C   UNL     1       3.941   6.148  17.962  0.00  0.00    +0.000 A 
ATOM      3  C   UNL     1       4.636   5.007  17.609  0.00  0.00    +0.000 A 
ATOM      4  N   UNL     1       4.569   3.885  18.378  0.00  0.00    +0.000 NA
ATOM      5  C   UNL     1       3.751   3.848  19.446  0.00  0.00    +0.000 A 
ATOM      6  C   UNL     1       3.695   2.673  20.178  0.00  0.00    +0.000 A 
ATOM      7  C   UNL     1       2.845   2.523  21.274  0.00  0.00    +0.000 A 
ATOM      8  C   UNL     1       2.004   3.559  21.637  0.00  0.00    +0.000 A 
ATOM      9  C   UNL     1       2.045   4.755  20.920  0.00  0.00    +0.000 A 
ATOM     10  C   UNL     1       2.944   4.935  19.836  0.00  0.00    +0.000 A 
ENDROOT
BRANCH   1  12
ATOM     11  O   UNL     1       2.412   8.273  18.531  0.00  0.00    +0.000 OA
ATOM     12  C   UNL     1       2.327   7.357  19.343  0.00  0.00    +0.000 C 
ATOM     13  N   UNL     1       1.665   7.409  20.549  0.00  0.00    +0.000 N 
ATOM     14  C   UNL     1       0.969   8.537  20.991  0.00  0.00    +0.000 A 
ATOM     15  C   UNL     1       0.216   9.328  20.129  0.00  0.00    +0.000 A 
ATOM     16  C   UNL     1      -0.385  10.479  20.630  0.00  0.00    +0.000 A 
ATOM     17  C   UNL     1      -0.192  10.815  21.963  0.00  0.00    +0.000 A 
ATOM     18  C   UNL     1       0.544   9.948  22.754  0.00  0.00    +0.000 A 
ATOM     19  N   UNL     1       1.089   8.794  22.309  0.00  0.00    +0.000 NA
ATOM     20  H   UNL     1       1.971   6.805  21.301  0.00  0.00    +0.000 HD
ENDBRANCH   1  12
BRANCH   3  21
ATOM     21  C   UNL     1       5.454   4.887  16.382  0.00  0.00    +0.000 A 
ATOM     22  C   UNL     1       6.770   5.370  16.336  0.00  0.00    +0.000 A 
ATOM     23  C   UNL     1       7.522   5.206  15.185  0.00  0.00    +0.000 A 
ATOM     24  N   UNL     1       7.068   4.596  14.073  0.00  0.00    +0.000 NA
ATOM     25  C   UNL     1       5.808   4.123  14.123  0.00  0.00    +0.000 A 
ATOM     26  C   UNL     1       4.982   4.240  15.231  0.00  0.00    +0.000 A 
ENDBRANCH   3  21
TORSDOF 2
ENDMDL
MODEL 3
REMARK VINA RESULT:      -8.4      2.000      7.048
REMARK  Name = 
REMARK  2 active torsions:
REMARK  status: ('A' for Active; 'I' for Inactive)
REMARK    1  A    between atoms: C_2  and  C_10
REMARK    2  A    between atoms: C_12  and  C_13
REMARK                            x       y       z     vdW  Elec       q    Type
REMARK                         _______ _______ _______ _____ _____    ______ ____
ROOT
ATOM      1  C   UNL     1       2.725   6.201  19.217  0.00  0.00    +0.000 A 
ATOM      2  C   UNL     1       3.757   6.356  18.283  0.00  0.00    +0.000 A 
ATOM      3  C   UNL     1       4.388   5.233  17.785  0.00  0.00    +0.000 A 
ATOM      4  N   UNL     1       4.075   3.993  18.252  0.00  0.00    +0.000 NA
ATOM      5  C   UNL     1       3.081   3.841  19.147  0.00  0.00    +0.000 A 
ATOM      6  C   UNL     1       2.781   2.555  19.569  0.00  0.00    +0.000 A 
ATOM      7  C   UNL     1       1.739   2.292  20.459  0.00  0.00    +0.000 A 
ATOM      8  C   UNL     1       0.952   3.332  20.921  0.00  0.00    +0.000 A 
ATOM      9  C   UNL     1       1.238   4.636  20.516  0.00  0.00    +0.000 A 
ATOM     10  C   UNL     1       2.328   4.918  19.651  0.00  0.00    +0.000 A 
ENDROOT
BRANCH   1  12
ATOM     11  O   UNL     1       1.791   7.585  20.839  0.00  0.00    +0.000 OA
ATOM     12  C   UNL     1       2.049   7.450  19.647  0.00  0.00    +0.000 C 
ATOM     13  N   UNL     1       1.673   8.312  18.640  0.00  0.00    +0.000 N 
ATOM     14  C   UNL     1       0.955   9.488  18.868  0.00  0.00    +0.000 A 
ATOM     15  C   UNL     1       1.198  10.302  19.970  0.00  0.00    +0.000 A 
ATOM     16  C   UNL     1       0.388  11.417  20.169  0.00  0.00    +0.000 A 
ATOM     17  C   UNL     1      -0.650  11.664  19.282  0.00  0.00    +0.000 A 
ATOM     18  C   UNL     1      -0.793  10.818  18.194  0.00  0.00    +0.000 A 
ATOM     19  N   UNL     1       0.015   9.764  17.943  0.00  0.00    +0.000 NA
ATOM     20  H   UNL     1       1.562   7.947  17.703  0.00  0.00    +0.000 HD
ENDBRANCH   1  12
BRANCH   3  21
ATOM     21  C   UNL     1       5.394   5.267  16.701  0.00  0.00    +0.000 A 
ATOM     22  C   UNL     1       6.571   6.021  16.826  0.00  0.00    +0.000 A 
ATOM     23  C   UNL     1       7.512   6.000  15.810  0.00  0.00    +0.000 A 
ATOM     24  N   UNL     1       7.376   5.283  14.677  0.00  0.00    +0.000 NA
ATOM     25  C   UNL     1       6.252   4.551  14.564  0.00  0.00    +0.000 A 
ATOM     26  C   UNL     1       5.256   4.510  15.529  0.00  0.00    +0.000 A 
ENDBRANCH   3  21
TORSDOF 2
ENDMDL
MODEL 4
REMARK VINA RESULT:      -8.4      1.869      7.503
REMARK  Name = 
REMARK  2 active torsions:
REMARK  status: ('A' for Active; 'I' for Inactive)
REMARK    1  A    between atoms: C_2  and  C_10
REMARK    2  A    between atoms: C_12  and  C_13
REMARK                            x       y       z     vdW  Elec       q    Type
REMARK                         _______ _______ _______ _____ _____    ______ ____
ROOT
ATOM      1  C   UNL     1       2.812   6.206  19.053  0.00  0.00    +0.000 A 
ATOM      2  C   UNL     1       3.839   6.291  18.104  0.00  0.00    +0.000 A 
ATOM      3  C   UNL     1       4.493   5.138  17.714  0.00  0.00    +0.000 A 
ATOM      4  N   UNL     1       4.209   3.943  18.302  0.00  0.00    +0.000 NA
ATOM      5  C   UNL     1       3.221   3.858  19.212  0.00  0.00    +0.000 A 
ATOM      6  C   UNL     1       2.951   2.613  19.759  0.00  0.00    +0.000 A 
ATOM      7  C   UNL     1       1.917   2.415  20.675  0.00  0.00    +0.000 A 
ATOM      8  C   UNL     1       1.109   3.478  21.037  0.00  0.00    +0.000 A 
ATOM      9  C   UNL     1       1.364   4.743  20.505  0.00  0.00    +0.000 A 
ATOM     10  C   UNL     1       2.446   4.963  19.612  0.00  0.00    +0.000 A 
ENDROOT
BRANCH   1  12
ATOM     11  O   UNL     1       2.285   8.430  18.611  0.00  0.00    +0.000 OA
ATOM     12  C   UNL     1       2.111   7.476  19.363  0.00  0.00    +0.000 C 
ATOM     13  N   UNL     1       1.400   7.501  20.543  0.00  0.00    +0.000 N 
ATOM     14  C   UNL     1       0.753   8.642  21.022  0.00  0.00    +0.000 A 
ATOM     15  C   UNL     1       0.087   9.525  20.178  0.00  0.00    +0.000 A 
ATOM     16  C   UNL     1      -0.466  10.681  20.722  0.00  0.00    +0.000 A 
ATOM     17  C   UNL     1      -0.312  10.929  22.079  0.00  0.00    +0.000 A 
ATOM     18  C   UNL     1       0.336   9.975  22.846  0.00  0.00    +0.000 A 
ATOM     19  N   UNL     1       0.831   8.817  22.356  0.00  0.00    +0.000 NA
ATOM     20  H   UNL     1       1.637   6.837  21.269  0.00  0.00    +0.000 HD
ENDBRANCH   1  12
BRANCH   3  21
ATOM     21  C   UNL     1       5.496   5.088  16.627  0.00  0.00    +0.000 A 
ATOM     22  C   UNL     1       5.288   4.305  15.482  0.00  0.00    +0.000 A 
ATOM     23  C   UNL     1       6.228   4.312  14.465  0.00  0.00    +0.000 A 
ATOM     24  N   UNL     1       7.361   5.040  14.496  0.00  0.00    +0.000 NA
ATOM     25  C   UNL     1       7.553   5.800  15.590  0.00  0.00    +0.000 A 
ATOM     26  C   UNL     1       6.668   5.857  16.657  0.00  0.00    +0.000 A 
ENDBRANCH   3  21
TORSDOF 2
ENDMDL
MODEL 5
REMARK VINA RESULT:      -8.3      0.991      1.132
REMARK  Name = 
REMARK  2 active torsions:
REMARK  status: ('A' for Active; 'I' for Inactive)
REMARK    1  A    between atoms: C_2  and  C_10
REMARK    2  A    between atoms: C_12  and  C_13
REMARK                            x       y       z     vdW  Elec       q    Type
REMARK                         _______ _______ _______ _____ _____    ______ ____
ROOT
ATOM      1  C   UNL     1       3.607   5.911  18.637  0.00  0.00    +0.000 A 
ATOM      2  C   UNL     1       2.942   7.131  18.810  0.00  0.00    +0.000 A 
ATOM      3  C   UNL     1       2.023   7.257  19.835  0.00  0.00    +0.000 A 
ATOM      4  N   UNL     1       1.700   6.191  20.616  0.00  0.00    +0.000 NA
ATOM      5  C   UNL     1       2.340   5.018  20.454  0.00  0.00    +0.000 A 
ATOM      6  C   UNL     1       1.996   3.971  21.295  0.00  0.00    +0.000 A 
ATOM      7  C   UNL     1       2.635   2.732  21.234  0.00  0.00    +0.000 A 
ATOM      8  C   UNL     1       3.665   2.534  20.332  0.00  0.00    +0.000 A 
ATOM      9  C   UNL     1       4.027   3.571  19.470  0.00  0.00    +0.000 A 
ATOM     10  C   UNL     1       3.348   4.817  19.491  0.00  0.00    +0.000 A 
ENDROOT
BRANCH   1  12
ATOM     11  O   UNL     1       5.343   6.868  17.415  0.00  0.00    +0.000 OA
ATOM     12  C   UNL     1       4.630   5.879  17.563  0.00  0.00    +0.000 C 
ATOM     13  N   UNL     1       4.617   4.768  16.749  0.00  0.00    +0.000 N 
ATOM     14  C   UNL     1       5.456   4.621  15.642  0.00  0.00    +0.000 A 
ATOM     15  C   UNL     1       6.781   5.044  15.656  0.00  0.00    +0.000 A 
ATOM     16  C   UNL     1       7.531   4.933  14.488  0.00  0.00    +0.000 A 
ATOM     17  C   UNL     1       6.927   4.432  13.344  0.00  0.00    +0.000 A 
ATOM     18  C   UNL     1       5.613   4.002  13.435  0.00  0.00    +0.000 A 
ATOM     19  N   UNL     1       4.881   4.042  14.570  0.00  0.00    +0.000 NA
ATOM     20  H   UNL     1       3.770   4.219  16.688  0.00  0.00    +0.000 HD
ENDBRANCH   1  12
BRANCH   3  21
ATOM     21  C   UNL     1       1.362   8.531  20.195  0.00  0.00    +0.000 A 
ATOM     22  C   UNL     1       1.148   9.535  19.238  0.00  0.00    +0.000 A 
ATOM     23  C   UNL     1       0.491  10.699  19.598  0.00  0.00    +0.000 A 
ATOM     24  N   UNL     1       0.025  10.944  20.838  0.00  0.00    +0.000 NA
ATOM     25  C   UNL     1       0.221   9.975  21.752  0.00  0.00    +0.000 A 
ATOM     26  C   UNL     1       0.867   8.777  21.484  0.00  0.00    +0.000 A 
ENDBRANCH   3  21
TORSDOF 2
ENDMDL
MODEL 6
REMARK VINA RESULT:      -8.3      1.293      1.584
REMARK  Name = 
REMARK  2 active torsions:
REMARK  status: ('A' for Active; 'I' for Inactive)
REMARK    1  A    between atoms: C_2  and  C_10
REMARK    2  A    between atoms: C_12  and  C_13
REMARK                            x       y       z     vdW  Elec       q    Type
REMARK                         _______ _______ _______ _____ _____    ______ ____
ROOT
ATOM      1  C   UNL     1       3.352   4.943  18.084  0.00  0.00    +0.000 A 
ATOM      2  C   UNL     1       2.913   6.269  17.990  0.00  0.00    +0.000 A 
ATOM      3  C   UNL     1       2.283   6.847  19.076  0.00  0.00    +0.000 A 
ATOM      4  N   UNL     1       2.012   6.119  20.194  0.00  0.00    +0.000 NA
ATOM      5  C   UNL     1       2.436   4.845  20.287  0.00  0.00    +0.000 A 
ATOM      6  C   UNL     1       2.163   4.157  21.459  0.00  0.00    +0.000 A 
ATOM      7  C   UNL     1       2.601   2.848  21.668  0.00  0.00    +0.000 A 
ATOM      8  C   UNL     1       3.358   2.215  20.699  0.00  0.00    +0.000 A 
ATOM      9  C   UNL     1       3.642   2.885  19.508  0.00  0.00    +0.000 A 
ATOM     10  C   UNL     1       3.157   4.197  19.266  0.00  0.00    +0.000 A 
ENDROOT
BRANCH   1  12
ATOM     11  O   UNL     1       4.098   3.206  16.726  0.00  0.00    +0.000 OA
ATOM     12  C   UNL     1       4.084   4.420  16.904  0.00  0.00    +0.000 C 
ATOM     13  N   UNL     1       4.779   5.350  16.163  0.00  0.00    +0.000 N 
ATOM     14  C   UNL     1       5.585   5.012  15.073  0.00  0.00    +0.000 A 
ATOM     15  C   UNL     1       5.227   4.020  14.166  0.00  0.00    +0.000 A 
ATOM     16  C   UNL     1       6.119   3.688  13.151  0.00  0.00    +0.000 A 
ATOM     17  C   UNL     1       7.346   4.334  13.093  0.00  0.00    +0.000 A 
ATOM     18  C   UNL     1       7.601   5.333  14.018  0.00  0.00    +0.000 A 
ATOM     19  N   UNL     1       6.729   5.717  14.976  0.00  0.00    +0.000 NA
ATOM     20  H   UNL     1       5.037   6.226  16.598  0.00  0.00    +0.000 HD
ENDBRANCH   1  12
BRANCH   3  21
ATOM     21  C   UNL     1       1.897   8.274  19.139  0.00  0.00    +0.000 A 
ATOM     22  C   UNL     1       2.125   9.138  18.057  0.00  0.00    +0.000 A 
ATOM     23  C   UNL     1       1.716  10.459  18.133  0.00  0.00    +0.000 A 
ATOM     24  N   UNL     1       1.094  10.990  19.203  0.00  0.00    +0.000 NA
ATOM     25  C   UNL     1       0.866  10.158  20.236  0.00  0.00    +0.000 A 
ATOM     26  C   UNL     1       1.238   8.821  20.250  0.00  0.00    +0.000 A 
ENDBRANCH   3  21
TORSDOF 2
ENDMDL
MODEL 7
REMARK VINA RESULT:      -8.2      1.584      7.367
REMARK  Name = 
REMARK  2 active torsions:
REMARK  status: ('A' for Active; 'I' for Inactive)
REMARK    1  A    between atoms: C_2  and  C_10
REMARK    2  A    between atoms: C_12  and  C_13
REMARK                            x       y       z     vdW  Elec       q    Type
REMARK                         _______ _______ _______ _____ _____    ______ ____
ROOT
ATOM      1  C   UNL     1       3.108   5.854  18.165  0.00  0.00    +0.000 A 
ATOM      2  C   UNL     1       4.098   5.874  17.175  0.00  0.00    +0.000 A 
ATOM      3  C   UNL     1       4.573   4.678  16.673  0.00  0.00    +0.000 A 
ATOM      4  N   UNL     1       4.152   3.490  17.189  0.00  0.00    +0.000 NA
ATOM      5  C   UNL     1       3.198   3.468  18.138  0.00  0.00    +0.000 A 
ATOM      6  C   UNL     1       2.782   2.232  18.608  0.00  0.00    +0.000 A 
ATOM      7  C   UNL     1       1.768   2.105  19.558  0.00  0.00    +0.000 A 
ATOM      8  C   UNL     1       1.127   3.234  20.033  0.00  0.00    +0.000 A 
ATOM      9  C   UNL     1       1.531   4.491  19.580  0.00  0.00    +0.000 A 
ATOM     10  C   UNL     1       2.597   4.632  18.653  0.00  0.00    +0.000 A 
ENDROOT
BRANCH   1  12
ATOM     11  O   UNL     1       2.958   8.169  17.967  0.00  0.00    +0.000 OA
ATOM     12  C   UNL     1       2.599   7.179  18.597  0.00  0.00    +0.000 C 
ATOM     13  N   UNL     1       1.842   7.189  19.749  0.00  0.00    +0.000 N 
ATOM     14  C   UNL     1       1.359   8.360  20.336  0.00  0.00    +0.000 A 
ATOM     15  C   UNL     1       0.882   9.426  19.580  0.00  0.00    +0.000 A 
ATOM     16  C   UNL     1       0.489  10.589  20.236  0.00  0.00    +0.000 A 
ATOM     17  C   UNL     1       0.612  10.659  21.617  0.00  0.00    +0.000 A 
ATOM     18  C   UNL     1       1.064   9.535  22.289  0.00  0.00    +0.000 A 
ATOM     19  N   UNL     1       1.395   8.373  21.683  0.00  0.00    +0.000 NA
ATOM     20  H   UNL     1       1.936   6.420  20.400  0.00  0.00    +0.000 HD
ENDBRANCH   1  12
BRANCH   3  21
ATOM     21  C   UNL     1       5.517   4.578  15.538  0.00  0.00    +0.000 A 
ATOM     22  C   UNL     1       5.189   3.853  14.382  0.00  0.00    +0.000 A 
ATOM     23  C   UNL     1       6.078   3.812  13.321  0.00  0.00    +0.000 A 
ATOM     24  N   UNL     1       7.270   4.440  13.318  0.00  0.00    +0.000 NA
ATOM     25  C   UNL     1       7.578   5.145  14.422  0.00  0.00    +0.000 A 
ATOM     26  C   UNL     1       6.751   5.243  15.532  0.00  0.00    +0.000 A 
ENDBRANCH   3  21
TORSDOF 2
ENDMDL
MODEL 8
REMARK VINA RESULT:      -7.7      3.295      6.530
REMARK  Name = 
REMARK  2 active torsions:
REMARK  status: ('A' for Active; 'I' for Inactive)
REMARK    1  A    between atoms: C_2  and  C_10
REMARK    2  A    between atoms: C_12  and  C_13
REMARK                            x       y       z     vdW  Elec       q    Type
REMARK                         _______ _______ _______ _____ _____    ______ ____
ROOT
ATOM      1  C   UNL     1       1.271  10.193  19.363  0.00  0.00    +0.000 A 
ATOM      2  C   UNL     1       1.613  11.396  18.734  0.00  0.00    +0.000 A 
ATOM      3  C   UNL     1       1.260  12.592  19.329  0.00  0.00    +0.000 A 
ATOM      4  N   UNL     1       0.515  12.609  20.468  0.00  0.00    +0.000 NA
ATOM      5  C   UNL     1       0.187  11.454  21.077  0.00  0.00    +0.000 A 
ATOM      6  C   UNL     1      -0.546  11.527  22.251  0.00  0.00    +0.000 A 
ATOM      7  C   UNL     1      -0.894  10.388  22.979  0.00  0.00    +0.000 A 
ATOM      8  C   UNL     1      -0.476   9.142  22.545  0.00  0.00    +0.000 A 
ATOM      9  C   UNL     1       0.258   9.042  21.362  0.00  0.00    +0.000 A 
ATOM     10  C   UNL     1       0.572  10.191  20.589  0.00  0.00    +0.000 A 
ENDROOT
BRANCH   1  12
ATOM     11  O   UNL     1       1.680   8.895  17.475  0.00  0.00    +0.000 OA
ATOM     12  C   UNL     1       1.750   8.956  18.698  0.00  0.00    +0.000 C 
ATOM     13  N   UNL     1       2.138   7.932  19.534  0.00  0.00    +0.000 N 
ATOM     14  C   UNL     1       2.534   6.675  19.071  0.00  0.00    +0.000 A 
ATOM     15  C   UNL     1       3.304   6.518  17.923  0.00  0.00    +0.000 A 
ATOM     16  C   UNL     1       3.593   5.229  17.483  0.00  0.00    +0.000 A 
ATOM     17  C   UNL     1       3.082   4.146  18.186  0.00  0.00    +0.000 A 
ATOM     18  C   UNL     1       2.355   4.400  19.337  0.00  0.00    +0.000 A 
ATOM     19  N   UNL     1       2.110   5.638  19.820  0.00  0.00    +0.000 NA
ATOM     20  H   UNL     1       1.791   7.921  20.484  0.00  0.00    +0.000 HD
ENDBRANCH   1  12
BRANCH   3  21
ATOM     21  C   UNL     1       1.682  13.918  18.827  0.00  0.00    +0.000 A 
ATOM     22  C   UNL     1       0.910  15.065  19.066  0.00  0.00    +0.000 A 
ATOM     23  C   UNL     1       1.353  16.297  18.617  0.00  0.00    +0.000 A 
ATOM     24  N   UNL     1       2.508  16.480  17.948  0.00  0.00    +0.000 NA
ATOM     25  C   UNL     1       3.253  15.381  17.730  0.00  0.00    +0.000 A 
ATOM     26  C   UNL     1       2.891  14.107  18.142  0.00  0.00    +0.000 A 
ENDBRANCH   3  21
TORSDOF 2
ENDMDL
MODEL 9
REMARK VINA RESULT:      -7.6      3.943      7.692
REMARK  Name = 
REMARK  2 active torsions:
REMARK  status: ('A' for Active; 'I' for Inactive)
REMARK    1  A    between atoms: C_2  and  C_10
REMARK    2  A    between atoms: C_12  and  C_13
REMARK                            x       y       z     vdW  Elec       q    Type
REMARK                         _______ _______ _______ _____ _____    ______ ____
ROOT
ATOM      1  C   UNL     1       0.637  10.964  19.517  0.00  0.00    +0.000 A 
ATOM      2  C   UNL     1      -0.480  10.955  20.361  0.00  0.00    +0.000 A 
ATOM      3  C   UNL     1      -0.968  12.153  20.845  0.00  0.00    +0.000 A 
ATOM      4  N   UNL     1      -0.327  13.324  20.580  0.00  0.00    +0.000 NA
ATOM      5  C   UNL     1       0.745  13.337  19.766  0.00  0.00    +0.000 A 
ATOM      6  C   UNL     1       1.344  14.559  19.503  0.00  0.00    +0.000 A 
ATOM      7  C   UNL     1       2.431  14.679  18.636  0.00  0.00    +0.000 A 
ATOM      8  C   UNL     1       2.920  13.559  17.990  0.00  0.00    +0.000 A 
ATOM      9  C   UNL     1       2.339  12.316  18.243  0.00  0.00    +0.000 A 
ATOM     10  C   UNL     1       1.266  12.176  19.161  0.00  0.00    +0.000 A 
ENDROOT
BRANCH   1  12
ATOM     11  O   UNL     1       0.751   9.369  17.825  0.00  0.00    +0.000 OA
ATOM     12  C   UNL     1       1.054   9.644  18.982  0.00  0.00    +0.000 C 
ATOM     13  N   UNL     1       1.661   8.793  19.878  0.00  0.00    +0.000 N 
ATOM     14  C   UNL     1       2.037   7.486  19.558  0.00  0.00    +0.000 A 
ATOM     15  C   UNL     1       2.577   7.154  18.320  0.00  0.00    +0.000 A 
ATOM     16  C   UNL     1       2.855   5.817  18.049  0.00  0.00    +0.000 A 
ATOM     17  C   UNL     1       2.559   4.859  19.008  0.00  0.00    +0.000 A 
ATOM     18  C   UNL     1       2.057   5.288  20.226  0.00  0.00    +0.000 A 
ATOM     19  N   UNL     1       1.833   6.584  20.538  0.00  0.00    +0.000 NA
ATOM     20  H   UNL     1       1.507   8.937  20.868  0.00  0.00    +0.000 HD
ENDBRANCH   1  12
BRANCH   3  21
ATOM     21  C   UNL     1      -2.215  12.276  21.632  0.00  0.00    +0.000 A 
ATOM     22  C   UNL     1      -2.218  12.093  23.023  0.00  0.00    +0.000 A 
ATOM     23  C   UNL     1      -3.394  12.255  23.735  0.00  0.00    +0.000 A 
ATOM     24  N   UNL     1      -4.572  12.588  23.172  0.00  0.00    +0.000 NA
ATOM     25  C   UNL     1      -4.565  12.775  21.839  0.00  0.00    +0.000 A 
ATOM     26  C   UNL     1      -3.436  12.636  21.044  0.00  0.00    +0.000 A 
ENDBRANCH   3  21
TORSDOF 2
ENDMDL
