MODEL 1
REMARK VINA RESULT:      -8.5      0.000      0.000
REMARK  Name = 
REMARK  4 active torsions:
REMARK  status: ('A' for Active; 'I' for Inactive)
REMARK    1  A    between atoms: C_1  and  C_2
REMARK    2  A    between atoms: C_5  and  C_6
REMARK    3  A    between atoms: C_9  and  C_10
REMARK    4  A    between atoms: N_12  and  C_13
REMARK                            x       y       z     vdW  Elec       q    Type
REMARK                         _______ _______ _______ _____ _____    ______ ____
ROOT
ATOM      1  C   UNL     1       1.496   8.496  19.754  0.00  0.00    +0.000 C 
ATOM      2  O   UNL     1       1.467   8.987  18.629  0.00  0.00    +0.000 OA
ATOM      3  N   UNL     1       2.144   7.311  20.068  0.00  0.00    +0.000 N 
ATOM      4  H   UNL     1       1.963   6.929  20.992  0.00  0.00    +0.000 HD
ENDROOT
BRANCH   3   5
ATOM      5  C   UNL     1       2.866   6.478  19.190  0.00  0.00    +0.000 A 
ATOM      6  C   UNL     1       3.985   6.901  18.475  0.00  0.00    +0.000 A 
ATOM      7  C   UNL     1       4.590   6.057  17.534  0.00  0.00    +0.000 A 
ATOM      8  C   UNL     1       4.045   4.792  17.292  0.00  0.00    +0.000 A 
ATOM      9  C   UNL     1       2.968   4.328  18.042  0.00  0.00    +0.000 A 
ATOM     10  C   UNL     1       2.403   5.170  18.998  0.00  0.00    +0.000 A 
ATOM     11  F   UNL     1       1.348   4.731  19.705  0.00  0.00    +0.000 F 
ATOM     12  N   UNL     1       4.539   4.022  16.235  0.00  0.00    +0.000 N 
ATOM     13  C   UNL     1       5.625   4.373  15.477  0.00  0.00    +0.000 C 
ATOM     14  O   UNL     1       5.901   3.766  14.447  0.00  0.00    +0.000 OA
ATOM     15  C   UNL     1       6.519   5.440  16.058  0.00  0.00    +0.000 C 
ATOM     16  C   UNL     1       5.729   6.567  16.698  0.00  0.00    +0.000 C 
ATOM     17  H   UNL     1       4.023   3.212  15.913  0.00  0.00    +0.000 HD
ENDBRANCH   3   5
BRANCH   1  21
ATOM     18  C   UNL     1      -0.601  10.591  22.307  0.00  0.00    +0.000 A 
ATOM     19  C   UNL     1       0.049   9.608  23.027  0.00  0.00    +0.000 A 
ATOM     20  C   UNL     1       0.845   8.764  22.198  0.00  0.00    +0.000 A 
ATOM     21  C   UNL     1       0.783   9.121  20.863  0.00  0.00    +0.000 A 
ATOM     22  S   UNL     1      -0.269  10.449  20.634  0.00  0.00    +0.000 S 
BRANCH  18  27
ATOM     23  C   UNL     1      -4.436  12.530  24.582  0.00  0.00    +0.000 C 
ATOM     24  C   UNL     1      -3.150  12.580  23.861  0.00  0.00    +0.000 A 
ATOM     25  C   UNL     1      -2.306  13.608  23.516  0.00  0.00    +0.000 A 
ATOM     26  C   UNL     1      -1.215  13.010  22.848  0.00  0.00    +0.000 A 
ATOM     27  C   UNL     1      -1.437  11.640  22.824  0.00  0.00    +0.000 A 
ATOM     28  O   UNL     1      -2.643  11.391  23.434  0.00  0.00    +0.000 OA
ENDBRANCH  18  27
ENDBRANCH   1  21
TORSDOF 3
ENDMDL
MODEL 2
REMARK VINA RESULT:      -8.3      2.575     10.157
REMARK  Name = 
REMARK  4 active torsions:
REMARK  status: ('A' for Active; 'I' for Inactive)
REMARK    1  A    between atoms: C_1  and  C_2
REMARK    2  A    between atoms: C_5  and  C_6
REMARK    3  A    between atoms: C_9  and  C_10
REMARK    4  A    between atoms: N_12  and  C_13
REMARK                            x       y       z     vdW  Elec       q    Type
REMARK                         _______ _______ _______ _____ _____    ______ ____
ROOT
ATOM      1  C   UNL     1       2.541   6.399  19.275  0.00  0.00    +0.000 C 
ATOM      2  O   UNL     1       2.140   5.953  20.347  0.00  0.00    +0.000 OA
ATOM      3  N   UNL     1       2.281   7.684  18.823  0.00  0.00    +0.000 N 
ATOM      4  H   UNL     1       2.529   7.881  17.858  0.00  0.00    +0.000 HD
ENDROOT
BRANCH   3   5
ATOM      5  C   UNL     1       1.539   8.684  19.483  0.00  0.00    +0.000 A 
ATOM      6  C   UNL     1       1.040   8.543  20.777  0.00  0.00    +0.000 A 
ATOM      7  C   UNL     1       0.214   9.530  21.334  0.00  0.00    +0.000 A 
ATOM      8  C   UNL     1      -0.132  10.650  20.571  0.00  0.00    +0.000 A 
ATOM      9  C   UNL     1       0.410  10.838  19.303  0.00  0.00    +0.000 A 
ATOM     10  C   UNL     1       1.256   9.862  18.781  0.00  0.00    +0.000 A 
ATOM     11  F   UNL     1       1.759  10.033  17.547  0.00  0.00    +0.000 F 
ATOM     12  N   UNL     1      -1.089  11.543  21.058  0.00  0.00    +0.000 N 
ATOM     13  C   UNL     1      -1.637  11.466  22.311  0.00  0.00    +0.000 C 
ATOM     14  O   UNL     1      -2.607  12.152  22.622  0.00  0.00    +0.000 OA
ATOM     15  C   UNL     1      -0.897  10.606  23.305  0.00  0.00    +0.000 C 
ATOM     16  C   UNL     1      -0.399   9.312  22.687  0.00  0.00    +0.000 C 
ATOM     17  H   UNL     1      -1.506  12.228  20.439  0.00  0.00    +0.000 HD
ENDBRANCH   3   5
BRANCH   1  21
ATOM     18  C   UNL     1       4.766   4.691  16.550  0.00  0.00    +0.000 A 
ATOM     19  C   UNL     1       4.086   3.684  17.206  0.00  0.00    +0.000 A 
ATOM     20  C   UNL     1       3.242   4.184  18.241  0.00  0.00    +0.000 A 
ATOM     21  C   UNL     1       3.298   5.562  18.351  0.00  0.00    +0.000 A 
ATOM     22  S   UNL     1       4.402   6.221  17.225  0.00  0.00    +0.000 S 
BRANCH  18  27
ATOM     23  C   UNL     1       6.162   3.289  12.107  0.00  0.00    +0.000 C 
ATOM     24  C   UNL     1       6.341   3.956  13.411  0.00  0.00    +0.000 A 
ATOM     25  C   UNL     1       7.355   4.710  13.948  0.00  0.00    +0.000 A 
ATOM     26  C   UNL     1       6.921   5.087  15.238  0.00  0.00    +0.000 A 
ATOM     27  C   UNL     1       5.654   4.553  15.427  0.00  0.00    +0.000 A 
ATOM     28  O   UNL     1       5.317   3.841  14.300  0.00  0.00    +0.000 OA
ENDBRANCH  18  27
ENDBRANCH   1  21
TORSDOF 3
ENDMDL
MODEL 3
REMARK VINA RESULT:      -8.3      0.990      1.357
REMARK  Name = 
REMARK  4 active torsions:
REMARK  status: ('A' for Active; 'I' for Inactive)
REMARK    1  A    between atoms: C_1  and  C_2
REMARK    2  A    between atoms: C_5  and  C_6
REMARK    3  A    between atoms: C_9  and  C_10
REMARK    4  A    between atoms: N_12  and  C_13
REMARK                            x       y       z     vdW  Elec       q    Type
REMARK                         _______ _______ _______ _____ _____    ______ ____
ROOT
ATOM      1  C   UNL     1       1.834   8.242  19.325  0.00  0.00    +0.000 C 
ATOM      2  O   UNL     1       1.755   8.712  18.193  0.00  0.00    +0.000 OA
ATOM      3  N   UNL     1       2.520   7.077  19.636  0.00  0.00    +0.000 N 
ATOM      4  H   UNL     1       2.379   6.708  20.572  0.00  0.00    +0.000 HD
ENDROOT
BRANCH   3   5
ATOM      5  C   UNL     1       3.231   6.246  18.749  0.00  0.00    +0.000 A 
ATOM      6  C   UNL     1       4.466   6.587  18.199  0.00  0.00    +0.000 A 
ATOM      7  C   UNL     1       5.068   5.766  17.236  0.00  0.00    +0.000 A 
ATOM      8  C   UNL     1       4.409   4.611  16.805  0.00  0.00    +0.000 A 
ATOM      9  C   UNL     1       3.207   4.221  17.390  0.00  0.00    +0.000 A 
ATOM     10  C   UNL     1       2.642   5.033  18.370  0.00  0.00    +0.000 A 
ATOM     11  F   UNL     1       1.470   4.669  18.917  0.00  0.00    +0.000 F 
ATOM     12  N   UNL     1       4.923   3.889  15.725  0.00  0.00    +0.000 N 
ATOM     13  C   UNL     1       6.121   4.167  15.121  0.00  0.00    +0.000 C 
ATOM     14  O   UNL     1       6.437   3.631  14.063  0.00  0.00    +0.000 OA
ATOM     15  C   UNL     1       7.064   5.050  15.901  0.00  0.00    +0.000 C 
ATOM     16  C   UNL     1       6.346   6.203  16.578  0.00  0.00    +0.000 C 
ATOM     17  H   UNL     1       4.354   3.187  15.266  0.00  0.00    +0.000 HD
ENDBRANCH   3   5
BRANCH   1  21
ATOM     18  C   UNL     1      -0.097  10.407  21.948  0.00  0.00    +0.000 A 
ATOM     19  C   UNL     1       0.323   9.264  22.598  0.00  0.00    +0.000 A 
ATOM     20  C   UNL     1       1.036   8.380  21.736  0.00  0.00    +0.000 A 
ATOM     21  C   UNL     1       1.143   8.869  20.446  0.00  0.00    +0.000 A 
ATOM     22  S   UNL     1       0.343  10.372  20.295  0.00  0.00    +0.000 S 
BRANCH  18  27
ATOM     23  C   UNL     1      -0.798  15.050  23.214  0.00  0.00    +0.000 C 
ATOM     24  C   UNL     1      -1.173  13.627  23.109  0.00  0.00    +0.000 A 
ATOM     25  C   UNL     1      -2.307  12.928  23.444  0.00  0.00    +0.000 A 
ATOM     26  C   UNL     1      -2.062  11.586  23.075  0.00  0.00    +0.000 A 
ATOM     27  C   UNL     1      -0.791  11.529  22.521  0.00  0.00    +0.000 A 
ATOM     28  O   UNL     1      -0.247  12.791  22.566  0.00  0.00    +0.000 OA
ENDBRANCH  18  27
ENDBRANCH   1  21
TORSDOF 3
ENDMDL
MODEL 4
REMARK VINA RESULT:      -8.1      0.980      1.332
REMARK  Name = 
REMARK  4 active torsions:
REMARK  status: ('A' for Active; 'I' for Inactive)
REMARK    1  A    between atoms: C_1  and  C_2
REMARK    2  A    between atoms: C_5  and  C_6
REMARK    3  A    between atoms: C_9  and  C_10
REMARK    4  A    between atoms: N_12  and  C_13
REMARK                            x       y       z     vdW  Elec       q    Type
REMARK                         _______ _______ _______ _____ _____    ______ ____
ROOT
ATOM      1  C   UNL     1       1.331   8.755  20.041  0.00  0.00    +0.000 C 
ATOM      2  O   UNL     1       1.421   9.259  18.925  0.00  0.00    +0.000 OA
ATOM      3  N   UNL     1       1.911   7.546  20.396  0.00  0.00    +0.000 N 
ATOM      4  H   UNL     1       1.634   7.160  21.294  0.00  0.00    +0.000 HD
ENDROOT
BRANCH   3   5
ATOM      5  C   UNL     1       2.686   6.701  19.577  0.00  0.00    +0.000 A 
ATOM      6  C   UNL     1       3.444   7.159  18.501  0.00  0.00    +0.000 A 
ATOM      7  C   UNL     1       4.103   6.254  17.657  0.00  0.00    +0.000 A 
ATOM      8  C   UNL     1       3.972   4.880  17.884  0.00  0.00    +0.000 A 
ATOM      9  C   UNL     1       3.272   4.408  18.991  0.00  0.00    +0.000 A 
ATOM     10  C   UNL     1       2.654   5.326  19.837  0.00  0.00    +0.000 A 
ATOM     11  F   UNL     1       1.959   4.869  20.892  0.00  0.00    +0.000 F 
ATOM     12  N   UNL     1       4.481   3.977  16.947  0.00  0.00    +0.000 N 
ATOM     13  C   UNL     1       5.224   4.347  15.857  0.00  0.00    +0.000 C 
ATOM     14  O   UNL     1       5.484   3.544  14.965  0.00  0.00    +0.000 OA
ATOM     15  C   UNL     1       5.809   5.737  15.896  0.00  0.00    +0.000 C 
ATOM     16  C   UNL     1       4.828   6.759  16.443  0.00  0.00    +0.000 C 
ATOM     17  H   UNL     1       4.210   3.002  16.982  0.00  0.00    +0.000 HD
ENDBRANCH   3   5
BRANCH   1  21
ATOM     18  C   UNL     1      -0.755  10.968  22.500  0.00  0.00    +0.000 A 
ATOM     19  C   UNL     1      -0.586   9.740  23.106  0.00  0.00    +0.000 A 
ATOM     20  C   UNL     1       0.156   8.832  22.296  0.00  0.00    +0.000 A 
ATOM     21  C   UNL     1       0.537   9.389  21.088  0.00  0.00    +0.000 A 
ATOM     22  S   UNL     1      -0.048  10.989  20.942  0.00  0.00    +0.000 S 
BRANCH  18  27
ATOM     23  C   UNL     1      -1.078  15.504  24.223  0.00  0.00    +0.000 C 
ATOM     24  C   UNL     1      -1.615  14.189  23.829  0.00  0.00    +0.000 A 
ATOM     25  C   UNL     1      -2.885  13.668  23.785  0.00  0.00    +0.000 A 
ATOM     26  C   UNL     1      -2.751  12.350  23.294  0.00  0.00    +0.000 A 
ATOM     27  C   UNL     1      -1.403  12.129  23.050  0.00  0.00    +0.000 A 
ATOM     28  O   UNL     1      -0.712  13.264  23.403  0.00  0.00    +0.000 OA
ENDBRANCH  18  27
ENDBRANCH   1  21
TORSDOF 3
ENDMDL
MODEL 5
REMARK VINA RESULT:      -8.0      2.527      9.976
REMARK  Name = 
REMARK  4 active torsions:
REMARK  status: ('A' for Active; 'I' for Inactive)
REMARK    1  A    between atoms: C_1  and  C_2
REMARK    2  A    between atoms: C_5  and  C_6
REMARK    3  A    between atoms: C_9  and  C_10
REMARK    4  A    between atoms: N_12  and  C_13
REMARK                            x       y       z     vdW  Elec       q    Type
REMARK                         _______ _______ _______ _____ _____    ______ ____
ROOT
ATOM      1  C   UNL     1       2.151   6.956  19.891  0.00  0.00    +0.000 C 
ATOM      2  O   UNL     1       1.440   6.500  20.782  0.00  0.00    +0.000 OA
ATOM      3  N   UNL     1       2.038   8.244  19.390  0.00  0.00    +0.000 N 
ATOM      4  H   UNL     1       2.572   8.450  18.551  0.00  0.00    +0.000 HD
ENDROOT
BRANCH   3   5
ATOM      5  C   UNL     1       1.124   9.237  19.795  0.00  0.00    +0.000 A 
ATOM      6  C   UNL     1       0.786   9.472  21.126  0.00  0.00    +0.000 A 
ATOM      7  C   UNL     1      -0.214  10.399  21.454  0.00  0.00    +0.000 A 
ATOM      8  C   UNL     1      -0.895  11.069  20.433  0.00  0.00    +0.000 A 
ATOM      9  C   UNL     1      -0.524  10.895  19.102  0.00  0.00    +0.000 A 
ATOM     10  C   UNL     1       0.495   9.995  18.800  0.00  0.00    +0.000 A 
ATOM     11  F   UNL     1       0.835   9.809  17.513  0.00  0.00    +0.000 F 
ATOM     12  N   UNL     1      -2.004  11.858  20.748  0.00  0.00    +0.000 N 
ATOM     13  C   UNL     1      -2.409  12.127  22.029  0.00  0.00    +0.000 C 
ATOM     14  O   UNL     1      -3.492  12.660  22.252  0.00  0.00    +0.000 OA
ATOM     15  C   UNL     1      -1.396  11.858  23.114  0.00  0.00    +0.000 C 
ATOM     16  C   UNL     1      -0.639  10.562  22.886  0.00  0.00    +0.000 C 
ATOM     17  H   UNL     1      -2.630  12.170  20.016  0.00  0.00    +0.000 HD
ENDBRANCH   3   5
BRANCH   1  21
ATOM     18  C   UNL     1       4.807   5.135  17.670  0.00  0.00    +0.000 A 
ATOM     19  C   UNL     1       4.623   4.361  18.798  0.00  0.00    +0.000 A 
ATOM     20  C   UNL     1       3.677   4.930  19.700  0.00  0.00    +0.000 A 
ATOM     21  C   UNL     1       3.161   6.128  19.239  0.00  0.00    +0.000 A 
ATOM     22  S   UNL     1       3.862   6.560  17.742  0.00  0.00    +0.000 S 
BRANCH  18  27
ATOM     23  C   UNL     1       5.848   3.633  13.164  0.00  0.00    +0.000 C 
ATOM     24  C   UNL     1       6.175   4.183  14.493  0.00  0.00    +0.000 A 
ATOM     25  C   UNL     1       7.337   4.652  15.055  0.00  0.00    +0.000 A 
ATOM     26  C   UNL     1       7.000   5.065  16.363  0.00  0.00    +0.000 A 
ATOM     27  C   UNL     1       5.642   4.839  16.537  0.00  0.00    +0.000 A 
ATOM     28  O   UNL     1       5.150   4.276  15.383  0.00  0.00    +0.000 OA
ENDBRANCH  18  27
ENDBRANCH   1  21
TORSDOF 3
ENDMDL
MODEL 6
REMARK VINA RESULT:      -8.0      1.081      1.234
REMARK  Name = 
REMARK  4 active torsions:
REMARK  status: ('A' for Active; 'I' for Inactive)
REMARK    1  A    between atoms: C_1  and  C_2
REMARK    2  A    between atoms: C_5  and  C_6
REMARK    3  A    between atoms: C_9  and  C_10
REMARK    4  A    between atoms: N_12  and  C_13
REMARK                            x       y       z     vdW  Elec       q    Type
REMARK                         _______ _______ _______ _____ _____    ______ ____
ROOT
ATOM      1  C   UNL     1       1.839   8.317  19.105  0.00  0.00    +0.000 C 
ATOM      2  O   UNL     1       1.911   8.836  17.994  0.00  0.00    +0.000 OA
ATOM      3  N   UNL     1       2.413   7.097  19.431  0.00  0.00    +0.000 N 
ATOM      4  H   UNL     1       2.151   6.702  20.330  0.00  0.00    +0.000 HD
ENDROOT
BRANCH   3   5
ATOM      5  C   UNL     1       3.160   6.255  18.584  0.00  0.00    +0.000 A 
ATOM      6  C   UNL     1       4.373   6.626  18.007  0.00  0.00    +0.000 A 
ATOM      7  C   UNL     1       5.010   5.785  17.084  0.00  0.00    +0.000 A 
ATOM      8  C   UNL     1       4.407   4.577  16.722  0.00  0.00    +0.000 A 
ATOM      9  C   UNL     1       3.229   4.160  17.337  0.00  0.00    +0.000 A 
ATOM     10  C   UNL     1       2.629   4.996  18.277  0.00  0.00    +0.000 A 
ATOM     11  F   UNL     1       1.480   4.604  18.852  0.00  0.00    +0.000 F 
ATOM     12  N   UNL     1       4.950   3.823  15.679  0.00  0.00    +0.000 N 
ATOM     13  C   UNL     1       6.129   4.127  15.051  0.00  0.00    +0.000 C 
ATOM     14  O   UNL     1       6.466   3.550  14.021  0.00  0.00    +0.000 OA
ATOM     15  C   UNL     1       7.032   5.096  15.774  0.00  0.00    +0.000 C 
ATOM     16  C   UNL     1       6.261   6.248  16.394  0.00  0.00    +0.000 C 
ATOM     17  H   UNL     1       4.414   3.070  15.264  0.00  0.00    +0.000 HD
ENDBRANCH   3   5
BRANCH   1  21
ATOM     18  C   UNL     1      -0.423  10.383  21.537  0.00  0.00    +0.000 A 
ATOM     19  C   UNL     1       0.294   9.492  22.310  0.00  0.00    +0.000 A 
ATOM     20  C   UNL     1       1.155   8.666  21.530  0.00  0.00    +0.000 A 
ATOM     21  C   UNL     1       1.075   8.946  20.177  0.00  0.00    +0.000 A 
ATOM     22  S   UNL     1      -0.072  10.176  19.875  0.00  0.00    +0.000 S 
BRANCH  18  27
ATOM     23  C   UNL     1      -3.758  13.899  21.134  0.00  0.00    +0.000 C 
ATOM     24  C   UNL     1      -2.867  12.988  21.877  0.00  0.00    +0.000 A 
ATOM     25  C   UNL     1      -2.670  12.751  23.215  0.00  0.00    +0.000 A 
ATOM     26  C   UNL     1      -1.689  11.738  23.293  0.00  0.00    +0.000 A 
ATOM     27  C   UNL     1      -1.338  11.393  21.995  0.00  0.00    +0.000 A 
ATOM     28  O   UNL     1      -2.057  12.186  21.132  0.00  0.00    +0.000 OA
ENDBRANCH  18  27
ENDBRANCH   1  21
TORSDOF 3
ENDMDL
MODEL 7
REMARK VINA RESULT:      -8.0      2.735     10.262
REMARK  Name = 
REMARK  4 active torsions:
REMARK  status: ('A' for Active; 'I' for Inactive)
REMARK    1  A    between atoms: C_1  and  C_2
REMARK    2  A    between atoms: C_5  and  C_6
REMARK    3  A    between atoms: C_9  and  C_10
REMARK    4  A    between atoms: N_12  and  C_13
REMARK                            x       y       z     vdW  Elec       q    Type
REMARK                         _______ _______ _______ _____ _____    ______ ____
ROOT
ATOM      1  C   UNL     1       3.129   6.387  18.874  0.00  0.00    +0.000 C 
ATOM      2  O   UNL     1       3.105   6.014  20.044  0.00  0.00    +0.000 OA
ATOM      3  N   UNL     1       2.542   7.558  18.419  0.00  0.00    +0.000 N 
ATOM      4  H   UNL     1       2.492   7.676  17.412  0.00  0.00    +0.000 HD
ENDROOT
BRANCH   3   5
ATOM      5  C   UNL     1       1.838   8.509  19.185  0.00  0.00    +0.000 A 
ATOM      6  C   UNL     1       1.338   8.251  20.460  0.00  0.00    +0.000 A 
ATOM      7  C   UNL     1       0.549   9.202  21.122  0.00  0.00    +0.000 A 
ATOM      8  C   UNL     1       0.239  10.406  20.482  0.00  0.00    +0.000 A 
ATOM      9  C   UNL     1       0.784  10.707  19.237  0.00  0.00    +0.000 A 
ATOM     10  C   UNL     1       1.593   9.763  18.610  0.00  0.00    +0.000 A 
ATOM     11  F   UNL     1       2.099  10.044  17.398  0.00  0.00    +0.000 F 
ATOM     12  N   UNL     1      -0.685  11.276  21.065  0.00  0.00    +0.000 N 
ATOM     13  C   UNL     1      -1.232  11.088  22.308  0.00  0.00    +0.000 C 
ATOM     14  O   UNL     1      -2.177  11.770  22.694  0.00  0.00    +0.000 OA
ATOM     15  C   UNL     1      -0.519  10.104  23.202  0.00  0.00    +0.000 C 
ATOM     16  C   UNL     1      -0.068   8.865  22.449  0.00  0.00    +0.000 C 
ATOM     17  H   UNL     1      -1.080  12.035  20.524  0.00  0.00    +0.000 HD
ENDBRANCH   3   5
BRANCH   1  21
ATOM     18  C   UNL     1       5.013   4.728  15.874  0.00  0.00    +0.000 A 
ATOM     19  C   UNL     1       4.311   3.727  16.513  0.00  0.00    +0.000 A 
ATOM     20  C   UNL     1       3.585   4.208  17.642  0.00  0.00    +0.000 A 
ATOM     21  C   UNL     1       3.751   5.567  17.839  0.00  0.00    +0.000 A 
ATOM     22  S   UNL     1       4.815   6.227  16.675  0.00  0.00    +0.000 S 
BRANCH  18  27
ATOM     23  C   UNL     1       8.606   5.793  12.774  0.00  0.00    +0.000 C 
ATOM     24  C   UNL     1       7.425   5.038  13.236  0.00  0.00    +0.000 A 
ATOM     25  C   UNL     1       6.748   3.954  12.733  0.00  0.00    +0.000 A 
ATOM     26  C   UNL     1       5.708   3.683  13.650  0.00  0.00    +0.000 A 
ATOM     27  C   UNL     1       5.803   4.610  14.678  0.00  0.00    +0.000 A 
ATOM     28  O   UNL     1       6.854   5.452  14.400  0.00  0.00    +0.000 OA
ENDBRANCH  18  27
ENDBRANCH   1  21
TORSDOF 3
ENDMDL
MODEL 8
REMARK VINA RESULT:      -7.8      1.446      1.652
REMARK  Name = 
REMARK  4 active torsions:
REMARK  status: ('A' for Active; 'I' for Inactive)
REMARK    1  A    between atoms: C_1  and  C_2
REMARK    2  A    between atoms: C_5  and  C_6
REMARK    3  A    between atoms: C_9  and  C_10
REMARK    4  A    between atoms: N_12  and  C_13
REMARK                            x       y       z     vdW  Elec       q    Type
REMARK                         _______ _______ _______ _____ _____    ______ ____
ROOT
ATOM      1  C   UNL     1       1.383   9.570  18.500  0.00  0.00    +0.000 C 
ATOM      2  O   UNL     1       1.915   9.938  17.457  0.00  0.00    +0.000 OA
ATOM      3  N   UNL     1       1.650   8.360  19.123  0.00  0.00    +0.000 N 
ATOM      4  H   UNL     1       1.034   8.101  19.889  0.00  0.00    +0.000 HD
ENDROOT
BRANCH   3   5
ATOM      5  C   UNL     1       2.549   7.363  18.696  0.00  0.00    +0.000 A 
ATOM      6  C   UNL     1       3.458   7.544  17.654  0.00  0.00    +0.000 A 
ATOM      7  C   UNL     1       4.247   6.476  17.204  0.00  0.00    +0.000 A 
ATOM      8  C   UNL     1       4.097   5.214  17.788  0.00  0.00    +0.000 A 
ATOM      9  C   UNL     1       3.243   5.032  18.871  0.00  0.00    +0.000 A 
ATOM     10  C   UNL     1       2.493   6.114  19.326  0.00  0.00    +0.000 A 
ATOM     11  F   UNL     1       1.650   5.931  20.356  0.00  0.00    +0.000 F 
ATOM     12  N   UNL     1       4.753   4.116  17.226  0.00  0.00    +0.000 N 
ATOM     13  C   UNL     1       5.650   4.207  16.194  0.00  0.00    +0.000 C 
ATOM     14  O   UNL     1       6.050   3.204  15.612  0.00  0.00    +0.000 OA
ATOM     15  C   UNL     1       6.207   5.583  15.923  0.00  0.00    +0.000 C 
ATOM     16  C   UNL     1       5.143   6.663  16.013  0.00  0.00    +0.000 C 
ATOM     17  H   UNL     1       4.490   3.176  17.496  0.00  0.00    +0.000 HD
ENDBRANCH   3   5
BRANCH   1  21
ATOM     18  C   UNL     1      -0.996  11.718  20.742  0.00  0.00    +0.000 A 
ATOM     19  C   UNL     1      -1.640  11.528  19.536  0.00  0.00    +0.000 A 
ATOM     20  C   UNL     1      -0.861  10.762  18.619  0.00  0.00    +0.000 A 
ATOM     21  C   UNL     1       0.360  10.385  19.148  0.00  0.00    +0.000 A 
ATOM     22  S   UNL     1       0.557  11.000  20.731  0.00  0.00    +0.000 S 
BRANCH  18  27
ATOM     23  C   UNL     1      -4.087  12.607  24.390  0.00  0.00    +0.000 C 
ATOM     24  C   UNL     1      -2.868  12.836  23.592  0.00  0.00    +0.000 A 
ATOM     25  C   UNL     1      -1.805  13.696  23.727  0.00  0.00    +0.000 A 
ATOM     26  C   UNL     1      -0.938  13.419  22.647  0.00  0.00    +0.000 A 
ATOM     27  C   UNL     1      -1.507  12.393  21.905  0.00  0.00    +0.000 A 
ATOM     28  O   UNL     1      -2.706  12.058  22.487  0.00  0.00    +0.000 OA
ENDBRANCH  18  27
ENDBRANCH   1  21
TORSDOF 3
ENDMDL
MODEL 9
REMARK VINA RESULT:      -7.7      2.693      3.677
REMARK  Name = 
REMARK  4 active torsions:
REMARK  status: ('A' for Active; 'I' for Inactive)
REMARK    1  A    between atoms: C_1  and  C_2
REMARK    2  A    between atoms: C_5  and  C_6
REMARK    3  A    between atoms: C_9  and  C_10
REMARK    4  A    between atoms: N_12  and  C_13
REMARK                            x       y       z     vdW  Elec       q    Type
REMARK                         _______ _______ _______ _____ _____    ______ ____
ROOT
ATOM      1  C   UNL     1       0.022  10.228  20.377  0.00  0.00    +0.000 C 
ATOM      2  O   UNL     1      -0.858   9.851  19.608  0.00  0.00    +0.000 OA
ATOM      3  N   UNL     1       1.187   9.519  20.632  0.00  0.00    +0.000 N 
ATOM      4  H   UNL     1       1.759   9.854  21.402  0.00  0.00    +0.000 HD
ENDROOT
BRANCH   3   5
ATOM      5  C   UNL     1       1.568   8.281  20.077  0.00  0.00    +0.000 A 
ATOM      6  C   UNL     1       1.540   7.081  20.785  0.00  0.00    +0.000 A 
ATOM      7  C   UNL     1       2.039   5.903  20.210  0.00  0.00    +0.000 A 
ATOM      8  C   UNL     1       2.594   5.944  18.927  0.00  0.00    +0.000 A 
ATOM      9  C   UNL     1       2.570   7.120  18.182  0.00  0.00    +0.000 A 
ATOM     10  C   UNL     1       2.039   8.271  18.758  0.00  0.00    +0.000 A 
ATOM     11  F   UNL     1       2.039   9.411  18.047  0.00  0.00    +0.000 F 
ATOM     12  N   UNL     1       3.246   4.815  18.424  0.00  0.00    +0.000 N 
ATOM     13  C   UNL     1       3.275   3.603  19.063  0.00  0.00    +0.000 C 
ATOM     14  O   UNL     1       4.016   2.703  18.679  0.00  0.00    +0.000 OA
ATOM     15  C   UNL     1       2.255   3.407  20.157  0.00  0.00    +0.000 C 
ATOM     16  C   UNL     1       2.097   4.643  21.025  0.00  0.00    +0.000 C 
ATOM     17  H   UNL     1       3.833   4.892  17.603  0.00  0.00    +0.000 HD
ENDBRANCH   3   5
BRANCH   1  21
ATOM     18  C   UNL     1      -0.819  13.230  22.738  0.00  0.00    +0.000 A 
ATOM     19  C   UNL     1       0.093  13.690  21.809  0.00  0.00    +0.000 A 
ATOM     20  C   UNL     1       0.491  12.675  20.890  0.00  0.00    +0.000 A 
ATOM     21  C   UNL     1      -0.128  11.462  21.140  0.00  0.00    +0.000 A 
ATOM     22  S   UNL     1      -1.147  11.567  22.507  0.00  0.00    +0.000 S 
BRANCH  18  27
ATOM     23  C   UNL     1      -1.141  16.395  26.417  0.00  0.00    +0.000 C 
ATOM     24  C   UNL     1      -1.679  15.431  25.438  0.00  0.00    +0.000 A 
ATOM     25  C   UNL     1      -2.951  15.005  25.142  0.00  0.00    +0.000 A 
ATOM     26  C   UNL     1      -2.817  14.081  24.082  0.00  0.00    +0.000 A 
ATOM     27  C   UNL     1      -1.467  13.992  23.771  0.00  0.00    +0.000 A 
ATOM     28  O   UNL     1      -0.775  14.815  24.628  0.00  0.00    +0.000 OA
ENDBRANCH  18  27
ENDBRANCH   1  21
TORSDOF 3
ENDMDL
