MODEL 1
REMARK VINA RESULT:      -8.6      0.000      0.000
REMARK  Name = 
REMARK  4 active torsions:
REMARK  status: ('A' for Active; 'I' for Inactive)
REMARK    1  A    between atoms: C_1  and  C_2
REMARK    2  A    between atoms: C_9  and  N_10
REMARK    3  A    between atoms: C_11  and  C_13
REMARK    4  A    between atoms: C_15  and  C_16
REMARK                            x       y       z     vdW  Elec       q    Type
REMARK                         _______ _______ _______ _____ _____    ______ ____
ROOT
ATOM      1  N   UNL     1       2.673   7.234  18.739  0.00  0.00    +0.000 N 
ATOM      2  C   UNL     1       2.099   8.444  18.390  0.00  0.00    +0.000 C 
ATOM      3  O   UNL     1       2.151   8.948  17.272  0.00  0.00    +0.000 OA
ATOM      4  H   UNL     1       2.468   6.855  19.664  0.00  0.00    +0.000 HD
ENDROOT
BRANCH   1  13
ATOM      5  C   UNL     1       0.718   2.790  19.711  0.00  0.00    +0.000 C 
ATOM      6  C   UNL     1       1.818   3.226  18.792  0.00  0.00    +0.000 A 
ATOM      7  C   UNL     1       2.505   2.296  18.023  0.00  0.00    +0.000 A 
ATOM      8  C   UNL     1       3.531   2.743  17.201  0.00  0.00    +0.000 A 
ATOM      9  C   UNL     1       3.855   4.103  17.168  0.00  0.00    +0.000 A 
ATOM     10  C   UNL     1       4.894   4.573  16.350  0.00  0.00    +0.000 A 
ATOM     11  C   UNL     1       5.213   5.925  16.332  0.00  0.00    +0.000 A 
ATOM     12  C   UNL     1       4.492   6.817  17.121  0.00  0.00    +0.000 A 
ATOM     13  C   UNL     1       3.444   6.361  17.928  0.00  0.00    +0.000 A 
ATOM     14  C   UNL     1       3.115   4.994  17.976  0.00  0.00    +0.000 A 
ATOM     15  N   UNL     1       2.111   4.551  18.773  0.00  0.00    +0.000 NA
ENDBRANCH   1  13
BRANCH   2  16
ATOM     16  C   UNL     1       1.372   9.082  19.463  0.00  0.00    +0.000 A 
ATOM     17  C   UNL     1       0.522  10.166  19.479  0.00  0.00    +0.000 A 
ATOM     18  C   UNL     1       0.076  10.265  20.825  0.00  0.00    +0.000 A 
ATOM     19  N   UNL     1       0.678   9.329  21.574  0.00  0.00    +0.000 NA
ATOM     20  O   UNL     1       1.473   8.592  20.726  0.00  0.00    +0.000 OA
BRANCH  18  21
ATOM     21  C   UNL     1      -0.909  11.180  21.401  0.00  0.00    +0.000 A 
ATOM     22  C   UNL     1      -1.621  12.083  20.598  0.00  0.00    +0.000 A 
ATOM     23  C   UNL     1      -2.619  12.890  21.154  0.00  0.00    +0.000 A 
ATOM     24  C   UNL     1      -2.908  12.810  22.515  0.00  0.00    +0.000 A 
ATOM     25  C   UNL     1      -2.195  11.932  23.327  0.00  0.00    +0.000 A 
ATOM     26  C   UNL     1      -1.201  11.122  22.772  0.00  0.00    +0.000 A 
ENDBRANCH  18  21
ENDBRANCH   2  16
TORSDOF 3
ENDMDL
MODEL 2
REMARK VINA RESULT:      -8.4      3.846      9.465
REMARK  Name = 
REMARK  4 active torsions:
REMARK  status: ('A' for Active; 'I' for Inactive)
REMARK    1  A    between atoms: C_1  and  C_2
REMARK    2  A    between atoms: C_9  and  N_10
REMARK    3  A    between atoms: C_11  and  C_13
REMARK    4  A    between atoms: C_15  and  C_16
REMARK                            x       y       z     vdW  Elec       q    Type
REMARK                         _______ _______ _______ _____ _____    ______ ____
ROOT
ATOM      1  N   UNL     1       4.127   6.175  16.940  0.00  0.00    +0.000 N 
ATOM      2  C   UNL     1       5.476   6.391  16.717  0.00  0.00    +0.000 C 
ATOM      3  O   UNL     1       6.192   7.122  17.396  0.00  0.00    +0.000 OA
ATOM      4  H   UNL     1       3.659   5.458  16.386  0.00  0.00    +0.000 HD
ENDROOT
BRANCH   1  13
ATOM      5  C   UNL     1       3.415   2.430  20.099  0.00  0.00    +0.000 C 
ATOM      6  C   UNL     1       2.953   3.856  20.108  0.00  0.00    +0.000 A 
ATOM      7  C   UNL     1       2.157   4.333  21.140  0.00  0.00    +0.000 A 
ATOM      8  C   UNL     1       1.735   5.655  21.096  0.00  0.00    +0.000 A 
ATOM      9  C   UNL     1       2.109   6.471  20.023  0.00  0.00    +0.000 A 
ATOM     10  C   UNL     1       1.687   7.807  19.956  0.00  0.00    +0.000 A 
ATOM     11  C   UNL     1       2.058   8.605  18.882  0.00  0.00    +0.000 A 
ATOM     12  C   UNL     1       2.860   8.078  17.873  0.00  0.00    +0.000 A 
ATOM     13  C   UNL     1       3.300   6.752  17.937  0.00  0.00    +0.000 A 
ATOM     14  C   UNL     1       2.921   5.920  19.007  0.00  0.00    +0.000 A 
ATOM     15  N   UNL     1       3.334   4.629  19.059  0.00  0.00    +0.000 NA
ENDBRANCH   1  13
BRANCH   2  16
ATOM     16  C   UNL     1       6.018   5.637  15.610  0.00  0.00    +0.000 A 
ATOM     17  C   UNL     1       5.467   4.668  14.801  0.00  0.00    +0.000 A 
ATOM     18  C   UNL     1       6.480   4.357  13.854  0.00  0.00    +0.000 A 
ATOM     19  N   UNL     1       7.591   5.061  14.128  0.00  0.00    +0.000 NA
ATOM     20  O   UNL     1       7.298   5.859  15.210  0.00  0.00    +0.000 OA
BRANCH  18  21
ATOM     21  C   UNL     1       6.417   3.459  12.702  0.00  0.00    +0.000 A 
ATOM     22  C   UNL     1       7.583   3.013  12.062  0.00  0.00    +0.000 A 
ATOM     23  C   UNL     1       7.505   2.087  11.016  0.00  0.00    +0.000 A 
ATOM     24  C   UNL     1       6.267   1.608  10.593  0.00  0.00    +0.000 A 
ATOM     25  C   UNL     1       5.101   2.059  11.206  0.00  0.00    +0.000 A 
ATOM     26  C   UNL     1       5.176   2.979  12.254  0.00  0.00    +0.000 A 
ENDBRANCH  18  21
ENDBRANCH   2  16
TORSDOF 3
ENDMDL
MODEL 3
REMARK VINA RESULT:      -8.4      5.577      8.000
REMARK  Name = 
REMARK  4 active torsions:
REMARK  status: ('A' for Active; 'I' for Inactive)
REMARK    1  A    between atoms: C_1  and  C_2
REMARK    2  A    between atoms: C_9  and  N_10
REMARK    3  A    between atoms: C_11  and  C_13
REMARK    4  A    between atoms: C_15  and  C_16
REMARK                            x       y       z     vdW  Elec       q    Type
REMARK                         _______ _______ _______ _____ _____    ______ ____
ROOT
ATOM      1  N   UNL     1       6.956   7.216  16.945  0.00  0.00    +0.000 N 
ATOM      2  C   UNL     1       7.776   7.471  18.031  0.00  0.00    +0.000 C 
ATOM      3  O   UNL     1       8.156   6.627  18.837  0.00  0.00    +0.000 OA
ATOM      4  H   UNL     1       6.800   7.970  16.276  0.00  0.00    +0.000 HD
ENDROOT
BRANCH   1  13
ATOM      5  C   UNL     1       2.557   7.314  19.214  0.00  0.00    +0.000 C 
ATOM      6  C   UNL     1       3.197   6.311  18.304  0.00  0.00    +0.000 A 
ATOM      7  C   UNL     1       2.535   5.138  17.969  0.00  0.00    +0.000 A 
ATOM      8  C   UNL     1       3.175   4.227  17.140  0.00  0.00    +0.000 A 
ATOM      9  C   UNL     1       4.463   4.501  16.667  0.00  0.00    +0.000 A 
ATOM     10  C   UNL     1       5.130   3.590  15.834  0.00  0.00    +0.000 A 
ATOM     11  C   UNL     1       6.412   3.868  15.378  0.00  0.00    +0.000 A 
ATOM     12  C   UNL     1       7.033   5.061  15.741  0.00  0.00    +0.000 A 
ATOM     13  C   UNL     1       6.370   5.983  16.559  0.00  0.00    +0.000 A 
ATOM     14  C   UNL     1       5.079   5.714  17.047  0.00  0.00    +0.000 A 
ATOM     15  N   UNL     1       4.445   6.601  17.854  0.00  0.00    +0.000 NA
ENDBRANCH   1  13
BRANCH   2  16
ATOM     16  C   UNL     1       8.204   8.847  18.135  0.00  0.00    +0.000 A 
ATOM     17  C   UNL     1       9.207   9.444  18.868  0.00  0.00    +0.000 A 
ATOM     18  C   UNL     1       9.169  10.815  18.496  0.00  0.00    +0.000 A 
ATOM     19  N   UNL     1       8.159  11.027  17.638  0.00  0.00    +0.000 NA
ATOM     20  O   UNL     1       7.569   9.804  17.409  0.00  0.00    +0.000 OA
BRANCH  18  21
ATOM     21  C   UNL     1      10.064  11.901  18.896  0.00  0.00    +0.000 A 
ATOM     22  C   UNL     1       9.793  12.689  20.023  0.00  0.00    +0.000 A 
ATOM     23  C   UNL     1      10.705  13.666  20.439  0.00  0.00    +0.000 A 
ATOM     24  C   UNL     1      11.886  13.872  19.728  0.00  0.00    +0.000 A 
ATOM     25  C   UNL     1      12.156  13.109  18.595  0.00  0.00    +0.000 A 
ATOM     26  C   UNL     1      11.250  12.130  18.182  0.00  0.00    +0.000 A 
ENDBRANCH  18  21
ENDBRANCH   2  16
TORSDOF 3
ENDMDL
MODEL 4
REMARK VINA RESULT:      -8.1      2.379      8.682
REMARK  Name = 
REMARK  4 active torsions:
REMARK  status: ('A' for Active; 'I' for Inactive)
REMARK    1  A    between atoms: C_1  and  C_2
REMARK    2  A    between atoms: C_9  and  N_10
REMARK    3  A    between atoms: C_11  and  C_13
REMARK    4  A    between atoms: C_15  and  C_16
REMARK                            x       y       z     vdW  Elec       q    Type
REMARK                         _______ _______ _______ _____ _____    ______ ____
ROOT
ATOM      1  N   UNL     1      -0.084   9.729  19.389  0.00  0.00    +0.000 N 
ATOM      2  C   UNL     1       1.170   9.905  18.830  0.00  0.00    +0.000 C 
ATOM      3  O   UNL     1       1.659  10.991  18.531  0.00  0.00    +0.000 OA
ATOM      4  H   UNL     1      -0.341   8.795  19.705  0.00  0.00    +0.000 HD
ENDROOT
BRANCH   1  13
ATOM      5  C   UNL     1      -3.043   9.651  15.420  0.00  0.00    +0.000 C 
ATOM      6  C   UNL     1      -3.083  10.446  16.689  0.00  0.00    +0.000 A 
ATOM      7  C   UNL     1      -4.086  11.382  16.905  0.00  0.00    +0.000 A 
ATOM      8  C   UNL     1      -4.072  12.111  18.086  0.00  0.00    +0.000 A 
ATOM      9  C   UNL     1      -3.056  11.898  19.024  0.00  0.00    +0.000 A 
ATOM     10  C   UNL     1      -3.019  12.630  20.221  0.00  0.00    +0.000 A 
ATOM     11  C   UNL     1      -2.001  12.416  21.140  0.00  0.00    +0.000 A 
ATOM     12  C   UNL     1      -1.019  11.465  20.878  0.00  0.00    +0.000 A 
ATOM     13  C   UNL     1      -1.055  10.718  19.695  0.00  0.00    +0.000 A 
ATOM     14  C   UNL     1      -2.067  10.931  18.740  0.00  0.00    +0.000 A 
ATOM     15  N   UNL     1      -2.090  10.218  17.586  0.00  0.00    +0.000 NA
ENDBRANCH   1  13
BRANCH   2  16
ATOM     16  C   UNL     1       1.912   8.678  18.650  0.00  0.00    +0.000 A 
ATOM     17  C   UNL     1       2.581   8.161  17.563  0.00  0.00    +0.000 A 
ATOM     18  C   UNL     1       3.163   6.951  18.030  0.00  0.00    +0.000 A 
ATOM     19  N   UNL     1       2.805   6.737  19.306  0.00  0.00    +0.000 NA
ATOM     20  O   UNL     1       2.039   7.813  19.690  0.00  0.00    +0.000 OA
BRANCH  18  21
ATOM     21  C   UNL     1       4.057   6.031  17.328  0.00  0.00    +0.000 A 
ATOM     22  C   UNL     1       3.958   4.643  17.506  0.00  0.00    +0.000 A 
ATOM     23  C   UNL     1       4.764   3.776  16.761  0.00  0.00    +0.000 A 
ATOM     24  C   UNL     1       5.682   4.284  15.843  0.00  0.00    +0.000 A 
ATOM     25  C   UNL     1       5.804   5.661  15.674  0.00  0.00    +0.000 A 
ATOM     26  C   UNL     1       4.996   6.528  16.412  0.00  0.00    +0.000 A 
ENDBRANCH  18  21
ENDBRANCH   2  16
TORSDOF 3
ENDMDL
MODEL 5
REMARK VINA RESULT:      -8.1      2.061      8.387
REMARK  Name = 
REMARK  4 active torsions:
REMARK  status: ('A' for Active; 'I' for Inactive)
REMARK    1  A    between atoms: C_1  and  C_2
REMARK    2  A    between atoms: C_9  and  N_10
REMARK    3  A    between atoms: C_11  and  C_13
REMARK    4  A    between atoms: C_15  and  C_16
REMARK                            x       y       z     vdW  Elec       q    Type
REMARK                         _______ _______ _______ _____ _____    ______ ____
ROOT
ATOM      1  N   UNL     1       0.965   9.298  19.417  0.00  0.00    +0.000 N 
ATOM      2  C   UNL     1       1.872   9.263  18.372  0.00  0.00    +0.000 C 
ATOM      3  O   UNL     1       2.167  10.224  17.667  0.00  0.00    +0.000 OA
ATOM      4  H   UNL     1       0.884   8.472  20.009  0.00  0.00    +0.000 HD
ENDROOT
BRANCH   1  13
ATOM      5  C   UNL     1      -2.660   9.524  16.052  0.00  0.00    +0.000 C 
ATOM      6  C   UNL     1      -2.379  10.331  17.284  0.00  0.00    +0.000 A 
ATOM      7  C   UNL     1      -3.215  11.377  17.649  0.00  0.00    +0.000 A 
ATOM      8  C   UNL     1      -2.903  12.110  18.786  0.00  0.00    +0.000 A 
ATOM      9  C   UNL     1      -1.764  11.790  19.531  0.00  0.00    +0.000 A 
ATOM     10  C   UNL     1      -1.427  12.523  20.679  0.00  0.00    +0.000 A 
ATOM     11  C   UNL     1      -0.288  12.202  21.406  0.00  0.00    +0.000 A 
ATOM     12  C   UNL     1       0.517  11.142  20.998  0.00  0.00    +0.000 A 
ATOM     13  C   UNL     1       0.183  10.394  19.864  0.00  0.00    +0.000 A 
ATOM     14  C   UNL     1      -0.956  10.713  19.102  0.00  0.00    +0.000 A 
ATOM     15  N   UNL     1      -1.269   9.998  17.993  0.00  0.00    +0.000 NA
ENDBRANCH   1  13
BRANCH   2  16
ATOM     16  C   UNL     1       2.504   7.978  18.183  0.00  0.00    +0.000 A 
ATOM     17  C   UNL     1       2.250   6.740  18.732  0.00  0.00    +0.000 A 
ATOM     18  C   UNL     1       3.172   5.861  18.101  0.00  0.00    +0.000 A 
ATOM     19  N   UNL     1       3.968   6.554  17.272  0.00  0.00    +0.000 NA
ATOM     20  O   UNL     1       3.545   7.864  17.318  0.00  0.00    +0.000 OA
BRANCH  18  21
ATOM     21  C   UNL     1       3.295   4.410  18.233  0.00  0.00    +0.000 A 
ATOM     22  C   UNL     1       4.155   3.836  19.180  0.00  0.00    +0.000 A 
ATOM     23  C   UNL     1       4.195   2.447  19.350  0.00  0.00    +0.000 A 
ATOM     24  C   UNL     1       3.388   1.621  18.569  0.00  0.00    +0.000 A 
ATOM     25  C   UNL     1       2.546   2.178  17.611  0.00  0.00    +0.000 A 
ATOM     26  C   UNL     1       2.500   3.564  17.444  0.00  0.00    +0.000 A 
ENDBRANCH  18  21
ENDBRANCH   2  16
TORSDOF 3
ENDMDL
MODEL 6
REMARK VINA RESULT:      -8.0      4.832      7.687
REMARK  Name = 
REMARK  4 active torsions:
REMARK  status: ('A' for Active; 'I' for Inactive)
REMARK    1  A    between atoms: C_1  and  C_2
REMARK    2  A    between atoms: C_9  and  N_10
REMARK    3  A    between atoms: C_11  and  C_13
REMARK    4  A    between atoms: C_15  and  C_16
REMARK                            x       y       z     vdW  Elec       q    Type
REMARK                         _______ _______ _______ _____ _____    ______ ____
ROOT
ATOM      1  N   UNL     1       5.607   6.203  17.856  0.00  0.00    +0.000 N 
ATOM      2  C   UNL     1       6.983   6.277  17.734  0.00  0.00    +0.000 C 
ATOM      3  O   UNL     1       7.719   5.326  17.487  0.00  0.00    +0.000 OA
ATOM      4  H   UNL     1       5.085   7.074  17.945  0.00  0.00    +0.000 HD
ENDROOT
BRANCH   1  13
ATOM      5  C   UNL     1       1.867   7.274  20.919  0.00  0.00    +0.000 C 
ATOM      6  C   UNL     1       2.142   6.089  20.043  0.00  0.00    +0.000 A 
ATOM      7  C   UNL     1       1.261   5.018  20.007  0.00  0.00    +0.000 A 
ATOM      8  C   UNL     1       1.567   3.932  19.197  0.00  0.00    +0.000 A 
ATOM      9  C   UNL     1       2.747   3.935  18.446  0.00  0.00    +0.000 A 
ATOM     10  C   UNL     1       3.078   2.845  17.626  0.00  0.00    +0.000 A 
ATOM     11  C   UNL     1       4.257   2.854  16.892  0.00  0.00    +0.000 A 
ATOM     12  C   UNL     1       5.107   3.955  16.962  0.00  0.00    +0.000 A 
ATOM     13  C   UNL     1       4.779   5.054  17.763  0.00  0.00    +0.000 A 
ATOM     14  C   UNL     1       3.599   5.058  18.530  0.00  0.00    +0.000 A 
ATOM     15  N   UNL     1       3.291   6.117  19.319  0.00  0.00    +0.000 NA
ENDBRANCH   1  13
BRANCH   2  16
ATOM     16  C   UNL     1       7.516   7.612  17.883  0.00  0.00    +0.000 A 
ATOM     17  C   UNL     1       8.472   8.130  18.729  0.00  0.00    +0.000 A 
ATOM     18  C   UNL     1       8.601   9.494  18.348  0.00  0.00    +0.000 A 
ATOM     19  N   UNL     1       7.724   9.779  17.373  0.00  0.00    +0.000 NA
ATOM     20  O   UNL     1       7.061   8.609  17.080  0.00  0.00    +0.000 OA
BRANCH  18  21
ATOM     21  C   UNL     1       9.535  10.503  18.848  0.00  0.00    +0.000 A 
ATOM     22  C   UNL     1       9.576  10.845  20.207  0.00  0.00    +0.000 A 
ATOM     23  C   UNL     1      10.534  11.749  20.680  0.00  0.00    +0.000 A 
ATOM     24  C   UNL     1      11.448  12.327  19.800  0.00  0.00    +0.000 A 
ATOM     25  C   UNL     1      11.403  12.011  18.445  0.00  0.00    +0.000 A 
ATOM     26  C   UNL     1      10.452  11.104  17.973  0.00  0.00    +0.000 A 
ENDBRANCH  18  21
ENDBRANCH   2  16
TORSDOF 3
ENDMDL
MODEL 7
REMARK VINA RESULT:      -8.0      1.719      8.335
REMARK  Name = 
REMARK  4 active torsions:
REMARK  status: ('A' for Active; 'I' for Inactive)
REMARK    1  A    between atoms: C_1  and  C_2
REMARK    2  A    between atoms: C_9  and  N_10
REMARK    3  A    between atoms: C_11  and  C_13
REMARK    4  A    between atoms: C_15  and  C_16
REMARK                            x       y       z     vdW  Elec       q    Type
REMARK                         _______ _______ _______ _____ _____    ______ ____
ROOT
ATOM      1  N   UNL     1       0.615   9.281  18.714  0.00  0.00    +0.000 N 
ATOM      2  C   UNL     1       1.845   9.312  18.079  0.00  0.00    +0.000 C 
ATOM      3  O   UNL     1       2.376  10.322  17.626  0.00  0.00    +0.000 OA
ATOM      4  H   UNL     1       0.325   8.409  19.154  0.00  0.00    +0.000 HD
ENDROOT
BRANCH   1  13
ATOM      5  C   UNL     1       0.260   9.408  23.651  0.00  0.00    +0.000 C 
ATOM      6  C   UNL     1      -0.349  10.257  22.576  0.00  0.00    +0.000 A 
ATOM      7  C   UNL     1      -1.204  11.301  22.901  0.00  0.00    +0.000 A 
ATOM      8  C   UNL     1      -1.763  12.047  21.871  0.00  0.00    +0.000 A 
ATOM      9  C   UNL     1      -1.462  11.733  20.542  0.00  0.00    +0.000 A 
ATOM     10  C   UNL     1      -2.021  12.471  19.487  0.00  0.00    +0.000 A 
ATOM     11  C   UNL     1      -1.723  12.145  18.170  0.00  0.00    +0.000 A 
ATOM     12  C   UNL     1      -0.857  11.089  17.898  0.00  0.00    +0.000 A 
ATOM     13  C   UNL     1      -0.281  10.357  18.942  0.00  0.00    +0.000 A 
ATOM     14  C   UNL     1      -0.584  10.658  20.283  0.00  0.00    +0.000 A 
ATOM     15  N   UNL     1      -0.038   9.936  21.294  0.00  0.00    +0.000 NA
ENDBRANCH   1  13
BRANCH   2  16
ATOM     16  C   UNL     1       2.507   8.029  18.016  0.00  0.00    +0.000 A 
ATOM     17  C   UNL     1       2.174   6.797  18.535  0.00  0.00    +0.000 A 
ATOM     18  C   UNL     1       3.193   5.917  18.078  0.00  0.00    +0.000 A 
ATOM     19  N   UNL     1       4.110   6.606  17.380  0.00  0.00    +0.000 NA
ATOM     20  O   UNL     1       3.677   7.912  17.335  0.00  0.00    +0.000 OA
BRANCH  18  21
ATOM     21  C   UNL     1       3.302   4.469  18.251  0.00  0.00    +0.000 A 
ATOM     22  C   UNL     1       4.110   3.916  19.255  0.00  0.00    +0.000 A 
ATOM     23  C   UNL     1       4.134   2.532  19.460  0.00  0.00    +0.000 A 
ATOM     24  C   UNL     1       3.364   1.690  18.660  0.00  0.00    +0.000 A 
ATOM     25  C   UNL     1       2.574   2.226  17.647  0.00  0.00    +0.000 A 
ATOM     26  C   UNL     1       2.543   3.608  17.444  0.00  0.00    +0.000 A 
ENDBRANCH  18  21
ENDBRANCH   2  16
TORSDOF 3
ENDMDL
MODEL 8
REMARK VINA RESULT:      -7.9      5.306      7.390
REMARK  Name = 
REMARK  4 active torsions:
REMARK  status: ('A' for Active; 'I' for Inactive)
REMARK    1  A    between atoms: C_1  and  C_2
REMARK    2  A    between atoms: C_9  and  N_10
REMARK    3  A    between atoms: C_11  and  C_13
REMARK    4  A    between atoms: C_15  and  C_16
REMARK                            x       y       z     vdW  Elec       q    Type
REMARK                         _______ _______ _______ _____ _____    ______ ____
ROOT
ATOM      1  N   UNL     1       7.042   7.213  16.995  0.00  0.00    +0.000 N 
ATOM      2  C   UNL     1       7.853   7.404  18.099  0.00  0.00    +0.000 C 
ATOM      3  O   UNL     1       8.198   6.520  18.878  0.00  0.00    +0.000 OA
ATOM      4  H   UNL     1       6.916   7.994  16.352  0.00  0.00    +0.000 HD
ENDROOT
BRANCH   1  13
ATOM      5  C   UNL     1       2.659   7.304  19.296  0.00  0.00    +0.000 C 
ATOM      6  C   UNL     1       3.271   6.330  18.336  0.00  0.00    +0.000 A 
ATOM      7  C   UNL     1       2.580   5.189  17.952  0.00  0.00    +0.000 A 
ATOM      8  C   UNL     1       3.195   4.303  17.077  0.00  0.00    +0.000 A 
ATOM      9  C   UNL     1       4.486   4.570  16.609  0.00  0.00    +0.000 A 
ATOM     10  C   UNL     1       5.127   3.684  15.729  0.00  0.00    +0.000 A 
ATOM     11  C   UNL     1       6.412   3.954  15.278  0.00  0.00    +0.000 A 
ATOM     12  C   UNL     1       7.062   5.114  15.692  0.00  0.00    +0.000 A 
ATOM     13  C   UNL     1       6.426   6.013  16.556  0.00  0.00    +0.000 A 
ATOM     14  C   UNL     1       5.131   5.750  17.040  0.00  0.00    +0.000 A 
ATOM     15  N   UNL     1       4.522   6.613  17.891  0.00  0.00    +0.000 NA
ENDBRANCH   1  13
BRANCH   2  16
ATOM     16  C   UNL     1       8.320   8.762  18.260  0.00  0.00    +0.000 A 
ATOM     17  C   UNL     1       8.085   9.906  17.529  0.00  0.00    +0.000 A 
ATOM     18  C   UNL     1       8.774  10.936  18.226  0.00  0.00    +0.000 A 
ATOM     19  N   UNL     1       9.430  10.416  19.275  0.00  0.00    +0.000 NA
ATOM     20  O   UNL     1       9.138   9.071  19.299  0.00  0.00    +0.000 OA
BRANCH  18  21
ATOM     21  C   UNL     1       8.800  12.372  17.951  0.00  0.00    +0.000 A 
ATOM     22  C   UNL     1       7.618  13.090  17.720  0.00  0.00    +0.000 A 
ATOM     23  C   UNL     1       7.656  14.478  17.544  0.00  0.00    +0.000 A 
ATOM     24  C   UNL     1       8.872  15.158  17.586  0.00  0.00    +0.000 A 
ATOM     25  C   UNL     1      10.054  14.453  17.794  0.00  0.00    +0.000 A 
ATOM     26  C   UNL     1      10.018  13.069  17.976  0.00  0.00    +0.000 A 
ENDBRANCH  18  21
ENDBRANCH   2  16
TORSDOF 3
ENDMDL
MODEL 9
REMARK VINA RESULT:      -7.9      1.968      8.568
REMARK  Name = 
REMARK  4 active torsions:
REMARK  status: ('A' for Active; 'I' for Inactive)
REMARK    1  A    between atoms: C_1  and  C_2
REMARK    2  A    between atoms: C_9  and  N_10
REMARK    3  A    between atoms: C_11  and  C_13
REMARK    4  A    between atoms: C_15  and  C_16
REMARK                            x       y       z     vdW  Elec       q    Type
REMARK                         _______ _______ _______ _____ _____    ______ ____
ROOT
ATOM      1  N   UNL     1       0.916   9.287  19.686  0.00  0.00    +0.000 N 
ATOM      2  C   UNL     1       1.441   8.249  20.437  0.00  0.00    +0.000 C 
ATOM      3  O   UNL     1       1.311   8.125  21.651  0.00  0.00    +0.000 OA
ATOM      4  H   UNL     1       0.985   9.227  18.671  0.00  0.00    +0.000 HD
ENDROOT
BRANCH   1  13
ATOM      5  C   UNL     1      -2.708   9.647  16.332  0.00  0.00    +0.000 C 
ATOM      6  C   UNL     1      -2.397  10.439  17.565  0.00  0.00    +0.000 A 
ATOM      7  C   UNL     1      -3.196  11.512  17.936  0.00  0.00    +0.000 A 
ATOM      8  C   UNL     1      -2.856  12.231  19.074  0.00  0.00    +0.000 A 
ATOM      9  C   UNL     1      -1.726  11.871  19.815  0.00  0.00    +0.000 A 
ATOM     10  C   UNL     1      -1.362  12.589  20.964  0.00  0.00    +0.000 A 
ATOM     11  C   UNL     1      -0.232  12.227  21.686  0.00  0.00    +0.000 A 
ATOM     12  C   UNL     1       0.535  11.141  21.274  0.00  0.00    +0.000 A 
ATOM     13  C   UNL     1       0.172  10.408  20.138  0.00  0.00    +0.000 A 
ATOM     14  C   UNL     1      -0.957  10.768  19.381  0.00  0.00    +0.000 A 
ATOM     15  N   UNL     1      -1.298  10.067  18.270  0.00  0.00    +0.000 NA
ENDBRANCH   1  13
BRANCH   2  16
ATOM     16  C   UNL     1       2.149   7.259  19.658  0.00  0.00    +0.000 A 
ATOM     17  C   UNL     1       2.863   7.353  18.484  0.00  0.00    +0.000 A 
ATOM     18  C   UNL     1       3.373   6.046  18.257  0.00  0.00    +0.000 A 
ATOM     19  N   UNL     1       2.932   5.213  19.213  0.00  0.00    +0.000 NA
ATOM     20  O   UNL     1       2.182   5.969  20.085  0.00  0.00    +0.000 OA
BRANCH  18  21
ATOM     21  C   UNL     1       4.275   5.581  17.204  0.00  0.00    +0.000 A 
ATOM     22  C   UNL     1       4.542   4.216  17.024  0.00  0.00    +0.000 A 
ATOM     23  C   UNL     1       5.339   3.786  15.958  0.00  0.00    +0.000 A 
ATOM     24  C   UNL     1       5.884   4.712  15.070  0.00  0.00    +0.000 A 
ATOM     25  C   UNL     1       5.643   6.071  15.251  0.00  0.00    +0.000 A 
ATOM     26  C   UNL     1       4.843   6.503  16.311  0.00  0.00    +0.000 A 
ENDBRANCH  18  21
ENDBRANCH   2  16
TORSDOF 3
ENDMDL
