MODEL 1
REMARK VINA RESULT:      -8.8      0.000      0.000
REMARK  Name = 
REMARK  8 active torsions:
REMARK  status: ('A' for Active; 'I' for Inactive)
REMARK    1  A    between atoms: C_1  and  C_2
REMARK    2  A    between atoms: C_5  and  N_6
REMARK    3  A    between atoms: C_7  and  C_9
REMARK    4  A    between atoms: C_9  and  N_10
REMARK    5  A    between atoms: C_9  and  C_22
REMARK    6  A    between atoms: N_10  and  C_11
REMARK    7  A    between atoms: C_11  and  C_12
REMARK    8  A    between atoms: N_20  and  C_21
REMARK                            x       y       z     vdW  Elec       q    Type
REMARK                         _______ _______ _______ _____ _____    ______ ____
ROOT
ATOM      1  C   UNL     1       2.746   6.192  18.386  0.00  0.00    +0.000 C 
ENDROOT
BRANCH   1   2
ATOM      2  C   UNL     1       1.974   4.996  18.919  0.00  0.00    +0.000 A 
ATOM      3  C   UNL     1       1.568   3.981  18.035  0.00  0.00    +0.000 A 
ATOM      4  C   UNL     1       1.044   2.780  18.521  0.00  0.00    +0.000 A 
ATOM      5  C   UNL     1       0.920   2.578  19.892  0.00  0.00    +0.000 A 
ATOM      6  C   UNL     1       1.282   3.590  20.780  0.00  0.00    +0.000 A 
ATOM      7  C   UNL     1       1.791   4.798  20.298  0.00  0.00    +0.000 A 
ENDBRANCH   1   2
BRANCH   1   9
ATOM      8  N   UNL     1       1.828   8.478  17.868  0.00  0.00    +0.000 N 
ATOM      9  C   UNL     1       2.183   7.569  18.862  0.00  0.00    +0.000 C 
ATOM     10  O   UNL     1       2.146   7.827  20.070  0.00  0.00    +0.000 OA
ATOM     11  H   UNL     1       2.015   8.225  16.905  0.00  0.00    +0.000 HD
BRANCH   8  16
ATOM     12  C   UNL     1      -0.150  13.761  19.027  0.00  0.00    +0.000 C 
ATOM     13  C   UNL     1       0.406  12.400  18.705  0.00  0.00    +0.000 A 
ATOM     14  C   UNL     1      -0.477  11.321  18.670  0.00  0.00    +0.000 A 
ATOM     15  C   UNL     1      -0.017  10.042  18.368  0.00  0.00    +0.000 A 
ATOM     16  C   UNL     1       1.334   9.785  18.119  0.00  0.00    +0.000 A 
ATOM     17  C   UNL     1       2.221  10.869  18.131  0.00  0.00    +0.000 A 
ATOM     18  C   UNL     1       1.756  12.162  18.432  0.00  0.00    +0.000 A 
ATOM     19 CL   UNL     1       2.913  13.449  18.473  0.00  0.00    +0.000 Cl
ENDBRANCH   8  16
ENDBRANCH   1   9
BRANCH   1  20
ATOM     20  N   UNL     1       4.166   6.167  18.797  0.00  0.00    +0.000 NA
ATOM     21  H   UNL     1       4.229   6.484  19.769  0.00  0.00    +0.000 HD
BRANCH  20  22
ATOM     22  C   UNL     1       4.876   4.912  18.643  0.00  0.00    +0.000 C 
BRANCH  22  23
ATOM     23  C   UNL     1       5.365   4.776  17.228  0.00  0.00    +0.000 A 
ATOM     24  N   UNL     1       4.799   4.029  16.297  0.00  0.00    +0.000 NA
ATOM     25  C   UNL     1       5.564   4.186  15.171  0.00  0.00    +0.000 A 
ATOM     26  C   UNL     1       5.396   3.626  13.896  0.00  0.00    +0.000 A 
ATOM     27  C   UNL     1       6.315   3.940  12.890  0.00  0.00    +0.000 A 
ATOM     28  C   UNL     1       7.389   4.793  13.150  0.00  0.00    +0.000 A 
ATOM     29  C   UNL     1       7.575   5.361  14.417  0.00  0.00    +0.000 A 
ATOM     30  C   UNL     1       6.638   5.041  15.409  0.00  0.00    +0.000 A 
ATOM     31  N   UNL     1       6.491   5.404  16.728  0.00  0.00    +0.000 N 
ATOM     32  C   UNL     1       7.351   6.299  17.464  0.00  0.00    +0.000 C 
ENDBRANCH  22  23
ENDBRANCH  20  22
ENDBRANCH   1  20
TORSDOF 6
ENDMDL
MODEL 2
REMARK VINA RESULT:      -8.6      1.005      1.333
REMARK  Name = 
REMARK  8 active torsions:
REMARK  status: ('A' for Active; 'I' for Inactive)
REMARK    1  A    between atoms: C_1  and  C_2
REMARK    2  A    between atoms: C_5  and  N_6
REMARK    3  A    between atoms: C_7  and  C_9
REMARK    4  A    between atoms: C_9  and  N_10
REMARK    5  A    between atoms: C_9  and  C_22
REMARK    6  A    between atoms: N_10  and  C_11
REMARK    7  A    between atoms: C_11  and  C_12
REMARK    8  A    between atoms: N_20  and  C_21
REMARK                            x       y       z     vdW  Elec       q    Type
REMARK                         _______ _______ _______ _____ _____    ______ ____
ROOT
ATOM      1  C   UNL     1       2.681   6.249  18.278  0.00  0.00    +0.000 C 
ENDROOT
BRANCH   1   2
ATOM      2  C   UNL     1       1.988   5.045  18.893  0.00  0.00    +0.000 A 
ATOM      3  C   UNL     1       1.542   4.001  18.063  0.00  0.00    +0.000 A 
ATOM      4  C   UNL     1       1.092   2.798  18.612  0.00  0.00    +0.000 A 
ATOM      5  C   UNL     1       1.085   2.621  19.993  0.00  0.00    +0.000 A 
ATOM      6  C   UNL     1       1.488   3.660  20.829  0.00  0.00    +0.000 A 
ATOM      7  C   UNL     1       1.922   4.871  20.286  0.00  0.00    +0.000 A 
ENDBRANCH   1   2
BRANCH   1   9
ATOM      8  N   UNL     1       1.847   8.584  17.840  0.00  0.00    +0.000 N 
ATOM      9  C   UNL     1       2.146   7.621  18.801  0.00  0.00    +0.000 C 
ATOM     10  O   UNL     1       2.082   7.825  20.017  0.00  0.00    +0.000 OA
ATOM     11  H   UNL     1       2.053   8.369  16.872  0.00  0.00    +0.000 HD
BRANCH   8  16
ATOM     12  C   UNL     1      -0.059  13.914  18.903  0.00  0.00    +0.000 C 
ATOM     13  C   UNL     1       0.400  12.504  18.645  0.00  0.00    +0.000 A 
ATOM     14  C   UNL     1       1.758  12.286  18.416  0.00  0.00    +0.000 A 
ATOM     15  C   UNL     1       2.236  10.999  18.182  0.00  0.00    +0.000 A 
ATOM     16  C   UNL     1       1.384   9.893  18.137  0.00  0.00    +0.000 A 
ATOM     17  C   UNL     1       0.022  10.104  18.388  0.00  0.00    +0.000 A 
ATOM     18  C   UNL     1      -0.462  11.402  18.630  0.00  0.00    +0.000 A 
ATOM     19 CL   UNL     1      -2.161  11.598  18.889  0.00  0.00    +0.000 Cl
ENDBRANCH   8  16
ENDBRANCH   1   9
BRANCH   1  20
ATOM     20  N   UNL     1       4.136   6.252  18.541  0.00  0.00    +0.000 NA
ATOM     21  H   UNL     1       4.296   6.638  19.476  0.00  0.00    +0.000 HD
BRANCH  20  22
ATOM     22  C   UNL     1       4.832   4.987  18.407  0.00  0.00    +0.000 C 
BRANCH  22  23
ATOM     23  C   UNL     1       5.324   4.825  16.996  0.00  0.00    +0.000 A 
ATOM     24  N   UNL     1       4.739   4.089  16.067  0.00  0.00    +0.000 NA
ATOM     25  C   UNL     1       5.514   4.214  14.944  0.00  0.00    +0.000 A 
ATOM     26  C   UNL     1       5.334   3.649  13.672  0.00  0.00    +0.000 A 
ATOM     27  C   UNL     1       6.268   3.927  12.669  0.00  0.00    +0.000 A 
ATOM     28  C   UNL     1       7.367   4.749  12.928  0.00  0.00    +0.000 A 
ATOM     29  C   UNL     1       7.563   5.320  14.191  0.00  0.00    +0.000 A 
ATOM     30  C   UNL     1       6.613   5.037  15.181  0.00  0.00    +0.000 A 
ATOM     31  N   UNL     1       6.471   5.414  16.496  0.00  0.00    +0.000 N 
ATOM     32  C   UNL     1       7.355   6.288  17.230  0.00  0.00    +0.000 C 
ENDBRANCH  22  23
ENDBRANCH  20  22
ENDBRANCH   1  20
TORSDOF 6
ENDMDL
MODEL 3
REMARK VINA RESULT:      -8.5      1.829      1.973
REMARK  Name = 
REMARK  8 active torsions:
REMARK  status: ('A' for Active; 'I' for Inactive)
REMARK    1  A    between atoms: C_1  and  C_2
REMARK    2  A    between atoms: C_5  and  N_6
REMARK    3  A    between atoms: C_7  and  C_9
REMARK    4  A    between atoms: C_9  and  N_10
REMARK    5  A    between atoms: C_9  and  C_22
REMARK    6  A    between atoms: N_10  and  C_11
REMARK    7  A    between atoms: C_11  and  C_12
REMARK    8  A    between atoms: N_20  and  C_21
REMARK                            x       y       z     vdW  Elec       q    Type
REMARK                         _______ _______ _______ _____ _____    ______ ____
ROOT
ATOM      1  C   UNL     1       3.129   5.957  18.707  0.00  0.00    +0.000 C 
ENDROOT
BRANCH   1   2
ATOM      2  C   UNL     1       2.187   4.845  19.139  0.00  0.00    +0.000 A 
ATOM      3  C   UNL     1       1.661   3.967  18.175  0.00  0.00    +0.000 A 
ATOM      4  C   UNL     1       0.964   2.819  18.561  0.00  0.00    +0.000 A 
ATOM      5  C   UNL     1       0.788   2.533  19.912  0.00  0.00    +0.000 A 
ATOM      6  C   UNL     1       1.271   3.413  20.879  0.00  0.00    +0.000 A 
ATOM      7  C   UNL     1       1.952   4.570  20.496  0.00  0.00    +0.000 A 
ENDBRANCH   1   2
BRANCH   1   9
ATOM      8  N   UNL     1       1.779   7.671  19.963  0.00  0.00    +0.000 N 
ATOM      9  C   UNL     1       2.507   7.386  18.810  0.00  0.00    +0.000 C 
ATOM     10  O   UNL     1       2.615   8.167  17.860  0.00  0.00    +0.000 OA
ATOM     11  H   UNL     1       1.637   6.923  20.631  0.00  0.00    +0.000 HD
BRANCH   8  16
ATOM     12  C   UNL     1      -1.023  12.612  20.914  0.00  0.00    +0.000 C 
ATOM     13  C   UNL     1      -0.289  11.314  20.712  0.00  0.00    +0.000 A 
ATOM     14  C   UNL     1       0.334  11.095  19.484  0.00  0.00    +0.000 A 
ATOM     15  C   UNL     1       1.036   9.915  19.249  0.00  0.00    +0.000 A 
ATOM     16  C   UNL     1       1.119   8.904  20.208  0.00  0.00    +0.000 A 
ATOM     17  C   UNL     1       0.514   9.128  21.451  0.00  0.00    +0.000 A 
ATOM     18  C   UNL     1      -0.191  10.321  21.692  0.00  0.00    +0.000 A 
ATOM     19 CL   UNL     1      -0.952  10.516  23.234  0.00  0.00    +0.000 Cl
ENDBRANCH   8  16
ENDBRANCH   1   9
BRANCH   1  20
ATOM     20  N   UNL     1       4.364   5.990  19.520  0.00  0.00    +0.000 NA
ATOM     21  H   UNL     1       4.101   6.062  20.507  0.00  0.00    +0.000 HD
BRANCH  20  22
ATOM     22  C   UNL     1       5.301   4.897  19.340  0.00  0.00    +0.000 C 
BRANCH  22  23
ATOM     23  C   UNL     1       5.644   4.758  17.883  0.00  0.00    +0.000 A 
ATOM     24  N   UNL     1       5.053   3.932  17.038  0.00  0.00    +0.000 NA
ATOM     25  C   UNL     1       5.673   4.120  15.831  0.00  0.00    +0.000 A 
ATOM     26  C   UNL     1       5.420   3.503  14.596  0.00  0.00    +0.000 A 
ATOM     27  C   UNL     1       6.192   3.866  13.487  0.00  0.00    +0.000 A 
ATOM     28  C   UNL     1       7.203   4.820  13.606  0.00  0.00    +0.000 A 
ATOM     29  C   UNL     1       7.471   5.445  14.831  0.00  0.00    +0.000 A 
ATOM     30  C   UNL     1       6.682   5.075  15.927  0.00  0.00    +0.000 A 
ATOM     31  N   UNL     1       6.646   5.468  17.246  0.00  0.00    +0.000 N 
ATOM     32  C   UNL     1       7.493   6.461  17.860  0.00  0.00    +0.000 C 
ENDBRANCH  22  23
ENDBRANCH  20  22
ENDBRANCH   1  20
TORSDOF 6
ENDMDL
MODEL 4
REMARK VINA RESULT:      -8.4      1.781      1.872
REMARK  Name = 
REMARK  8 active torsions:
REMARK  status: ('A' for Active; 'I' for Inactive)
REMARK    1  A    between atoms: C_1  and  C_2
REMARK    2  A    between atoms: C_5  and  N_6
REMARK    3  A    between atoms: C_7  and  C_9
REMARK    4  A    between atoms: C_9  and  N_10
REMARK    5  A    between atoms: C_9  and  C_22
REMARK    6  A    between atoms: N_10  and  C_11
REMARK    7  A    between atoms: C_11  and  C_12
REMARK    8  A    between atoms: N_20  and  C_21
REMARK                            x       y       z     vdW  Elec       q    Type
REMARK                         _______ _______ _______ _____ _____    ______ ____
ROOT
ATOM      1  C   UNL     1       2.920   5.877  18.882  0.00  0.00    +0.000 C 
ENDROOT
BRANCH   1   2
ATOM      2  C   UNL     1       2.066   4.684  19.276  0.00  0.00    +0.000 A 
ATOM      3  C   UNL     1       1.556   3.834  18.279  0.00  0.00    +0.000 A 
ATOM      4  C   UNL     1       0.947   2.624  18.617  0.00  0.00    +0.000 A 
ATOM      5  C   UNL     1       0.841   2.246  19.953  0.00  0.00    +0.000 A 
ATOM      6  C   UNL     1       1.307   3.095  20.955  0.00  0.00    +0.000 A 
ATOM      7  C   UNL     1       1.901   4.314  20.622  0.00  0.00    +0.000 A 
ENDBRANCH   1   2
BRANCH   1   9
ATOM      8  N   UNL     1       1.839   7.508  20.466  0.00  0.00    +0.000 N 
ATOM      9  C   UNL     1       2.242   7.258  19.157  0.00  0.00    +0.000 C 
ATOM     10  O   UNL     1       2.024   8.027  18.215  0.00  0.00    +0.000 OA
ATOM     11  H   UNL     1       1.945   6.764  21.146  0.00  0.00    +0.000 HD
BRANCH   8  16
ATOM     12  C   UNL     1      -0.714  12.362  22.225  0.00  0.00    +0.000 C 
ATOM     13  C   UNL     1      -0.050  11.109  21.721  0.00  0.00    +0.000 A 
ATOM     14  C   UNL     1      -0.026   9.994  22.559  0.00  0.00    +0.000 A 
ATOM     15  C   UNL     1       0.566   8.807  22.138  0.00  0.00    +0.000 A 
ATOM     16  C   UNL     1       1.179   8.692  20.887  0.00  0.00    +0.000 A 
ATOM     17  C   UNL     1       1.138   9.802  20.033  0.00  0.00    +0.000 A 
ATOM     18  C   UNL     1       0.536  11.000  20.456  0.00  0.00    +0.000 A 
ATOM     19 CL   UNL     1       0.558  12.346  19.368  0.00  0.00    +0.000 Cl
ENDBRANCH   8  16
ENDBRANCH   1   9
BRANCH   1  20
ATOM     20  N   UNL     1       4.209   5.905  19.606  0.00  0.00    +0.000 NA
ATOM     21  H   UNL     1       4.018   6.034  20.605  0.00  0.00    +0.000 HD
BRANCH  20  22
ATOM     22  C   UNL     1       5.095   4.772  19.418  0.00  0.00    +0.000 C 
BRANCH  22  23
ATOM     23  C   UNL     1       5.498   4.677  17.973  0.00  0.00    +0.000 A 
ATOM     24  N   UNL     1       4.893   3.933  17.063  0.00  0.00    +0.000 NA
ATOM     25  C   UNL     1       5.581   4.133  15.896  0.00  0.00    +0.000 A 
ATOM     26  C   UNL     1       5.347   3.593  14.622  0.00  0.00    +0.000 A 
ATOM     27  C   UNL     1       6.193   3.952  13.568  0.00  0.00    +0.000 A 
ATOM     28  C   UNL     1       7.259   4.828  13.778  0.00  0.00    +0.000 A 
ATOM     29  C   UNL     1       7.509   5.376  15.042  0.00  0.00    +0.000 A 
ATOM     30  C   UNL     1       6.646   5.012  16.083  0.00  0.00    +0.000 A 
ATOM     31  N   UNL     1       6.573   5.345  17.417  0.00  0.00    +0.000 N 
ATOM     32  C   UNL     1       7.455   6.248  18.116  0.00  0.00    +0.000 C 
ENDBRANCH  22  23
ENDBRANCH  20  22
ENDBRANCH   1  20
TORSDOF 6
ENDMDL
MODEL 5
REMARK VINA RESULT:      -8.4      1.896      2.232
REMARK  Name = 
REMARK  8 active torsions:
REMARK  status: ('A' for Active; 'I' for Inactive)
REMARK    1  A    between atoms: C_1  and  C_2
REMARK    2  A    between atoms: C_5  and  N_6
REMARK    3  A    between atoms: C_7  and  C_9
REMARK    4  A    between atoms: C_9  and  N_10
REMARK    5  A    between atoms: C_9  and  C_22
REMARK    6  A    between atoms: N_10  and  C_11
REMARK    7  A    between atoms: C_11  and  C_12
REMARK    8  A    between atoms: N_20  and  C_21
REMARK                            x       y       z     vdW  Elec       q    Type
REMARK                         _______ _______ _______ _____ _____    ______ ____
ROOT
ATOM      1  C   UNL     1       3.244   5.768  18.144  0.00  0.00    +0.000 C 
ENDROOT
BRANCH   1   2
ATOM      2  C   UNL     1       2.555   4.679  18.950  0.00  0.00    +0.000 A 
ATOM      3  C   UNL     1       2.735   4.626  20.344  0.00  0.00    +0.000 A 
ATOM      4  C   UNL     1       1.958   3.773  21.131  0.00  0.00    +0.000 A 
ATOM      5  C   UNL     1       0.992   2.965  20.539  0.00  0.00    +0.000 A 
ATOM      6  C   UNL     1       0.827   2.978  19.155  0.00  0.00    +0.000 A 
ATOM      7  C   UNL     1       1.614   3.817  18.362  0.00  0.00    +0.000 A 
ENDBRANCH   1   2
BRANCH   1   9
ATOM      8  N   UNL     1       1.853   7.333  19.541  0.00  0.00    +0.000 N 
ATOM      9  C   UNL     1       2.758   7.212  18.489  0.00  0.00    +0.000 C 
ATOM     10  O   UNL     1       3.124   8.160  17.789  0.00  0.00    +0.000 OA
ATOM     11  H   UNL     1       1.512   6.484  19.974  0.00  0.00    +0.000 HD
BRANCH   8  16
ATOM     12  C   UNL     1      -0.588  12.269  21.231  0.00  0.00    +0.000 C 
ATOM     13  C   UNL     1       0.055  10.967  20.835  0.00  0.00    +0.000 A 
ATOM     14  C   UNL     1       0.583  10.859  19.549  0.00  0.00    +0.000 A 
ATOM     15  C   UNL     1       1.198   9.680  19.135  0.00  0.00    +0.000 A 
ATOM     16  C   UNL     1       1.284   8.562  19.968  0.00  0.00    +0.000 A 
ATOM     17  C   UNL     1       0.775   8.673  21.268  0.00  0.00    +0.000 A 
ATOM     18  C   UNL     1       0.158   9.865  21.689  0.00  0.00    +0.000 A 
ATOM     19 CL   UNL     1      -0.488   9.920  23.294  0.00  0.00    +0.000 Cl
ENDBRANCH   8  16
ENDBRANCH   1   9
BRANCH   1  20
ATOM     20  N   UNL     1       4.708   5.770  18.346  0.00  0.00    +0.000 NA
ATOM     21  H   UNL     1       4.903   6.073  19.305  0.00  0.00    +0.000 HD
BRANCH  20  22
ATOM     22  C   UNL     1       5.415   4.534  18.069  0.00  0.00    +0.000 C 
BRANCH  22  23
ATOM     23  C   UNL     1       5.856   4.513  16.632  0.00  0.00    +0.000 A 
ATOM     24  N   UNL     1       5.419   3.667  15.715  0.00  0.00    +0.000 NA
ATOM     25  C   UNL     1       6.080   3.990  14.560  0.00  0.00    +0.000 A 
ATOM     26  C   UNL     1       5.976   3.413  13.285  0.00  0.00    +0.000 A 
ATOM     27  C   UNL     1       6.760   3.922  12.244  0.00  0.00    +0.000 A 
ATOM     28  C   UNL     1       7.638   4.984  12.469  0.00  0.00    +0.000 A 
ATOM     29  C   UNL     1       7.756   5.571  13.735  0.00  0.00    +0.000 A 
ATOM     30  C   UNL     1       6.957   5.054  14.762  0.00  0.00    +0.000 A 
ATOM     31  N   UNL     1       6.797   5.370  16.092  0.00  0.00    +0.000 N 
ATOM     32  C   UNL     1       7.480   6.425  16.802  0.00  0.00    +0.000 C 
ENDBRANCH  22  23
ENDBRANCH  20  22
ENDBRANCH   1  20
TORSDOF 6
ENDMDL
MODEL 6
REMARK VINA RESULT:      -8.4      2.974      8.196
REMARK  Name = 
REMARK  8 active torsions:
REMARK  status: ('A' for Active; 'I' for Inactive)
REMARK    1  A    between atoms: C_1  and  C_2
REMARK    2  A    between atoms: C_5  and  N_6
REMARK    3  A    between atoms: C_7  and  C_9
REMARK    4  A    between atoms: C_9  and  N_10
REMARK    5  A    between atoms: C_9  and  C_22
REMARK    6  A    between atoms: N_10  and  C_11
REMARK    7  A    between atoms: C_11  and  C_12
REMARK    8  A    between atoms: N_20  and  C_21
REMARK                            x       y       z     vdW  Elec       q    Type
REMARK                         _______ _______ _______ _____ _____    ______ ____
ROOT
ATOM      1  C   UNL     1       3.623   5.533  19.566  0.00  0.00    +0.000 C 
ENDROOT
BRANCH   1   2
ATOM      2  C   UNL     1       2.496   4.513  19.608  0.00  0.00    +0.000 A 
ATOM      3  C   UNL     1       1.971   4.008  18.406  0.00  0.00    +0.000 A 
ATOM      4  C   UNL     1       1.087   2.927  18.413  0.00  0.00    +0.000 A 
ATOM      5  C   UNL     1       0.719   2.335  19.618  0.00  0.00    +0.000 A 
ATOM      6  C   UNL     1       1.202   2.848  20.821  0.00  0.00    +0.000 A 
ATOM      7  C   UNL     1       2.072   3.940  20.819  0.00  0.00    +0.000 A 
ENDBRANCH   1   2
BRANCH   1   9
ATOM      8  N   UNL     1       5.026   4.724  17.639  0.00  0.00    +0.000 N 
ATOM      9  C   UNL     1       4.227   5.748  18.142  0.00  0.00    +0.000 C 
ATOM     10  O   UNL     1       4.043   6.821  17.559  0.00  0.00    +0.000 OA
ATOM     11  H   UNL     1       5.224   3.936  18.244  0.00  0.00    +0.000 HD
BRANCH   8  16
ATOM     12  C   UNL     1       7.736   4.759  12.557  0.00  0.00    +0.000 C 
ATOM     13  C   UNL     1       6.987   4.744  13.862  0.00  0.00    +0.000 A 
ATOM     14  C   UNL     1       7.615   5.278  14.987  0.00  0.00    +0.000 A 
ATOM     15  C   UNL     1       6.962   5.299  16.217  0.00  0.00    +0.000 A 
ATOM     16  C   UNL     1       5.681   4.766  16.380  0.00  0.00    +0.000 A 
ATOM     17  C   UNL     1       5.037   4.248  15.249  0.00  0.00    +0.000 A 
ATOM     18  C   UNL     1       5.694   4.231  14.005  0.00  0.00    +0.000 A 
ATOM     19 CL   UNL     1       4.858   3.538  12.657  0.00  0.00    +0.000 Cl
ENDBRANCH   8  16
ENDBRANCH   1   9
BRANCH   1  20
ATOM     20  N   UNL     1       3.185   6.867  20.030  0.00  0.00    +0.000 NA
ATOM     21  H   UNL     1       4.010   7.468  20.114  0.00  0.00    +0.000 HD
BRANCH  20  22
ATOM     22  C   UNL     1       2.168   7.537  19.243  0.00  0.00    +0.000 C 
BRANCH  22  23
ATOM     23  C   UNL     1       1.370   8.458  20.123  0.00  0.00    +0.000 A 
ATOM     24  N   UNL     1       0.922   8.158  21.329  0.00  0.00    +0.000 NA
ATOM     25  C   UNL     1       0.246   9.266  21.767  0.00  0.00    +0.000 A 
ATOM     26  C   UNL     1      -0.411   9.482  22.988  0.00  0.00    +0.000 A 
ATOM     27  C   UNL     1      -1.035  10.713  23.213  0.00  0.00    +0.000 A 
ATOM     28  C   UNL     1      -1.013  11.711  22.237  0.00  0.00    +0.000 A 
ATOM     29  C   UNL     1      -0.364  11.513  21.012  0.00  0.00    +0.000 A 
ATOM     30  C   UNL     1       0.263  10.277  20.809  0.00  0.00    +0.000 A 
ATOM     31  N   UNL     1       0.986   9.739  19.768  0.00  0.00    +0.000 N 
ATOM     32  C   UNL     1       1.304  10.398  18.525  0.00  0.00    +0.000 C 
ENDBRANCH  22  23
ENDBRANCH  20  22
ENDBRANCH   1  20
TORSDOF 6
ENDMDL
MODEL 7
REMARK VINA RESULT:      -8.3      2.870      8.311
REMARK  Name = 
REMARK  8 active torsions:
REMARK  status: ('A' for Active; 'I' for Inactive)
REMARK    1  A    between atoms: C_1  and  C_2
REMARK    2  A    between atoms: C_5  and  N_6
REMARK    3  A    between atoms: C_7  and  C_9
REMARK    4  A    between atoms: C_9  and  N_10
REMARK    5  A    between atoms: C_9  and  C_22
REMARK    6  A    between atoms: N_10  and  C_11
REMARK    7  A    between atoms: C_11  and  C_12
REMARK    8  A    between atoms: N_20  and  C_21
REMARK                            x       y       z     vdW  Elec       q    Type
REMARK                         _______ _______ _______ _____ _____    ______ ____
ROOT
ATOM      1  C   UNL     1       2.871   6.303  19.543  0.00  0.00    +0.000 C 
ENDROOT
BRANCH   1   2
ATOM      2  C   UNL     1       2.096   5.008  19.719  0.00  0.00    +0.000 A 
ATOM      3  C   UNL     1       1.565   4.357  18.592  0.00  0.00    +0.000 A 
ATOM      4  C   UNL     1       1.032   3.070  18.697  0.00  0.00    +0.000 A 
ATOM      5  C   UNL     1       1.024   2.417  19.926  0.00  0.00    +0.000 A 
ATOM      6  C   UNL     1       1.512   3.064  21.060  0.00  0.00    +0.000 A 
ATOM      7  C   UNL     1       2.030   4.357  20.963  0.00  0.00    +0.000 A 
ENDBRANCH   1   2
BRANCH   1   9
ATOM      8  N   UNL     1       4.499   5.318  17.896  0.00  0.00    +0.000 N 
ATOM      9  C   UNL     1       3.661   6.389  18.198  0.00  0.00    +0.000 C 
ATOM     10  O   UNL     1       3.577   7.408  17.507  0.00  0.00    +0.000 OA
ATOM     11  H   UNL     1       4.599   4.584  18.586  0.00  0.00    +0.000 HD
BRANCH   8  16
ATOM     12  C   UNL     1       7.857   4.889  13.236  0.00  0.00    +0.000 C 
ATOM     13  C   UNL     1       6.942   4.992  14.426  0.00  0.00    +0.000 A 
ATOM     14  C   UNL     1       7.414   5.647  15.563  0.00  0.00    +0.000 A 
ATOM     15  C   UNL     1       6.604   5.780  16.689  0.00  0.00    +0.000 A 
ATOM     16  C   UNL     1       5.314   5.244  16.736  0.00  0.00    +0.000 A 
ATOM     17  C   UNL     1       4.828   4.605  15.588  0.00  0.00    +0.000 A 
ATOM     18  C   UNL     1       5.643   4.474  14.449  0.00  0.00    +0.000 A 
ATOM     19 CL   UNL     1       4.996   3.635  13.082  0.00  0.00    +0.000 Cl
ENDBRANCH   8  16
ENDBRANCH   1   9
BRANCH   1  20
ATOM     20  N   UNL     1       1.989   7.490  19.574  0.00  0.00    +0.000 NA
ATOM     21  H   UNL     1       1.170   7.302  18.988  0.00  0.00    +0.000 HD
BRANCH  20  22
ATOM     22  C   UNL     1       1.562   7.960  20.878  0.00  0.00    +0.000 C 
BRANCH  22  23
ATOM     23  C   UNL     1       0.693   9.177  20.719  0.00  0.00    +0.000 A 
ATOM     24  N   UNL     1       0.440   9.786  19.574  0.00  0.00    +0.000 NA
ATOM     25  C   UNL     1      -0.377  10.842  19.881  0.00  0.00    +0.000 A 
ATOM     26  C   UNL     1      -0.950  11.800  19.030  0.00  0.00    +0.000 A 
ATOM     27  C   UNL     1      -1.765  12.794  19.581  0.00  0.00    +0.000 A 
ATOM     28  C   UNL     1      -2.000  12.840  20.956  0.00  0.00    +0.000 A 
ATOM     29  C   UNL     1      -1.436  11.893  21.821  0.00  0.00    +0.000 A 
ATOM     30  C   UNL     1      -0.630  10.900  21.249  0.00  0.00    +0.000 A 
ATOM     31  N   UNL     1       0.063   9.828  21.764  0.00  0.00    +0.000 N 
ATOM     32  C   UNL     1       0.116   9.437  23.152  0.00  0.00    +0.000 C 
ENDBRANCH  22  23
ENDBRANCH  20  22
ENDBRANCH   1  20
TORSDOF 6
ENDMDL
MODEL 8
REMARK VINA RESULT:      -8.3      2.967      7.929
REMARK  Name = 
REMARK  8 active torsions:
REMARK  status: ('A' for Active; 'I' for Inactive)
REMARK    1  A    between atoms: C_1  and  C_2
REMARK    2  A    between atoms: C_5  and  N_6
REMARK    3  A    between atoms: C_7  and  C_9
REMARK    4  A    between atoms: C_9  and  N_10
REMARK    5  A    between atoms: C_9  and  C_22
REMARK    6  A    between atoms: N_10  and  C_11
REMARK    7  A    between atoms: C_11  and  C_12
REMARK    8  A    between atoms: N_20  and  C_21
REMARK                            x       y       z     vdW  Elec       q    Type
REMARK                         _______ _______ _______ _____ _____    ______ ____
ROOT
ATOM      1  C   UNL     1       4.243   4.840  19.654  0.00  0.00    +0.000 C 
ENDROOT
BRANCH   1   2
ATOM      2  C   UNL     1       3.035   3.918  19.648  0.00  0.00    +0.000 A 
ATOM      3  C   UNL     1       2.142   3.936  20.734  0.00  0.00    +0.000 A 
ATOM      4  C   UNL     1       0.923   3.258  20.665  0.00  0.00    +0.000 A 
ATOM      5  C   UNL     1       0.580   2.556  19.512  0.00  0.00    +0.000 A 
ATOM      6  C   UNL     1       1.471   2.497  18.443  0.00  0.00    +0.000 A 
ATOM      7  C   UNL     1       2.698   3.159  18.514  0.00  0.00    +0.000 A 
ENDBRANCH   1   2
BRANCH   1   9
ATOM      8  N   UNL     1       4.735   5.105  17.199  0.00  0.00    +0.000 N 
ATOM      9  C   UNL     1       5.194   4.642  18.430  0.00  0.00    +0.000 C 
ATOM     10  O   UNL     1       6.257   4.031  18.578  0.00  0.00    +0.000 OA
ATOM     11  H   UNL     1       3.794   5.479  17.153  0.00  0.00    +0.000 HD
BRANCH   8  16
ATOM     12  C   UNL     1       7.684   4.461  12.294  0.00  0.00    +0.000 C 
ATOM     13  C   UNL     1       6.873   4.623  13.552  0.00  0.00    +0.000 A 
ATOM     14  C   UNL     1       7.469   5.258  14.641  0.00  0.00    +0.000 A 
ATOM     15  C   UNL     1       6.759   5.442  15.825  0.00  0.00    +0.000 A 
ATOM     16  C   UNL     1       5.451   4.979  15.980  0.00  0.00    +0.000 A 
ATOM     17  C   UNL     1       4.840   4.360  14.881  0.00  0.00    +0.000 A 
ATOM     18  C   UNL     1       5.554   4.178  13.683  0.00  0.00    +0.000 A 
ATOM     19 CL   UNL     1       4.755   3.367  12.380  0.00  0.00    +0.000 Cl
ENDBRANCH   8  16
ENDBRANCH   1   9
BRANCH   1  20
ATOM     20  N   UNL     1       3.856   6.267  19.643  0.00  0.00    +0.000 NA
ATOM     21  H   UNL     1       4.634   6.811  19.257  0.00  0.00    +0.000 HD
BRANCH  20  22
ATOM     22  C   UNL     1       2.626   6.612  18.957  0.00  0.00    +0.000 C 
BRANCH  22  23
ATOM     23  C   UNL     1       1.890   7.667  19.733  0.00  0.00    +0.000 A 
ATOM     24  N   UNL     1       1.495   7.550  20.989  0.00  0.00    +0.000 NA
ATOM     25  C   UNL     1       0.862   8.726  21.296  0.00  0.00    +0.000 A 
ATOM     26  C   UNL     1       0.269   9.127  22.503  0.00  0.00    +0.000 A 
ATOM     27  C   UNL     1      -0.320  10.393  22.580  0.00  0.00    +0.000 A 
ATOM     28  C   UNL     1      -0.327  11.243  21.473  0.00  0.00    +0.000 A 
ATOM     29  C   UNL     1       0.258  10.859  20.260  0.00  0.00    +0.000 A 
ATOM     30  C   UNL     1       0.851   9.591  20.205  0.00  0.00    +0.000 A 
ATOM     31  N   UNL     1       1.513   8.894  19.219  0.00  0.00    +0.000 N 
ATOM     32  C   UNL     1       1.783   9.364  17.882  0.00  0.00    +0.000 C 
ENDBRANCH  22  23
ENDBRANCH  20  22
ENDBRANCH   1  20
TORSDOF 6
ENDMDL
MODEL 9
REMARK VINA RESULT:      -8.2      1.645      1.964
REMARK  Name = 
REMARK  8 active torsions:
REMARK  status: ('A' for Active; 'I' for Inactive)
REMARK    1  A    between atoms: C_1  and  C_2
REMARK    2  A    between atoms: C_5  and  N_6
REMARK    3  A    between atoms: C_7  and  C_9
REMARK    4  A    between atoms: C_9  and  N_10
REMARK    5  A    between atoms: C_9  and  C_22
REMARK    6  A    between atoms: N_10  and  C_11
REMARK    7  A    between atoms: C_11  and  C_12
REMARK    8  A    between atoms: N_20  and  C_21
REMARK                            x       y       z     vdW  Elec       q    Type
REMARK                         _______ _______ _______ _____ _____    ______ ____
ROOT
ATOM      1  C   UNL     1       3.002   5.828  18.243  0.00  0.00    +0.000 C 
ENDROOT
BRANCH   1   2
ATOM      2  C   UNL     1       2.438   4.712  19.106  0.00  0.00    +0.000 A 
ATOM      3  C   UNL     1       2.759   4.661  20.474  0.00  0.00    +0.000 A 
ATOM      4  C   UNL     1       2.097   3.777  21.329  0.00  0.00    +0.000 A 
ATOM      5  C   UNL     1       1.107   2.935  20.831  0.00  0.00    +0.000 A 
ATOM      6  C   UNL     1       0.804   2.946  19.470  0.00  0.00    +0.000 A 
ATOM      7  C   UNL     1       1.476   3.817  18.609  0.00  0.00    +0.000 A 
ENDBRANCH   1   2
BRANCH   1   9
ATOM      8  N   UNL     1       1.829   7.366  19.855  0.00  0.00    +0.000 N 
ATOM      9  C   UNL     1       2.479   7.249  18.629  0.00  0.00    +0.000 C 
ATOM     10  O   UNL     1       2.590   8.178  17.822  0.00  0.00    +0.000 OA
ATOM     11  H   UNL     1       1.673   6.521  20.391  0.00  0.00    +0.000 HD
BRANCH   8  16
ATOM     12  C   UNL     1      -0.334  12.309  21.869  0.00  0.00    +0.000 C 
ATOM     13  C   UNL     1       0.216  11.029  21.299  0.00  0.00    +0.000 A 
ATOM     14  C   UNL     1       0.487   9.981  22.179  0.00  0.00    +0.000 A 
ATOM     15  C   UNL     1       0.987   8.772  21.703  0.00  0.00    +0.000 A 
ATOM     16  C   UNL     1       1.263   8.571  20.348  0.00  0.00    +0.000 A 
ATOM     17  C   UNL     1       0.971   9.613  19.458  0.00  0.00    +0.000 A 
ATOM     18  C   UNL     1       0.461  10.833  19.937  0.00  0.00    +0.000 A 
ATOM     19 CL   UNL     1       0.164  12.093  18.789  0.00  0.00    +0.000 Cl
ENDBRANCH   8  16
ENDBRANCH   1   9
BRANCH   1  20
ATOM     20  N   UNL     1       4.477   5.902  18.318  0.00  0.00    +0.000 NA
ATOM     21  H   UNL     1       4.736   6.303  19.224  0.00  0.00    +0.000 HD
BRANCH  20  22
ATOM     22  C   UNL     1       5.210   4.670  18.099  0.00  0.00    +0.000 C 
BRANCH  22  23
ATOM     23  C   UNL     1       5.673   4.602  16.670  0.00  0.00    +0.000 A 
ATOM     24  N   UNL     1       5.163   3.809  15.744  0.00  0.00    +0.000 NA
ATOM     25  C   UNL     1       5.877   4.060  14.601  0.00  0.00    +0.000 A 
ATOM     26  C   UNL     1       5.734   3.498  13.323  0.00  0.00    +0.000 A 
ATOM     27  C   UNL     1       6.587   3.919  12.298  0.00  0.00    +0.000 A 
ATOM     28  C   UNL     1       7.572   4.878  12.542  0.00  0.00    +0.000 A 
ATOM     29  C   UNL     1       7.731   5.448  13.812  0.00  0.00    +0.000 A 
ATOM     30  C   UNL     1       6.861   5.020  14.822  0.00  0.00    +0.000 A 
ATOM     31  N   UNL     1       6.712   5.352  16.150  0.00  0.00    +0.000 N 
ATOM     32  C   UNL     1       7.493   6.324  16.875  0.00  0.00    +0.000 C 
ENDBRANCH  22  23
ENDBRANCH  20  22
ENDBRANCH   1  20
TORSDOF 6
ENDMDL
