MODEL 1
REMARK VINA RESULT:      -9.2      0.000      0.000
REMARK  Name = 
REMARK  6 active torsions:
REMARK  status: ('A' for Active; 'I' for Inactive)
REMARK    1  A    between atoms: C_1  and  C_2
REMARK    2  A    between atoms: C_5  and  C_6
REMARK    3  A    between atoms: C_7  and  N_8
REMARK    4  A    between atoms: C_11  and  C_12
REMARK    5  A    between atoms: N_14  and  C_15
REMARK    6  A    between atoms: C_27  and  C_28
REMARK                            x       y       z     vdW  Elec       q    Type
REMARK                         _______ _______ _______ _____ _____    ______ ____
ROOT
ATOM      1  C   UNL     1       1.524   8.314  19.904  0.00  0.00    +0.000 C 
ATOM      2  O   UNL     1       1.349   8.671  18.743  0.00  0.00    +0.000 OA
ATOM      3  N   UNL     1       2.150   7.124  20.236  0.00  0.00    +0.000 N 
ATOM      4  H   UNL     1       1.986   6.718  21.148  0.00  0.00    +0.000 HD
ENDROOT
BRANCH   3   5
ATOM      5  C   UNL     1       2.793   6.295  19.280  0.00  0.00    +0.000 A 
ATOM      6  C   UNL     1       3.971   6.681  18.632  0.00  0.00    +0.000 A 
ATOM      7  C   UNL     1       4.541   5.869  17.654  0.00  0.00    +0.000 A 
ATOM      8  C   UNL     1       3.944   4.659  17.292  0.00  0.00    +0.000 A 
ATOM      9  C   UNL     1       2.805   4.233  17.989  0.00  0.00    +0.000 A 
ATOM     10  C   UNL     1       2.252   5.043  18.984  0.00  0.00    +0.000 A 
ATOM     11  F   UNL     1       1.164   4.616  19.645  0.00  0.00    +0.000 F 
ATOM     12  C   UNL     1       4.601   3.792  16.253  0.00  0.00    +0.000 C 
ATOM     13  C   UNL     1       5.505   4.588  15.322  0.00  0.00    +0.000 C 
ATOM     14  C   UNL     1       6.371   5.575  16.066  0.00  0.00    +0.000 C 
ATOM     15  O   UNL     1       7.517   5.849  15.720  0.00  0.00    +0.000 OA
ATOM     16  N   UNL     1       5.757   6.251  17.083  0.00  0.00    +0.000 N 
ATOM     17  H   UNL     1       6.274   7.030  17.472  0.00  0.00    +0.000 HD
ENDBRANCH   3   5
BRANCH   1  21
ATOM     18  N   UNL     1      -0.016  10.761  22.138  0.00  0.00    +0.000 N 
ATOM     19  N   UNL     1       0.669  10.045  23.066  0.00  0.00    +0.000 NA
ATOM     20  C   UNL     1       1.269   9.069  22.388  0.00  0.00    +0.000 A 
ATOM     21  C   UNL     1       1.041   9.140  21.004  0.00  0.00    +0.000 A 
ATOM     22  C   UNL     1       0.248  10.278  20.856  0.00  0.00    +0.000 A 
ATOM     23  C   UNL     1      -0.173  10.970  19.599  0.00  0.00    +0.000 C 
BRANCH  18  30
ATOM     24  C   UNL     1      -4.292  12.267  24.107  0.00  0.00    +0.000 C 
ATOM     25  C   UNL     1      -2.978  12.619  23.472  0.00  0.00    +0.000 A 
ATOM     26  C   UNL     1      -2.659  13.930  23.130  0.00  0.00    +0.000 A 
ATOM     27  C   UNL     1      -1.433  14.219  22.524  0.00  0.00    +0.000 A 
ATOM     28  C   UNL     1      -0.511  13.204  22.205  0.00  0.00    +0.000 A 
ATOM     29  C   UNL     1       0.754  13.610  21.498  0.00  0.00    +0.000 C 
ATOM     30  C   UNL     1      -0.845  11.867  22.516  0.00  0.00    +0.000 A 
ATOM     31  C   UNL     1      -2.055  11.608  23.191  0.00  0.00    +0.000 A 
ENDBRANCH  18  30
ENDBRANCH   1  21
TORSDOF 3
ENDMDL
MODEL 2
REMARK VINA RESULT:      -8.9      2.652     10.067
REMARK  Name = 
REMARK  6 active torsions:
REMARK  status: ('A' for Active; 'I' for Inactive)
REMARK    1  A    between atoms: C_1  and  C_2
REMARK    2  A    between atoms: C_5  and  C_6
REMARK    3  A    between atoms: C_7  and  N_8
REMARK    4  A    between atoms: C_11  and  C_12
REMARK    5  A    between atoms: N_14  and  C_15
REMARK    6  A    between atoms: C_27  and  C_28
REMARK                            x       y       z     vdW  Elec       q    Type
REMARK                         _______ _______ _______ _____ _____    ______ ____
ROOT
ATOM      1  C   UNL     1       0.744   9.248  20.286  0.00  0.00    +0.000 C 
ATOM      2  O   UNL     1       0.108   9.741  19.360  0.00  0.00    +0.000 OA
ATOM      3  N   UNL     1       0.810   9.827  21.543  0.00  0.00    +0.000 N 
ATOM      4  H   UNL     1       1.578   9.588  22.157  0.00  0.00    +0.000 HD
ENDROOT
BRANCH   3   5
ATOM      5  C   UNL     1       0.018  10.942  21.922  0.00  0.00    +0.000 A 
ATOM      6  C   UNL     1      -1.167  10.801  22.652  0.00  0.00    +0.000 A 
ATOM      7  C   UNL     1      -1.950  11.913  22.954  0.00  0.00    +0.000 A 
ATOM      8  C   UNL     1      -1.577  13.188  22.527  0.00  0.00    +0.000 A 
ATOM      9  C   UNL     1      -0.354  13.346  21.859  0.00  0.00    +0.000 A 
ATOM     10  C   UNL     1       0.437  12.229  21.579  0.00  0.00    +0.000 A 
ATOM     11  F   UNL     1       1.607  12.400  20.944  0.00  0.00    +0.000 F 
ATOM     12  C   UNL     1      -2.429  14.371  22.894  0.00  0.00    +0.000 C 
ATOM     13  C   UNL     1      -3.872  13.977  23.184  0.00  0.00    +0.000 C 
ATOM     14  C   UNL     1      -3.968  12.742  24.047  0.00  0.00    +0.000 C 
ATOM     15  O   UNL     1      -4.849  12.585  24.887  0.00  0.00    +0.000 OA
ATOM     16  N   UNL     1      -3.086  11.742  23.749  0.00  0.00    +0.000 N 
ATOM     17  H   UNL     1      -3.255  10.853  24.203  0.00  0.00    +0.000 HD
ENDBRANCH   3   5
BRANCH   1  21
ATOM     18  N   UNL     1       2.820   6.464  19.147  0.00  0.00    +0.000 N 
ATOM     19  N   UNL     1       2.387   5.927  20.316  0.00  0.00    +0.000 NA
ATOM     20  C   UNL     1       1.627   6.865  20.877  0.00  0.00    +0.000 A 
ATOM     21  C   UNL     1       1.498   8.016  20.083  0.00  0.00    +0.000 A 
ATOM     22  C   UNL     1       2.236   7.714  18.939  0.00  0.00    +0.000 A 
ATOM     23  C   UNL     1       2.329   8.477  17.655  0.00  0.00    +0.000 C 
BRANCH  18  30
ATOM     24  C   UNL     1       7.304   6.292  17.075  0.00  0.00    +0.000 C 
ATOM     25  C   UNL     1       5.945   5.678  17.243  0.00  0.00    +0.000 A 
ATOM     26  C   UNL     1       5.542   4.578  16.492  0.00  0.00    +0.000 A 
ATOM     27  C   UNL     1       4.261   4.043  16.662  0.00  0.00    +0.000 A 
ATOM     28  C   UNL     1       3.335   4.616  17.555  0.00  0.00    +0.000 A 
ATOM     29  C   UNL     1       1.962   4.003  17.621  0.00  0.00    +0.000 C 
ATOM     30  C   UNL     1       3.726   5.755  18.293  0.00  0.00    +0.000 A 
ATOM     31  C   UNL     1       5.045   6.234  18.157  0.00  0.00    +0.000 A 
ENDBRANCH  18  30
ENDBRANCH   1  21
TORSDOF 3
ENDMDL
MODEL 3
REMARK VINA RESULT:      -8.8      3.561      9.260
REMARK  Name = 
REMARK  6 active torsions:
REMARK  status: ('A' for Active; 'I' for Inactive)
REMARK    1  A    between atoms: C_1  and  C_2
REMARK    2  A    between atoms: C_5  and  C_6
REMARK    3  A    between atoms: C_7  and  N_8
REMARK    4  A    between atoms: C_11  and  C_12
REMARK    5  A    between atoms: N_14  and  C_15
REMARK    6  A    between atoms: C_27  and  C_28
REMARK                            x       y       z     vdW  Elec       q    Type
REMARK                         _______ _______ _______ _____ _____    ______ ____
ROOT
ATOM      1  C   UNL     1       1.173   9.633  20.175  0.00  0.00    +0.000 C 
ATOM      2  O   UNL     1       0.974  10.154  21.268  0.00  0.00    +0.000 OA
ATOM      3  N   UNL     1       0.961  10.297  18.978  0.00  0.00    +0.000 N 
ATOM      4  H   UNL     1       0.817   9.759  18.134  0.00  0.00    +0.000 HD
ENDROOT
BRANCH   3   5
ATOM      5  C   UNL     1       0.660  11.682  18.905  0.00  0.00    +0.000 A 
ATOM      6  C   UNL     1       1.648  12.649  18.689  0.00  0.00    +0.000 A 
ATOM      7  C   UNL     1       1.324  14.004  18.686  0.00  0.00    +0.000 A 
ATOM      8  C   UNL     1       0.012  14.427  18.907  0.00  0.00    +0.000 A 
ATOM      9  C   UNL     1      -0.994  13.461  19.050  0.00  0.00    +0.000 A 
ATOM     10  C   UNL     1      -0.665  12.103  19.031  0.00  0.00    +0.000 A 
ATOM     11  F   UNL     1      -1.642  11.192  19.165  0.00  0.00    +0.000 F 
ATOM     12  C   UNL     1      -0.309  15.896  18.867  0.00  0.00    +0.000 C 
ATOM     13  C   UNL     1       0.908  16.762  19.162  0.00  0.00    +0.000 C 
ATOM     14  C   UNL     1       2.142  16.289  18.431  0.00  0.00    +0.000 C 
ATOM     15  O   UNL     1       2.994  17.059  17.997  0.00  0.00    +0.000 OA
ATOM     16  N   UNL     1       2.323  14.935  18.391  0.00  0.00    +0.000 N 
ATOM     17  H   UNL     1       3.225  14.619  18.058  0.00  0.00    +0.000 HD
ENDBRANCH   3   5
BRANCH   1  21
ATOM     18  N   UNL     1       2.613   6.377  19.353  0.00  0.00    +0.000 N 
ATOM     19  N   UNL     1       1.968   6.028  20.496  0.00  0.00    +0.000 NA
ATOM     20  C   UNL     1       1.409   7.150  20.943  0.00  0.00    +0.000 A 
ATOM     21  C   UNL     1       1.625   8.249  20.095  0.00  0.00    +0.000 A 
ATOM     22  C   UNL     1       2.364   7.713  19.039  0.00  0.00    +0.000 A 
ATOM     23  C   UNL     1       2.745   8.352  17.742  0.00  0.00    +0.000 C 
BRANCH  18  30
ATOM     24  C   UNL     1       7.114   4.879  17.963  0.00  0.00    +0.000 C 
ATOM     25  C   UNL     1       5.626   4.690  17.907  0.00  0.00    +0.000 A 
ATOM     26  C   UNL     1       5.039   3.747  17.069  0.00  0.00    +0.000 A 
ATOM     27  C   UNL     1       3.648   3.612  17.029  0.00  0.00    +0.000 A 
ATOM     28  C   UNL     1       2.804   4.440  17.794  0.00  0.00    +0.000 A 
ATOM     29  C   UNL     1       1.319   4.256  17.636  0.00  0.00    +0.000 C 
ATOM     30  C   UNL     1       3.393   5.424  18.619  0.00  0.00    +0.000 A 
ATOM     31  C   UNL     1       4.798   5.495  18.696  0.00  0.00    +0.000 A 
ENDBRANCH  18  30
ENDBRANCH   1  21
TORSDOF 3
ENDMDL
MODEL 4
REMARK VINA RESULT:      -8.7      3.041     10.015
REMARK  Name = 
REMARK  6 active torsions:
REMARK  status: ('A' for Active; 'I' for Inactive)
REMARK    1  A    between atoms: C_1  and  C_2
REMARK    2  A    between atoms: C_5  and  C_6
REMARK    3  A    between atoms: C_7  and  N_8
REMARK    4  A    between atoms: C_11  and  C_12
REMARK    5  A    between atoms: N_14  and  C_15
REMARK    6  A    between atoms: C_27  and  C_28
REMARK                            x       y       z     vdW  Elec       q    Type
REMARK                         _______ _______ _______ _____ _____    ______ ____
ROOT
ATOM      1  C   UNL     1       0.321  10.130  19.662  0.00  0.00    +0.000 C 
ATOM      2  O   UNL     1      -0.884  10.033  19.454  0.00  0.00    +0.000 OA
ATOM      3  N   UNL     1       0.860  11.071  20.524  0.00  0.00    +0.000 N 
ATOM      4  H   UNL     1       1.831  11.336  20.422  0.00  0.00    +0.000 HD
ENDROOT
BRANCH   3   5
ATOM      5  C   UNL     1       0.066  11.890  21.368  0.00  0.00    +0.000 A 
ATOM      6  C   UNL     1      -1.075  11.406  22.018  0.00  0.00    +0.000 A 
ATOM      7  C   UNL     1      -1.865  12.256  22.789  0.00  0.00    +0.000 A 
ATOM      8  C   UNL     1      -1.543  13.607  22.924  0.00  0.00    +0.000 A 
ATOM      9  C   UNL     1      -0.361  14.081  22.337  0.00  0.00    +0.000 A 
ATOM     10  C   UNL     1       0.438  13.219  21.582  0.00  0.00    +0.000 A 
ATOM     11  F   UNL     1       1.569  13.689  21.032  0.00  0.00    +0.000 F 
ATOM     12  C   UNL     1      -2.400  14.491  23.788  0.00  0.00    +0.000 C 
ATOM     13  C   UNL     1      -3.816  13.951  23.942  0.00  0.00    +0.000 C 
ATOM     14  C   UNL     1      -3.839  12.465  24.208  0.00  0.00    +0.000 C 
ATOM     15  O   UNL     1      -4.671  11.934  24.939  0.00  0.00    +0.000 OA
ATOM     16  N   UNL     1      -2.953  11.720  23.483  0.00  0.00    +0.000 N 
ATOM     17  H   UNL     1      -3.078  10.716  23.527  0.00  0.00    +0.000 HD
ENDBRANCH   3   5
BRANCH   1  21
ATOM     18  N   UNL     1       2.627   7.532  18.528  0.00  0.00    +0.000 N 
ATOM     19  N   UNL     1       2.702   8.352  17.448  0.00  0.00    +0.000 NA
ATOM     20  C   UNL     1       1.865   9.355  17.707  0.00  0.00    +0.000 A 
ATOM     21  C   UNL     1       1.257   9.253  18.969  0.00  0.00    +0.000 A 
ATOM     22  C   UNL     1       1.807   8.090  19.509  0.00  0.00    +0.000 A 
ATOM     23  C   UNL     1       1.683   7.552  20.899  0.00  0.00    +0.000 C 
BRANCH  18  30
ATOM     24  C   UNL     1       6.969   5.294  19.286  0.00  0.00    +0.000 C 
ATOM     25  C   UNL     1       5.515   5.185  18.929  0.00  0.00    +0.000 A 
ATOM     26  C   UNL     1       4.952   3.981  18.517  0.00  0.00    +0.000 A 
ATOM     27  C   UNL     1       3.597   3.920  18.175  0.00  0.00    +0.000 A 
ATOM     28  C   UNL     1       2.779   5.066  18.195  0.00  0.00    +0.000 A 
ATOM     29  C   UNL     1       1.350   4.908  17.750  0.00  0.00    +0.000 C 
ATOM     30  C   UNL     1       3.355   6.298  18.576  0.00  0.00    +0.000 A 
ATOM     31  C   UNL     1       4.703   6.322  18.984  0.00  0.00    +0.000 A 
ENDBRANCH  18  30
ENDBRANCH   1  21
TORSDOF 3
ENDMDL
MODEL 5
REMARK VINA RESULT:      -8.7      1.488      2.026
REMARK  Name = 
REMARK  6 active torsions:
REMARK  status: ('A' for Active; 'I' for Inactive)
REMARK    1  A    between atoms: C_1  and  C_2
REMARK    2  A    between atoms: C_5  and  C_6
REMARK    3  A    between atoms: C_7  and  N_8
REMARK    4  A    between atoms: C_11  and  C_12
REMARK    5  A    between atoms: N_14  and  C_15
REMARK    6  A    between atoms: C_27  and  C_28
REMARK                            x       y       z     vdW  Elec       q    Type
REMARK                         _______ _______ _______ _____ _____    ______ ____
ROOT
ATOM      1  C   UNL     1       1.767   9.250  18.344  0.00  0.00    +0.000 C 
ATOM      2  O   UNL     1       1.848   9.325  17.122  0.00  0.00    +0.000 OA
ATOM      3  N   UNL     1       2.174   8.133  19.055  0.00  0.00    +0.000 N 
ATOM      4  H   UNL     1       1.801   7.974  19.981  0.00  0.00    +0.000 HD
ENDROOT
BRANCH   3   5
ATOM      5  C   UNL     1       2.873   7.050  18.459  0.00  0.00    +0.000 A 
ATOM      6  C   UNL     1       3.973   7.246  17.618  0.00  0.00    +0.000 A 
ATOM      7  C   UNL     1       4.595   6.162  17.001  0.00  0.00    +0.000 A 
ATOM      8  C   UNL     1       4.130   4.861  17.202  0.00  0.00    +0.000 A 
ATOM      9  C   UNL     1       3.076   4.652  18.102  0.00  0.00    +0.000 A 
ATOM     10  C   UNL     1       2.470   5.742  18.733  0.00  0.00    +0.000 A 
ATOM     11  F   UNL     1       1.466   5.521  19.595  0.00  0.00    +0.000 F 
ATOM     12  C   UNL     1       4.844   3.711  16.546  0.00  0.00    +0.000 C 
ATOM     13  C   UNL     1       5.614   4.140  15.304  0.00  0.00    +0.000 C 
ATOM     14  C   UNL     1       6.386   5.419  15.519  0.00  0.00    +0.000 C 
ATOM     15  O   UNL     1       7.478   5.632  15.000  0.00  0.00    +0.000 OA
ATOM     16  N   UNL     1       5.736   6.390  16.229  0.00  0.00    +0.000 N 
ATOM     17  H   UNL     1       6.173   7.304  16.231  0.00  0.00    +0.000 HD
ENDBRANCH   3   5
BRANCH   1  21
ATOM     18  N   UNL     1      -0.225  11.568  20.347  0.00  0.00    +0.000 N 
ATOM     19  N   UNL     1       0.840  12.375  20.107  0.00  0.00    +0.000 NA
ATOM     20  C   UNL     1       1.690  11.636  19.397  0.00  0.00    +0.000 A 
ATOM     21  C   UNL     1       1.198  10.353  19.110  0.00  0.00    +0.000 A 
ATOM     22  C   UNL     1      -0.071  10.347  19.690  0.00  0.00    +0.000 A 
ATOM     23  C   UNL     1      -1.152   9.320  19.569  0.00  0.00    +0.000 C 
BRANCH  18  30
ATOM     24  C   UNL     1      -4.034  14.681  20.826  0.00  0.00    +0.000 C 
ATOM     25  C   UNL     1      -3.205  13.571  21.403  0.00  0.00    +0.000 A 
ATOM     26  C   UNL     1      -3.401  13.112  22.702  0.00  0.00    +0.000 A 
ATOM     27  C   UNL     1      -2.598  12.087  23.213  0.00  0.00    +0.000 A 
ATOM     28  C   UNL     1      -1.553  11.522  22.457  0.00  0.00    +0.000 A 
ATOM     29  C   UNL     1      -0.707  10.467  23.118  0.00  0.00    +0.000 C 
ATOM     30  C   UNL     1      -1.326  12.010  21.151  0.00  0.00    +0.000 A 
ATOM     31  C   UNL     1      -2.192  12.993  20.632  0.00  0.00    +0.000 A 
ENDBRANCH  18  30
ENDBRANCH   1  21
TORSDOF 3
ENDMDL
MODEL 6
REMARK VINA RESULT:      -8.6      2.605      4.126
REMARK  Name = 
REMARK  6 active torsions:
REMARK  status: ('A' for Active; 'I' for Inactive)
REMARK    1  A    between atoms: C_1  and  C_2
REMARK    2  A    between atoms: C_5  and  C_6
REMARK    3  A    between atoms: C_7  and  N_8
REMARK    4  A    between atoms: C_11  and  C_12
REMARK    5  A    between atoms: N_14  and  C_15
REMARK    6  A    between atoms: C_27  and  C_28
REMARK                            x       y       z     vdW  Elec       q    Type
REMARK                         _______ _______ _______ _____ _____    ______ ____
ROOT
ATOM      1  C   UNL     1      -0.584  10.614  19.920  0.00  0.00    +0.000 C 
ATOM      2  O   UNL     1      -1.296   9.942  19.182  0.00  0.00    +0.000 OA
ATOM      3  N   UNL     1       0.702  10.235  20.269  0.00  0.00    +0.000 N 
ATOM      4  H   UNL     1       1.120  10.619  21.107  0.00  0.00    +0.000 HD
ENDROOT
BRANCH   3   5
ATOM      5  C   UNL     1       1.371   9.133  19.675  0.00  0.00    +0.000 A 
ATOM      6  C   UNL     1       1.570   7.927  20.356  0.00  0.00    +0.000 A 
ATOM      7  C   UNL     1       2.286   6.889  19.764  0.00  0.00    +0.000 A 
ATOM      8  C   UNL     1       2.827   7.031  18.485  0.00  0.00    +0.000 A 
ATOM      9  C   UNL     1       2.568   8.208  17.769  0.00  0.00    +0.000 A 
ATOM     10  C   UNL     1       1.831   9.237  18.361  0.00  0.00    +0.000 A 
ATOM     11  F   UNL     1       1.588  10.355  17.659  0.00  0.00    +0.000 F 
ATOM     12  C   UNL     1       3.569   5.880  17.863  0.00  0.00    +0.000 C 
ATOM     13  C   UNL     1       4.131   4.922  18.905  0.00  0.00    +0.000 C 
ATOM     14  C   UNL     1       3.136   4.613  19.998  0.00  0.00    +0.000 C 
ATOM     15  O   UNL     1       3.064   3.514  20.540  0.00  0.00    +0.000 OA
ATOM     16  N   UNL     1       2.399   5.674  20.445  0.00  0.00    +0.000 N 
ATOM     17  H   UNL     1       1.858   5.514  21.286  0.00  0.00    +0.000 HD
ENDBRANCH   3   5
BRANCH   1  21
ATOM     18  N   UNL     1      -1.736  13.390  21.998  0.00  0.00    +0.000 N 
ATOM     19  N   UNL     1      -1.981  13.936  20.779  0.00  0.00    +0.000 NA
ATOM     20  C   UNL     1      -1.568  13.030  19.896  0.00  0.00    +0.000 A 
ATOM     21  C   UNL     1      -1.089  11.854  20.497  0.00  0.00    +0.000 A 
ATOM     22  C   UNL     1      -1.258  12.086  21.862  0.00  0.00    +0.000 A 
ATOM     23  C   UNL     1      -1.094  11.133  23.002  0.00  0.00    +0.000 C 
BRANCH  18  30
ATOM     24  C   UNL     1      -0.056  16.596  25.364  0.00  0.00    +0.000 C 
ATOM     25  C   UNL     1      -1.158  15.692  24.892  0.00  0.00    +0.000 A 
ATOM     26  C   UNL     1      -2.292  15.458  25.662  0.00  0.00    +0.000 A 
ATOM     27  C   UNL     1      -3.290  14.595  25.199  0.00  0.00    +0.000 A 
ATOM     28  C   UNL     1      -3.164  13.912  23.974  0.00  0.00    +0.000 A 
ATOM     29  C   UNL     1      -4.265  12.959  23.592  0.00  0.00    +0.000 C 
ATOM     30  C   UNL     1      -1.997  14.118  23.205  0.00  0.00    +0.000 A 
ATOM     31  C   UNL     1      -1.038  15.045  23.659  0.00  0.00    +0.000 A 
ENDBRANCH  18  30
ENDBRANCH   1  21
TORSDOF 3
ENDMDL
MODEL 7
REMARK VINA RESULT:      -8.6      1.025      1.099
REMARK  Name = 
REMARK  6 active torsions:
REMARK  status: ('A' for Active; 'I' for Inactive)
REMARK    1  A    between atoms: C_1  and  C_2
REMARK    2  A    between atoms: C_5  and  C_6
REMARK    3  A    between atoms: C_7  and  N_8
REMARK    4  A    between atoms: C_11  and  C_12
REMARK    5  A    between atoms: N_14  and  C_15
REMARK    6  A    between atoms: C_27  and  C_28
REMARK                            x       y       z     vdW  Elec       q    Type
REMARK                         _______ _______ _______ _____ _____    ______ ____
ROOT
ATOM      1  C   UNL     1       1.875   8.071  19.087  0.00  0.00    +0.000 C 
ATOM      2  O   UNL     1       1.587   8.291  17.915  0.00  0.00    +0.000 OA
ATOM      3  N   UNL     1       2.630   6.979  19.481  0.00  0.00    +0.000 N 
ATOM      4  H   UNL     1       2.568   6.656  20.438  0.00  0.00    +0.000 HD
ENDROOT
BRANCH   3   5
ATOM      5  C   UNL     1       3.279   6.115  18.561  0.00  0.00    +0.000 A 
ATOM      6  C   UNL     1       4.395   6.518  17.820  0.00  0.00    +0.000 A 
ATOM      7  C   UNL     1       4.968   5.664  16.881  0.00  0.00    +0.000 A 
ATOM      8  C   UNL     1       4.437   4.393  16.651  0.00  0.00    +0.000 A 
ATOM      9  C   UNL     1       3.365   3.956  17.442  0.00  0.00    +0.000 A 
ATOM     10  C   UNL     1       2.809   4.811  18.397  0.00  0.00    +0.000 A 
ATOM     11  F   UNL     1       1.787   4.373  19.149  0.00  0.00    +0.000 F 
ATOM     12  C   UNL     1       5.098   3.485  15.651  0.00  0.00    +0.000 C 
ATOM     13  C   UNL     1       5.900   4.255  14.610  0.00  0.00    +0.000 C 
ATOM     14  C   UNL     1       6.733   5.354  15.224  0.00  0.00    +0.000 C 
ATOM     15  O   UNL     1       7.839   5.669  14.794  0.00  0.00    +0.000 OA
ATOM     16  N   UNL     1       6.126   6.073  16.215  0.00  0.00    +0.000 N 
ATOM     17  H   UNL     1       6.608   6.913  16.511  0.00  0.00    +0.000 HD
ENDBRANCH   3   5
BRANCH   1  21
ATOM     18  N   UNL     1       0.447  10.712  21.170  0.00  0.00    +0.000 N 
ATOM     19  N   UNL     1       0.940   9.922  22.158  0.00  0.00    +0.000 NA
ATOM     20  C   UNL     1       1.475   8.873  21.537  0.00  0.00    +0.000 A 
ATOM     21  C   UNL     1       1.395   8.960  20.138  0.00  0.00    +0.000 A 
ATOM     22  C   UNL     1       0.772  10.189  19.918  0.00  0.00    +0.000 A 
ATOM     23  C   UNL     1       0.568  10.919  18.629  0.00  0.00    +0.000 C 
BRANCH  18  30
ATOM     24  C   UNL     1      -3.879  12.799  22.338  0.00  0.00    +0.000 C 
ATOM     25  C   UNL     1      -2.420  12.961  22.026  0.00  0.00    +0.000 A 
ATOM     26  C   UNL     1      -1.838  14.217  21.884  0.00  0.00    +0.000 A 
ATOM     27  C   UNL     1      -0.479  14.331  21.576  0.00  0.00    +0.000 A 
ATOM     28  C   UNL     1       0.326  13.195  21.362  0.00  0.00    +0.000 A 
ATOM     29  C   UNL     1       1.763  13.424  20.976  0.00  0.00    +0.000 C 
ATOM     30  C   UNL     1      -0.268  11.918  21.469  0.00  0.00    +0.000 A 
ATOM     31  C   UNL     1      -1.621  11.827  21.850  0.00  0.00    +0.000 A 
ENDBRANCH  18  30
ENDBRANCH   1  21
TORSDOF 3
ENDMDL
MODEL 8
REMARK VINA RESULT:      -8.5      2.505      3.447
REMARK  Name = 
REMARK  6 active torsions:
REMARK  status: ('A' for Active; 'I' for Inactive)
REMARK    1  A    between atoms: C_1  and  C_2
REMARK    2  A    between atoms: C_5  and  C_6
REMARK    3  A    between atoms: C_7  and  N_8
REMARK    4  A    between atoms: C_11  and  C_12
REMARK    5  A    between atoms: N_14  and  C_15
REMARK    6  A    between atoms: C_27  and  C_28
REMARK                            x       y       z     vdW  Elec       q    Type
REMARK                         _______ _______ _______ _____ _____    ______ ____
ROOT
ATOM      1  C   UNL     1       1.109   9.588  18.584  0.00  0.00    +0.000 C 
ATOM      2  O   UNL     1       0.736   9.272  17.459  0.00  0.00    +0.000 OA
ATOM      3  N   UNL     1       1.931   8.783  19.355  0.00  0.00    +0.000 N 
ATOM      4  H   UNL     1       1.945   8.908  20.358  0.00  0.00    +0.000 HD
ENDROOT
BRANCH   3   5
ATOM      5  C   UNL     1       2.552   7.608  18.854  0.00  0.00    +0.000 A 
ATOM      6  C   UNL     1       3.473   7.643  17.802  0.00  0.00    +0.000 A 
ATOM      7  C   UNL     1       4.015   6.463  17.296  0.00  0.00    +0.000 A 
ATOM      8  C   UNL     1       3.646   5.223  17.820  0.00  0.00    +0.000 A 
ATOM      9  C   UNL     1       2.780   5.187  18.923  0.00  0.00    +0.000 A 
ATOM     10  C   UNL     1       2.257   6.375  19.438  0.00  0.00    +0.000 A 
ATOM     11  F   UNL     1       1.434   6.321  20.498  0.00  0.00    +0.000 F 
ATOM     12  C   UNL     1       4.272   3.971  17.271  0.00  0.00    +0.000 C 
ATOM     13  C   UNL     1       4.788   4.157  15.850  0.00  0.00    +0.000 C 
ATOM     14  C   UNL     1       5.536   5.456  15.675  0.00  0.00    +0.000 C 
ATOM     15  O   UNL     1       6.507   5.569  14.932  0.00  0.00    +0.000 OA
ATOM     16  N   UNL     1       4.988   6.543  16.297  0.00  0.00    +0.000 N 
ATOM     17  H   UNL     1       5.382   7.441  16.047  0.00  0.00    +0.000 HD
ENDBRANCH   3   5
BRANCH   1  21
ATOM     18  N   UNL     1       0.519  13.026  19.670  0.00  0.00    +0.000 N 
ATOM     19  N   UNL     1      -0.413  12.410  20.441  0.00  0.00    +0.000 NA
ATOM     20  C   UNL     1      -0.339  11.120  20.121  0.00  0.00    +0.000 A 
ATOM     21  C   UNL     1       0.664  10.843  19.178  0.00  0.00    +0.000 A 
ATOM     22  C   UNL     1       1.246  12.087  18.938  0.00  0.00    +0.000 A 
ATOM     23  C   UNL     1       2.482  12.409  18.158  0.00  0.00    +0.000 C 
BRANCH  18  30
ATOM     24  C   UNL     1      -0.707  17.390  17.699  0.00  0.00    +0.000 C 
ATOM     25  C   UNL     1       0.095  16.618  18.706  0.00  0.00    +0.000 A 
ATOM     26  C   UNL     1       1.053  17.234  19.505  0.00  0.00    +0.000 A 
ATOM     27  C   UNL     1       1.795  16.480  20.420  0.00  0.00    +0.000 A 
ATOM     28  C   UNL     1       1.629  15.086  20.533  0.00  0.00    +0.000 A 
ATOM     29  C   UNL     1       2.517  14.356  21.504  0.00  0.00    +0.000 C 
ATOM     30  C   UNL     1       0.684  14.450  19.698  0.00  0.00    +0.000 A 
ATOM     31  C   UNL     1      -0.101  15.240  18.834  0.00  0.00    +0.000 A 
ENDBRANCH  18  30
ENDBRANCH   1  21
TORSDOF 3
ENDMDL
MODEL 9
REMARK VINA RESULT:      -8.5      2.623      9.703
REMARK  Name = 
REMARK  6 active torsions:
REMARK  status: ('A' for Active; 'I' for Inactive)
REMARK    1  A    between atoms: C_1  and  C_2
REMARK    2  A    between atoms: C_5  and  C_6
REMARK    3  A    between atoms: C_7  and  N_8
REMARK    4  A    between atoms: C_11  and  C_12
REMARK    5  A    between atoms: N_14  and  C_15
REMARK    6  A    between atoms: C_27  and  C_28
REMARK                            x       y       z     vdW  Elec       q    Type
REMARK                         _______ _______ _______ _____ _____    ______ ____
ROOT
ATOM      1  C   UNL     1       0.739   9.283  20.317  0.00  0.00    +0.000 C 
ATOM      2  O   UNL     1      -0.006   9.670  19.422  0.00  0.00    +0.000 OA
ATOM      3  N   UNL     1       0.997  10.032  21.453  0.00  0.00    +0.000 N 
ATOM      4  H   UNL     1       1.836   9.846  21.987  0.00  0.00    +0.000 HD
ENDROOT
BRANCH   3   5
ATOM      5  C   UNL     1       0.299  11.228  21.766  0.00  0.00    +0.000 A 
ATOM      6  C   UNL     1       0.623  12.455  21.178  0.00  0.00    +0.000 A 
ATOM      7  C   UNL     1      -0.043  13.619  21.555  0.00  0.00    +0.000 A 
ATOM      8  C   UNL     1      -1.039  13.589  22.533  0.00  0.00    +0.000 A 
ATOM      9  C   UNL     1      -1.419  12.352  23.072  0.00  0.00    +0.000 A 
ATOM     10  C   UNL     1      -0.761  11.186  22.673  0.00  0.00    +0.000 A 
ATOM     11  F   UNL     1      -1.142  10.009  23.196  0.00  0.00    +0.000 F 
ATOM     12  C   UNL     1      -1.759  14.859  22.896  0.00  0.00    +0.000 C 
ATOM     13  C   UNL     1      -0.936  16.101  22.581  0.00  0.00    +0.000 C 
ATOM     14  C   UNL     1      -0.277  16.026  21.225  0.00  0.00    +0.000 C 
ATOM     15  O   UNL     1      -0.120  17.009  20.506  0.00  0.00    +0.000 OA
ATOM     16  N   UNL     1       0.256  14.812  20.892  0.00  0.00    +0.000 N 
ATOM     17  H   UNL     1       0.844  14.798  20.068  0.00  0.00    +0.000 HD
ENDBRANCH   3   5
BRANCH   1  21
ATOM     18  N   UNL     1       2.705   6.342  19.404  0.00  0.00    +0.000 N 
ATOM     19  N   UNL     1       2.142   5.862  20.543  0.00  0.00    +0.000 NA
ATOM     20  C   UNL     1       1.405   6.861  21.022  0.00  0.00    +0.000 A 
ATOM     21  C   UNL     1       1.420   8.000  20.199  0.00  0.00    +0.000 A 
ATOM     22  C   UNL     1       2.227   7.623  19.125  0.00  0.00    +0.000 A 
ATOM     23  C   UNL     1       2.477   8.347  17.841  0.00  0.00    +0.000 C 
BRANCH  18  30
ATOM     24  C   UNL     1       7.407   5.545  18.106  0.00  0.00    +0.000 C 
ATOM     25  C   UNL     1       5.960   5.169  17.976  0.00  0.00    +0.000 A 
ATOM     26  C   UNL     1       5.531   4.221  17.052  0.00  0.00    +0.000 A 
ATOM     27  C   UNL     1       4.172   3.909  16.946  0.00  0.00    +0.000 A 
ATOM     28  C   UNL     1       3.201   4.564  17.729  0.00  0.00    +0.000 A 
ATOM     29  C   UNL     1       1.759   4.200  17.496  0.00  0.00    +0.000 C 
ATOM     30  C   UNL     1       3.628   5.553  18.641  0.00  0.00    +0.000 A 
ATOM     31  C   UNL     1       5.008   5.801  18.781  0.00  0.00    +0.000 A 
ENDBRANCH  18  30
ENDBRANCH   1  21
TORSDOF 3
ENDMDL
