MODEL 1
REMARK VINA RESULT:      -7.1      0.000      0.000
REMARK  Name = 
REMARK  7 active torsions:
REMARK  status: ('A' for Active; 'I' for Inactive)
REMARK    1  A    between atoms: C_1  and  C_2
REMARK    2  A    between atoms: C_2  and  C_3
REMARK    3  A    between atoms: C_5  and  C_6
REMARK    4  A    between atoms: C_6  and  C_7
REMARK    5  A    between atoms: N_11  and  C_12
REMARK    6  A    between atoms: C_14  and  N_15
REMARK    7  A    between atoms: C_22  and  C_23
REMARK                            x       y       z     vdW  Elec       q    Type
REMARK                         _______ _______ _______ _____ _____    ______ ____
ROOT
ATOM      1  C   UNL     1      -2.704  11.458  18.210  0.00  0.00    +0.000 A 
ATOM      2  C   UNL     1      -3.736  11.703  19.130  0.00  0.00    +0.000 A 
ATOM      3  C   UNL     1      -3.584  12.685  20.113  0.00  0.00    +0.000 A 
ATOM      4  C   UNL     1      -2.444  13.492  20.095  0.00  0.00    +0.000 A 
ATOM      5  C   UNL     1      -1.315  13.039  19.409  0.00  0.00    +0.000 A 
ATOM      6  C   UNL     1      -1.480  12.127  18.362  0.00  0.00    +0.000 A 
ENDROOT
BRANCH   5   7
ATOM      7  N   UNL     1      -0.044  13.047  20.134  0.00  0.00    +0.000 N 
ATOM      8  C   UNL     1       0.946  12.148  19.489  0.00  0.00    +0.000 C 
ATOM      9  C   UNL     1       0.792  10.871  20.261  0.00  0.00    +0.000 A 
ATOM     10  C   UNL     1       0.256  11.194  21.509  0.00  0.00    +0.000 A 
ATOM     11  C   UNL     1      -0.170  10.234  22.412  0.00  0.00    +0.000 A 
ATOM     12  C   UNL     1      -0.037   8.898  22.039  0.00  0.00    +0.000 A 
ATOM     13  C   UNL     1       0.519   8.558  20.791  0.00  0.00    +0.000 A 
ATOM     14  C   UNL     1       0.953   9.542  19.879  0.00  0.00    +0.000 A 
ATOM     15  C   UNL     1      -0.117  12.627  21.491  0.00  0.00    +0.000 C 
ATOM     16  O   UNL     1      -0.610  13.210  22.439  0.00  0.00    +0.000 OA
BRANCH  14  17
ATOM     17  C   UNL     1       1.492   9.120  18.535  0.00  0.00    +0.000 C 
ATOM     18  F   UNL     1       2.588   9.821  18.134  0.00  0.00    +0.000 F 
ATOM     19  F   UNL     1       1.869   7.812  18.523  0.00  0.00    +0.000 F 
ATOM     20  F   UNL     1       0.576   9.256  17.539  0.00  0.00    +0.000 F 
ENDBRANCH  14  17
ENDBRANCH   5   7
BRANCH   1  22
ATOM     21  C   UNL     1      -2.840  10.784  15.811  0.00  0.00    +0.000 C 
ATOM     22  C   UNL     1      -2.812  10.294  17.255  0.00  0.00    +0.000 C 
ENDBRANCH   1  22
BRANCH   3  23
ATOM     23  C   UNL     1      -4.352  12.640  21.419  0.00  0.00    +0.000 C 
BRANCH  23  24
ATOM     24  C   UNL     1      -5.823  12.600  21.337  0.00  0.00    +0.000 A 
ATOM     25  N   UNL     1      -6.559  11.518  21.137  0.00  0.00    +0.000 NA
ATOM     26  N   UNL     1      -7.873  11.860  21.307  0.00  0.00    +0.000 NA
ATOM     27  C   UNL     1      -7.917  13.137  21.600  0.00  0.00    +0.000 A 
ATOM     28  N   UNL     1      -6.657  13.649  21.606  0.00  0.00    +0.000 N 
ATOM     29  C   UNL     1      -6.288  15.011  21.873  0.00  0.00    +0.000 C 
ENDBRANCH  23  24
ENDBRANCH   3  23
TORSDOF 5
ENDMDL
MODEL 2
REMARK VINA RESULT:      -7.0      3.748      6.801
REMARK  Name = 
REMARK  7 active torsions:
REMARK  status: ('A' for Active; 'I' for Inactive)
REMARK    1  A    between atoms: C_1  and  C_2
REMARK    2  A    between atoms: C_2  and  C_3
REMARK    3  A    between atoms: C_5  and  C_6
REMARK    4  A    between atoms: C_6  and  C_7
REMARK    5  A    between atoms: N_11  and  C_12
REMARK    6  A    between atoms: C_14  and  N_15
REMARK    7  A    between atoms: C_22  and  C_23
REMARK                            x       y       z     vdW  Elec       q    Type
REMARK                         _______ _______ _______ _____ _____    ______ ____
ROOT
ATOM      1  C   UNL     1      -3.107  11.393  17.557  0.00  0.00    +0.000 A 
ATOM      2  C   UNL     1      -1.931  11.272  18.313  0.00  0.00    +0.000 A 
ATOM      3  C   UNL     1      -1.937  11.570  19.678  0.00  0.00    +0.000 A 
ATOM      4  C   UNL     1      -3.149  11.879  20.300  0.00  0.00    +0.000 A 
ATOM      5  C   UNL     1      -4.217  12.308  19.508  0.00  0.00    +0.000 A 
ATOM      6  C   UNL     1      -4.255  11.928  18.162  0.00  0.00    +0.000 A 
ENDROOT
BRANCH   5   7
ATOM      7  N   UNL     1      -4.887  13.547  19.902  0.00  0.00    +0.000 N 
ATOM      8  C   UNL     1      -4.514  13.942  21.284  0.00  0.00    +0.000 C 
ATOM      9  C   UNL     1      -5.625  13.364  22.109  0.00  0.00    +0.000 A 
ATOM     10  C   UNL     1      -6.734  13.211  21.276  0.00  0.00    +0.000 A 
ATOM     11  C   UNL     1      -7.884  12.549  21.674  0.00  0.00    +0.000 A 
ATOM     12  C   UNL     1      -7.912  12.032  22.967  0.00  0.00    +0.000 A 
ATOM     13  C   UNL     1      -6.807  12.194  23.825  0.00  0.00    +0.000 A 
ATOM     14  C   UNL     1      -5.641  12.874  23.412  0.00  0.00    +0.000 A 
ATOM     15  C   UNL     1      -6.308  13.500  19.887  0.00  0.00    +0.000 C 
ATOM     16  O   UNL     1      -7.055  13.454  18.927  0.00  0.00    +0.000 OA
BRANCH  14  17
ATOM     17  C   UNL     1      -4.469  12.972  24.356  0.00  0.00    +0.000 C 
ATOM     18  F   UNL     1      -4.131  14.248  24.688  0.00  0.00    +0.000 F 
ATOM     19  F   UNL     1      -4.707  12.337  25.536  0.00  0.00    +0.000 F 
ATOM     20  F   UNL     1      -3.341  12.407  23.846  0.00  0.00    +0.000 F 
ENDBRANCH  14  17
ENDBRANCH   5   7
BRANCH   1  22
ATOM     21  C   UNL     1      -2.943   9.747  15.689  0.00  0.00    +0.000 C 
ATOM     22  C   UNL     1      -3.057  11.223  16.059  0.00  0.00    +0.000 C 
ENDBRANCH   1  22
BRANCH   3  23
ATOM     23  C   UNL     1      -0.680  11.992  20.414  0.00  0.00    +0.000 C 
BRANCH  23  24
ATOM     24  C   UNL     1      -0.189  11.099  21.479  0.00  0.00    +0.000 A 
ATOM     25  N   UNL     1      -0.445  11.220  22.772  0.00  0.00    +0.000 NA
ATOM     26  N   UNL     1       0.031  10.105  23.406  0.00  0.00    +0.000 NA
ATOM     27  C   UNL     1       0.571   9.331  22.497  0.00  0.00    +0.000 A 
ATOM     28  N   UNL     1       0.479   9.924  21.277  0.00  0.00    +0.000 N 
ATOM     29  C   UNL     1       0.960   9.397  20.031  0.00  0.00    +0.000 C 
ENDBRANCH  23  24
ENDBRANCH   3  23
TORSDOF 5
ENDMDL
MODEL 3
REMARK VINA RESULT:      -6.8      1.265      1.772
REMARK  Name = 
REMARK  7 active torsions:
REMARK  status: ('A' for Active; 'I' for Inactive)
REMARK    1  A    between atoms: C_1  and  C_2
REMARK    2  A    between atoms: C_2  and  C_3
REMARK    3  A    between atoms: C_5  and  C_6
REMARK    4  A    between atoms: C_6  and  C_7
REMARK    5  A    between atoms: N_11  and  C_12
REMARK    6  A    between atoms: C_14  and  N_15
REMARK    7  A    between atoms: C_22  and  C_23
REMARK                            x       y       z     vdW  Elec       q    Type
REMARK                         _______ _______ _______ _____ _____    ______ ____
ROOT
ATOM      1  C   UNL     1      -2.553  11.848  18.182  0.00  0.00    +0.000 A 
ATOM      2  C   UNL     1      -3.632  11.956  19.073  0.00  0.00    +0.000 A 
ATOM      3  C   UNL     1      -3.542  12.789  20.191  0.00  0.00    +0.000 A 
ATOM      4  C   UNL     1      -2.413  13.596  20.347  0.00  0.00    +0.000 A 
ATOM      5  C   UNL     1      -1.245  13.250  19.663  0.00  0.00    +0.000 A 
ATOM      6  C   UNL     1      -1.346  12.495  18.491  0.00  0.00    +0.000 A 
ENDROOT
BRANCH   5   7
ATOM      7  N   UNL     1      -0.013  13.160  20.447  0.00  0.00    +0.000 N 
ATOM      8  C   UNL     1       0.963  12.242  19.808  0.00  0.00    +0.000 C 
ATOM      9  C   UNL     1       0.709  10.942  20.512  0.00  0.00    +0.000 A 
ATOM     10  C   UNL     1       0.128  11.236  21.746  0.00  0.00    +0.000 A 
ATOM     11  C   UNL     1      -0.388  10.259  22.582  0.00  0.00    +0.000 A 
ATOM     12  C   UNL     1      -0.302   8.936  22.154  0.00  0.00    +0.000 A 
ATOM     13  C   UNL     1       0.297   8.624  20.918  0.00  0.00    +0.000 A 
ATOM     14  C   UNL     1       0.824   9.624  20.075  0.00  0.00    +0.000 A 
ATOM     15  C   UNL     1      -0.173  12.685  21.778  0.00  0.00    +0.000 C 
ATOM     16  O   UNL     1      -0.684  13.249  22.728  0.00  0.00    +0.000 OA
BRANCH  14  17
ATOM     17  C   UNL     1       1.408   9.235  18.740  0.00  0.00    +0.000 C 
ATOM     18  F   UNL     1       1.906   7.969  18.702  0.00  0.00    +0.000 F 
ATOM     19  F   UNL     1       0.486   9.297  17.741  0.00  0.00    +0.000 F 
ATOM     20  F   UNL     1       2.428  10.050  18.360  0.00  0.00    +0.000 F 
ENDBRANCH  14  17
ENDBRANCH   5   7
BRANCH   1  22
ATOM     21  C   UNL     1      -3.249   9.537  17.549  0.00  0.00    +0.000 C 
ATOM     22  C   UNL     1      -2.598  10.830  17.069  0.00  0.00    +0.000 C 
ENDBRANCH   1  22
BRANCH   3  23
ATOM     23  C   UNL     1      -4.375  12.556  21.437  0.00  0.00    +0.000 C 
BRANCH  23  24
ATOM     24  C   UNL     1      -4.853  13.747  22.162  0.00  0.00    +0.000 A 
ATOM     25  N   UNL     1      -5.625  14.700  21.665  0.00  0.00    +0.000 NA
ATOM     26  N   UNL     1      -5.995  15.526  22.691  0.00  0.00    +0.000 NA
ATOM     27  C   UNL     1      -5.441  15.070  23.788  0.00  0.00    +0.000 A 
ATOM     28  N   UNL     1      -4.695  13.970  23.502  0.00  0.00    +0.000 N 
ATOM     29  C   UNL     1      -3.929  13.190  24.432  0.00  0.00    +0.000 C 
ENDBRANCH  23  24
ENDBRANCH   3  23
TORSDOF 5
ENDMDL
MODEL 4
REMARK VINA RESULT:      -6.8      0.612      1.154
REMARK  Name = 
REMARK  7 active torsions:
REMARK  status: ('A' for Active; 'I' for Inactive)
REMARK    1  A    between atoms: C_1  and  C_2
REMARK    2  A    between atoms: C_2  and  C_3
REMARK    3  A    between atoms: C_5  and  C_6
REMARK    4  A    between atoms: C_6  and  C_7
REMARK    5  A    between atoms: N_11  and  C_12
REMARK    6  A    between atoms: C_14  and  N_15
REMARK    7  A    between atoms: C_22  and  C_23
REMARK                            x       y       z     vdW  Elec       q    Type
REMARK                         _______ _______ _______ _____ _____    ______ ____
ROOT
ATOM      1  C   UNL     1      -2.794  11.450  18.273  0.00  0.00    +0.000 A 
ATOM      2  C   UNL     1      -3.850  11.699  19.164  0.00  0.00    +0.000 A 
ATOM      3  C   UNL     1      -3.725  12.684  20.147  0.00  0.00    +0.000 A 
ATOM      4  C   UNL     1      -2.584  13.491  20.159  0.00  0.00    +0.000 A 
ATOM      5  C   UNL     1      -1.436  13.034  19.505  0.00  0.00    +0.000 A 
ATOM      6  C   UNL     1      -1.574  12.119  18.457  0.00  0.00    +0.000 A 
ENDROOT
BRANCH   5   7
ATOM      7  N   UNL     1      -0.186  13.043  20.265  0.00  0.00    +0.000 N 
ATOM      8  C   UNL     1       0.829  12.161  19.636  0.00  0.00    +0.000 C 
ATOM      9  C   UNL     1       0.665  10.873  20.387  0.00  0.00    +0.000 A 
ATOM     10  C   UNL     1       0.092  11.175  21.623  0.00  0.00    +0.000 A 
ATOM     11  C   UNL     1      -0.349  10.200  22.502  0.00  0.00    +0.000 A 
ATOM     12  C   UNL     1      -0.195   8.870  22.115  0.00  0.00    +0.000 A 
ATOM     13  C   UNL     1       0.398   8.550  20.879  0.00  0.00    +0.000 A 
ATOM     14  C   UNL     1       0.849   9.550  19.992  0.00  0.00    +0.000 A 
ATOM     15  C   UNL     1      -0.293  12.605  21.614  0.00  0.00    +0.000 C 
ATOM     16  O   UNL     1      -0.817  13.171  22.555  0.00  0.00    +0.000 OA
BRANCH  14  17
ATOM     17  C   UNL     1       1.428   9.150  18.658  0.00  0.00    +0.000 C 
ATOM     18  F   UNL     1       2.468   9.928  18.251  0.00  0.00    +0.000 F 
ATOM     19  F   UNL     1       1.906   7.876  18.669  0.00  0.00    +0.000 F 
ATOM     20  F   UNL     1       0.510   9.199  17.655  0.00  0.00    +0.000 F 
ENDBRANCH  14  17
ENDBRANCH   5   7
BRANCH   1  22
ATOM     21  C   UNL     1      -3.417  10.732  15.966  0.00  0.00    +0.000 C 
ATOM     22  C   UNL     1      -2.877  10.283  17.320  0.00  0.00    +0.000 C 
ENDBRANCH   1  22
BRANCH   3  23
ATOM     23  C   UNL     1      -4.528  12.644  21.433  0.00  0.00    +0.000 C 
BRANCH  23  24
ATOM     24  C   UNL     1      -5.830  13.337  21.437  0.00  0.00    +0.000 A 
ATOM     25  N   UNL     1      -6.021  14.627  21.665  0.00  0.00    +0.000 NA
ATOM     26  N   UNL     1      -7.332  14.915  21.401  0.00  0.00    +0.000 NA
ATOM     27  C   UNL     1      -7.916  13.803  21.026  0.00  0.00    +0.000 A 
ATOM     28  N   UNL     1      -7.019  12.782  21.056  0.00  0.00    +0.000 N 
ATOM     29  C   UNL     1      -7.275  11.409  20.723  0.00  0.00    +0.000 C 
ENDBRANCH  23  24
ENDBRANCH   3  23
TORSDOF 5
ENDMDL
MODEL 5
REMARK VINA RESULT:      -6.6      3.613      6.567
REMARK  Name = 
REMARK  7 active torsions:
REMARK  status: ('A' for Active; 'I' for Inactive)
REMARK    1  A    between atoms: C_1  and  C_2
REMARK    2  A    between atoms: C_2  and  C_3
REMARK    3  A    between atoms: C_5  and  C_6
REMARK    4  A    between atoms: C_6  and  C_7
REMARK    5  A    between atoms: N_11  and  C_12
REMARK    6  A    between atoms: C_14  and  N_15
REMARK    7  A    between atoms: C_22  and  C_23
REMARK                            x       y       z     vdW  Elec       q    Type
REMARK                         _______ _______ _______ _____ _____    ______ ____
ROOT
ATOM      1  C   UNL     1      -3.502  11.173  17.538  0.00  0.00    +0.000 A 
ATOM      2  C   UNL     1      -2.144  11.019  17.858  0.00  0.00    +0.000 A 
ATOM      3  C   UNL     1      -1.660  11.441  19.100  0.00  0.00    +0.000 A 
ATOM      4  C   UNL     1      -2.564  11.909  20.056  0.00  0.00    +0.000 A 
ATOM      5  C   UNL     1      -3.818  12.354  19.630  0.00  0.00    +0.000 A 
ATOM      6  C   UNL     1      -4.340  11.857  18.432  0.00  0.00    +0.000 A 
ENDROOT
BRANCH   5   7
ATOM      7  N   UNL     1      -4.248  13.676  20.083  0.00  0.00    +0.000 N 
ATOM      8  C   UNL     1      -3.891  13.897  21.507  0.00  0.00    +0.000 C 
ATOM      9  C   UNL     1      -5.147  13.510  22.230  0.00  0.00    +0.000 A 
ATOM     10  C   UNL     1      -6.209  13.643  21.335  0.00  0.00    +0.000 A 
ATOM     11  C   UNL     1      -7.491  13.208  21.624  0.00  0.00    +0.000 A 
ATOM     12  C   UNL     1      -7.706  12.626  22.872  0.00  0.00    +0.000 A 
ATOM     13  C   UNL     1      -6.648  12.502  23.793  0.00  0.00    +0.000 A 
ATOM     14  C   UNL     1      -5.345  12.952  23.491  0.00  0.00    +0.000 A 
ATOM     15  C   UNL     1      -5.645  13.925  19.994  0.00  0.00    +0.000 C 
ATOM     16  O   UNL     1      -6.323  14.095  18.998  0.00  0.00    +0.000 OA
BRANCH  14  17
ATOM     17  C   UNL     1      -4.239  12.746  24.496  0.00  0.00    +0.000 C 
ATOM     18  F   UNL     1      -3.600  13.892  24.857  0.00  0.00    +0.000 F 
ATOM     19  F   UNL     1      -4.697  12.200  25.656  0.00  0.00    +0.000 F 
ATOM     20  F   UNL     1      -3.272  11.905  24.042  0.00  0.00    +0.000 F 
ENDBRANCH  14  17
ENDBRANCH   5   7
BRANCH   1  22
ATOM     21  C   UNL     1      -2.814  10.461  15.247  0.00  0.00    +0.000 C 
ATOM     22  C   UNL     1      -3.983  10.862  16.142  0.00  0.00    +0.000 C 
ENDBRANCH   1  22
BRANCH   3  23
ATOM     23  C   UNL     1      -0.207  11.819  19.311  0.00  0.00    +0.000 C 
BRANCH  23  24
ATOM     24  C   UNL     1       0.081  12.854  20.319  0.00  0.00    +0.000 A 
ATOM     25  N   UNL     1       0.468  12.636  21.567  0.00  0.00    +0.000 NA
ATOM     26  N   UNL     1       0.808  13.838  22.123  0.00  0.00    +0.000 NA
ATOM     27  C   UNL     1       0.619  14.765  21.215  0.00  0.00    +0.000 A 
ATOM     28  N   UNL     1       0.141  14.198  20.075  0.00  0.00    +0.000 N 
ATOM     29  C   UNL     1      -0.199  14.880  18.858  0.00  0.00    +0.000 C 
ENDBRANCH  23  24
ENDBRANCH   3  23
TORSDOF 5
ENDMDL
MODEL 6
REMARK VINA RESULT:      -6.6      2.588      3.941
REMARK  Name = 
REMARK  7 active torsions:
REMARK  status: ('A' for Active; 'I' for Inactive)
REMARK    1  A    between atoms: C_1  and  C_2
REMARK    2  A    between atoms: C_2  and  C_3
REMARK    3  A    between atoms: C_5  and  C_6
REMARK    4  A    between atoms: C_6  and  C_7
REMARK    5  A    between atoms: N_11  and  C_12
REMARK    6  A    between atoms: C_14  and  N_15
REMARK    7  A    between atoms: C_22  and  C_23
REMARK                            x       y       z     vdW  Elec       q    Type
REMARK                         _______ _______ _______ _____ _____    ______ ____
ROOT
ATOM      1  C   UNL     1       0.763   9.910  17.925  0.00  0.00    +0.000 A 
ATOM      2  C   UNL     1      -0.640   9.848  17.932  0.00  0.00    +0.000 A 
ATOM      3  C   UNL     1      -1.392  10.966  18.302  0.00  0.00    +0.000 A 
ATOM      4  C   UNL     1      -0.735  12.173  18.553  0.00  0.00    +0.000 A 
ATOM      5  C   UNL     1       0.628  12.142  18.857  0.00  0.00    +0.000 A 
ATOM      6  C   UNL     1       1.397  11.066  18.404  0.00  0.00    +0.000 A 
ENDROOT
BRANCH   5   7
ATOM      7  N   UNL     1       1.060  12.850  20.062  0.00  0.00    +0.000 N 
ATOM      8  C   UNL     1       1.310  11.905  21.179  0.00  0.00    +0.000 C 
ATOM      9  C   UNL     1       0.012  11.922  21.929  0.00  0.00    +0.000 A 
ATOM     10  C   UNL     1      -0.629  13.128  21.638  0.00  0.00    +0.000 A 
ATOM     11  C   UNL     1      -1.928  13.400  22.034  0.00  0.00    +0.000 A 
ATOM     12  C   UNL     1      -2.597  12.416  22.759  0.00  0.00    +0.000 A 
ATOM     13  C   UNL     1      -1.957  11.203  23.076  0.00  0.00    +0.000 A 
ATOM     14  C   UNL     1      -0.631  10.936  22.673  0.00  0.00    +0.000 A 
ATOM     15  C   UNL     1       0.137  13.807  20.568  0.00  0.00    +0.000 C 
ATOM     16  O   UNL     1      -0.170  14.887  20.097  0.00  0.00    +0.000 OA
BRANCH  14  17
ATOM     17  C   UNL     1      -0.015   9.598  22.995  0.00  0.00    +0.000 C 
ATOM     18  F   UNL     1       1.225   9.418  22.463  0.00  0.00    +0.000 F 
ATOM     19  F   UNL     1       0.132   9.412  24.336  0.00  0.00    +0.000 F 
ATOM     20  F   UNL     1      -0.767   8.556  22.551  0.00  0.00    +0.000 F 
ENDBRANCH  14  17
ENDBRANCH   5   7
BRANCH   1  22
ATOM     21  C   UNL     1       2.146   8.124  18.986  0.00  0.00    +0.000 C 
ATOM     22  C   UNL     1       1.567   8.657  17.678  0.00  0.00    +0.000 C 
ENDBRANCH   1  22
BRANCH   3  23
ATOM     23  C   UNL     1      -2.798  10.842  18.856  0.00  0.00    +0.000 C 
BRANCH  23  24
ATOM     24  C   UNL     1      -3.877  11.527  18.120  0.00  0.00    +0.000 A 
ATOM     25  N   UNL     1      -4.050  11.513  16.808  0.00  0.00    +0.000 NA
ATOM     26  N   UNL     1      -5.252  12.105  16.532  0.00  0.00    +0.000 NA
ATOM     27  C   UNL     1      -5.786  12.472  17.671  0.00  0.00    +0.000 A 
ATOM     28  N   UNL     1      -4.948  12.152  18.693  0.00  0.00    +0.000 N 
ATOM     29  C   UNL     1      -5.170  12.398  20.091  0.00  0.00    +0.000 C 
ENDBRANCH  23  24
ENDBRANCH   3  23
TORSDOF 5
ENDMDL
MODEL 7
REMARK VINA RESULT:      -6.6      1.248      1.794
REMARK  Name = 
REMARK  7 active torsions:
REMARK  status: ('A' for Active; 'I' for Inactive)
REMARK    1  A    between atoms: C_1  and  C_2
REMARK    2  A    between atoms: C_2  and  C_3
REMARK    3  A    between atoms: C_5  and  C_6
REMARK    4  A    between atoms: C_6  and  C_7
REMARK    5  A    between atoms: N_11  and  C_12
REMARK    6  A    between atoms: C_14  and  N_15
REMARK    7  A    between atoms: C_22  and  C_23
REMARK                            x       y       z     vdW  Elec       q    Type
REMARK                         _______ _______ _______ _____ _____    ______ ____
ROOT
ATOM      1  C   UNL     1      -2.866  11.622  18.454  0.00  0.00    +0.000 A 
ATOM      2  C   UNL     1      -3.920  11.844  19.354  0.00  0.00    +0.000 A 
ATOM      3  C   UNL     1      -3.790  12.792  20.372  0.00  0.00    +0.000 A 
ATOM      4  C   UNL     1      -2.646  13.593  20.411  0.00  0.00    +0.000 A 
ATOM      5  C   UNL     1      -1.501  13.156  19.740  0.00  0.00    +0.000 A 
ATOM      6  C   UNL     1      -1.643  12.279  18.660  0.00  0.00    +0.000 A 
ENDROOT
BRANCH   5   7
ATOM      7  N   UNL     1      -0.250  13.132  20.498  0.00  0.00    +0.000 N 
ATOM      8  C   UNL     1       0.764  12.276  19.833  0.00  0.00    +0.000 C 
ATOM      9  C   UNL     1       0.599  10.958  20.530  0.00  0.00    +0.000 A 
ATOM     10  C   UNL     1       0.028  11.209  21.778  0.00  0.00    +0.000 A 
ATOM     11  C   UNL     1      -0.413  10.199  22.616  0.00  0.00    +0.000 A 
ATOM     12  C   UNL     1      -0.260   8.886  22.175  0.00  0.00    +0.000 A 
ATOM     13  C   UNL     1       0.331   8.617  20.925  0.00  0.00    +0.000 A 
ATOM     14  C   UNL     1       0.782   9.653  20.080  0.00  0.00    +0.000 A 
ATOM     15  C   UNL     1      -0.355  12.639  21.828  0.00  0.00    +0.000 C 
ATOM     16  O   UNL     1      -0.878  13.166  22.793  0.00  0.00    +0.000 OA
BRANCH  14  17
ATOM     17  C   UNL     1       1.360   9.308  18.730  0.00  0.00    +0.000 C 
ATOM     18  F   UNL     1       1.907   8.063  18.665  0.00  0.00    +0.000 F 
ATOM     19  F   UNL     1       0.420   9.347  17.746  0.00  0.00    +0.000 F 
ATOM     20  F   UNL     1       2.341  10.168  18.348  0.00  0.00    +0.000 F 
ENDBRANCH  14  17
ENDBRANCH   5   7
BRANCH   1  22
ATOM     21  C   UNL     1      -2.835  11.018  16.033  0.00  0.00    +0.000 C 
ATOM     22  C   UNL     1      -2.954  10.491  17.459  0.00  0.00    +0.000 C 
ENDBRANCH   1  22
BRANCH   3  23
ATOM     23  C   UNL     1      -4.592  12.709  21.656  0.00  0.00    +0.000 C 
BRANCH  23  24
ATOM     24  C   UNL     1      -4.757  13.952  22.431  0.00  0.00    +0.000 A 
ATOM     25  N   UNL     1      -4.071  14.289  23.511  0.00  0.00    +0.000 NA
ATOM     26  N   UNL     1      -4.383  15.583  23.827  0.00  0.00    +0.000 NA
ATOM     27  C   UNL     1      -5.253  16.009  22.944  0.00  0.00    +0.000 A 
ATOM     28  N   UNL     1      -5.537  15.013  22.063  0.00  0.00    +0.000 N 
ATOM     29  C   UNL     1      -6.448  15.084  20.956  0.00  0.00    +0.000 C 
ENDBRANCH  23  24
ENDBRANCH   3  23
TORSDOF 5
ENDMDL
MODEL 8
REMARK VINA RESULT:      -6.5      1.359      1.544
REMARK  Name = 
REMARK  7 active torsions:
REMARK  status: ('A' for Active; 'I' for Inactive)
REMARK    1  A    between atoms: C_1  and  C_2
REMARK    2  A    between atoms: C_2  and  C_3
REMARK    3  A    between atoms: C_5  and  C_6
REMARK    4  A    between atoms: C_6  and  C_7
REMARK    5  A    between atoms: N_11  and  C_12
REMARK    6  A    between atoms: C_14  and  N_15
REMARK    7  A    between atoms: C_22  and  C_23
REMARK                            x       y       z     vdW  Elec       q    Type
REMARK                         _______ _______ _______ _____ _____    ______ ____
ROOT
ATOM      1  C   UNL     1      -3.229  12.079  19.272  0.00  0.00    +0.000 A 
ATOM      2  C   UNL     1      -4.126  12.854  20.024  0.00  0.00    +0.000 A 
ATOM      3  C   UNL     1      -3.666  13.954  20.754  0.00  0.00    +0.000 A 
ATOM      4  C   UNL     1      -2.327  14.336  20.634  0.00  0.00    +0.000 A 
ATOM      5  C   UNL     1      -1.404  13.398  20.166  0.00  0.00    +0.000 A 
ATOM      6  C   UNL     1      -1.855  12.351  19.356  0.00  0.00    +0.000 A 
ENDROOT
BRANCH   5   7
ATOM      7  N   UNL     1      -0.196  13.192  20.965  0.00  0.00    +0.000 N 
ATOM      8  C   UNL     1       0.806  12.386  20.223  0.00  0.00    +0.000 C 
ATOM      9  C   UNL     1       0.541  10.992  20.708  0.00  0.00    +0.000 A 
ATOM     10  C   UNL     1      -0.080  11.089  21.954  0.00  0.00    +0.000 A 
ATOM     11  C   UNL     1      -0.614   9.993  22.612  0.00  0.00    +0.000 A 
ATOM     12  C   UNL     1      -0.505   8.753  21.987  0.00  0.00    +0.000 A 
ATOM     13  C   UNL     1       0.136   8.638  20.737  0.00  0.00    +0.000 A 
ATOM     14  C   UNL     1       0.681   9.759  20.077  0.00  0.00    +0.000 A 
ATOM     15  C   UNL     1      -0.394  12.515  22.200  0.00  0.00    +0.000 C 
ATOM     16  O   UNL     1      -0.939  12.924  23.209  0.00  0.00    +0.000 OA
BRANCH  14  17
ATOM     17  C   UNL     1       1.309   9.583  18.717  0.00  0.00    +0.000 C 
ATOM     18  F   UNL     1       2.178  10.574  18.377  0.00  0.00    +0.000 F 
ATOM     19  F   UNL     1       2.019   8.426  18.627  0.00  0.00    +0.000 F 
ATOM     20  F   UNL     1       0.386   9.537  17.719  0.00  0.00    +0.000 F 
ENDBRANCH  14  17
ENDBRANCH   5   7
BRANCH   1  22
ATOM     21  C   UNL     1      -2.616  10.221  17.724  0.00  0.00    +0.000 C 
ATOM     22  C   UNL     1      -3.706  10.806  18.616  0.00  0.00    +0.000 C 
ENDBRANCH   1  22
BRANCH   3  23
ATOM     23  C   UNL     1      -4.405  14.478  21.970  0.00  0.00    +0.000 C 
BRANCH  23  24
ATOM     24  C   UNL     1      -5.071  13.486  22.834  0.00  0.00    +0.000 A 
ATOM     25  N   UNL     1      -4.464  12.608  23.617  0.00  0.00    +0.000 NA
ATOM     26  N   UNL     1      -5.415  11.998  24.388  0.00  0.00    +0.000 NA
ATOM     27  C   UNL     1      -6.579  12.506  24.061  0.00  0.00    +0.000 A 
ATOM     28  N   UNL     1      -6.415  13.426  23.073  0.00  0.00    +0.000 N 
ATOM     29  C   UNL     1      -7.450  14.194  22.439  0.00  0.00    +0.000 C 
ENDBRANCH  23  24
ENDBRANCH   3  23
TORSDOF 5
ENDMDL
MODEL 9
REMARK VINA RESULT:      -6.5      3.718      6.936
REMARK  Name = 
REMARK  7 active torsions:
REMARK  status: ('A' for Active; 'I' for Inactive)
REMARK    1  A    between atoms: C_1  and  C_2
REMARK    2  A    between atoms: C_2  and  C_3
REMARK    3  A    between atoms: C_5  and  C_6
REMARK    4  A    between atoms: C_6  and  C_7
REMARK    5  A    between atoms: N_11  and  C_12
REMARK    6  A    between atoms: C_14  and  N_15
REMARK    7  A    between atoms: C_22  and  C_23
REMARK                            x       y       z     vdW  Elec       q    Type
REMARK                         _______ _______ _______ _____ _____    ______ ____
ROOT
ATOM      1  C   UNL     1      -3.639  11.180  17.348  0.00  0.00    +0.000 A 
ATOM      2  C   UNL     1      -2.345  10.840  17.771  0.00  0.00    +0.000 A 
ATOM      3  C   UNL     1      -1.924  11.148  19.068  0.00  0.00    +0.000 A 
ATOM      4  C   UNL     1      -2.843  11.692  19.968  0.00  0.00    +0.000 A 
ATOM      5  C   UNL     1      -3.988  12.311  19.462  0.00  0.00    +0.000 A 
ATOM      6  C   UNL     1      -4.461  11.932  18.202  0.00  0.00    +0.000 A 
ENDROOT
BRANCH   5   7
ATOM      7  N   UNL     1      -4.287  13.660  19.943  0.00  0.00    +0.000 N 
ATOM      8  C   UNL     1      -3.826  13.845  21.342  0.00  0.00    +0.000 C 
ATOM      9  C   UNL     1      -5.059  13.550  22.143  0.00  0.00    +0.000 A 
ATOM     10  C   UNL     1      -6.162  13.767  21.316  0.00  0.00    +0.000 A 
ATOM     11  C   UNL     1      -7.454  13.429  21.686  0.00  0.00    +0.000 A 
ATOM     12  C   UNL     1      -7.632  12.859  22.944  0.00  0.00    +0.000 A 
ATOM     13  C   UNL     1      -6.530  12.650  23.796  0.00  0.00    +0.000 A 
ATOM     14  C   UNL     1      -5.219  13.001  23.413  0.00  0.00    +0.000 A 
ATOM     15  C   UNL     1      -5.665  14.014  19.943  0.00  0.00    +0.000 C 
ATOM     16  O   UNL     1      -6.389  14.240  18.991  0.00  0.00    +0.000 OA
BRANCH  14  17
ATOM     17  C   UNL     1      -4.071  12.706  24.345  0.00  0.00    +0.000 C 
ATOM     18  F   UNL     1      -3.196  11.779  23.869  0.00  0.00    +0.000 F 
ATOM     19  F   UNL     1      -3.325  13.814  24.605  0.00  0.00    +0.000 F 
ATOM     20  F   UNL     1      -4.487  12.242  25.554  0.00  0.00    +0.000 F 
ENDBRANCH  14  17
ENDBRANCH   5   7
BRANCH   1  22
ATOM     21  C   UNL     1      -2.982  10.158  15.169  0.00  0.00    +0.000 C 
ATOM     22  C   UNL     1      -4.031  10.988  15.904  0.00  0.00    +0.000 C 
ENDBRANCH   1  22
BRANCH   3  23
ATOM     23  C   UNL     1      -0.459  11.327  19.417  0.00  0.00    +0.000 C 
BRANCH  23  24
ATOM     24  C   UNL     1       0.397  10.127  19.373  0.00  0.00    +0.000 A 
ATOM     25  N   UNL     1       1.163   9.759  18.359  0.00  0.00    +0.000 NA
ATOM     26  N   UNL     1       1.934   8.706  18.769  0.00  0.00    +0.000 NA
ATOM     27  C   UNL     1       1.622   8.446  20.016  0.00  0.00    +0.000 A 
ATOM     28  N   UNL     1       0.645   9.297  20.429  0.00  0.00    +0.000 N 
ATOM     29  C   UNL     1       0.030   9.327  21.727  0.00  0.00    +0.000 C 
ENDBRANCH  23  24
ENDBRANCH   3  23
TORSDOF 5
ENDMDL
