MODEL 1
REMARK VINA RESULT:      -8.0      0.000      0.000
REMARK  Name = 
REMARK  8 active torsions:
REMARK  status: ('A' for Active; 'I' for Inactive)
REMARK    1  A    between atoms: C_2  and  C_7
REMARK    2  A    between atoms: N_3  and  C_4
REMARK    3  A    between atoms: C_10  and  C_11
REMARK    4  A    between atoms: C_11  and  N_12
REMARK    5  A    between atoms: N_12  and  C_13
REMARK    6  A    between atoms: N_12  and  S_16
REMARK    7  A    between atoms: S_16  and  C_19
REMARK    8  A    between atoms: C_23  and  C_24
REMARK                            x       y       z     vdW  Elec       q    Type
REMARK                         _______ _______ _______ _____ _____    ______ ____
ROOT
ATOM      1  N   UNL     1       5.380   4.305  17.303  0.00  0.00    +0.000 NA
ENDROOT
BRANCH   1   2
ATOM      2  C   UNL     1       5.531   3.777  15.905  0.00  0.00    +0.000 C 
ATOM      3  C   UNL     1       6.578   4.222  14.925  0.00  0.00    +0.000 C 
ATOM      4  C   UNL     1       5.122   4.476  14.643  0.00  0.00    +0.000 C 
ENDBRANCH   1   2
BRANCH   1   5
ATOM      5  S   UNL     1       4.281   3.480  18.354  0.00  0.00    +0.000 S 
ATOM      6  O   UNL     1       3.384   2.639  17.592  0.00  0.00    +0.000 OA
ATOM      7  O   UNL     1       5.053   2.948  19.461  0.00  0.00    +0.000 OA
BRANCH   5   8
ATOM      8  C   UNL     1       3.257   4.797  19.004  0.00  0.00    +0.000 A 
ATOM      9  C   UNL     1       2.699   4.655  20.277  0.00  0.00    +0.000 A 
ATOM     10  C   UNL     1       1.948   5.698  20.819  0.00  0.00    +0.000 A 
ATOM     11  C   UNL     1       1.771   6.883  20.101  0.00  0.00    +0.000 A 
ATOM     12  C   UNL     1       2.342   7.045  18.829  0.00  0.00    +0.000 A 
ATOM     13  C   UNL     1       3.087   5.985  18.279  0.00  0.00    +0.000 A 
BRANCH  12  14
ATOM     14  C   UNL     1       2.188   8.342  18.066  0.00  0.00    +0.000 C 
ATOM     15  F   UNL     1       3.226   8.606  17.224  0.00  0.00    +0.000 F 
ATOM     16  F   UNL     1       1.068   8.362  17.294  0.00  0.00    +0.000 F 
ATOM     17  F   UNL     1       2.095   9.420  18.892  0.00  0.00    +0.000 F 
ENDBRANCH  12  14
ENDBRANCH   5   8
ENDBRANCH   1   5
BRANCH   1  18
ATOM     18  C   UNL     1       6.716   4.496  17.971  0.00  0.00    +0.000 C 
BRANCH  18  22
ATOM     19  C   UNL     1       8.098   8.602  18.182  0.00  0.00    +0.000 A 
ATOM     20  C   UNL     1       8.615   7.647  19.067  0.00  0.00    +0.000 A 
ATOM     21  C   UNL     1       8.204   6.313  18.993  0.00  0.00    +0.000 A 
ATOM     22  C   UNL     1       7.244   5.920  18.051  0.00  0.00    +0.000 A 
ATOM     23  C   UNL     1       6.782   6.871  17.123  0.00  0.00    +0.000 A 
ATOM     24  C   UNL     1       7.203   8.204  17.186  0.00  0.00    +0.000 A 
BRANCH  19  26
ATOM     25  O   UNL     1       8.124  10.863  17.561  0.00  0.00    +0.000 OA
ATOM     26  C   UNL     1       8.563  10.009  18.321  0.00  0.00    +0.000 C 
ATOM     27  N   UNL     1       9.523  10.255  19.292  0.00  0.00    +0.000 N 
ATOM     28  H   UNL     1       9.956   9.480  19.775  0.00  0.00    +0.000 HD
BRANCH  27  29
ATOM     29  C   UNL     1      10.096  11.560  19.441  0.00  0.00    +0.000 C 
ATOM     30  C   UNL     1      11.580  11.773  19.560  0.00  0.00    +0.000 C 
ATOM     31  C   UNL     1      10.697  11.970  20.757  0.00  0.00    +0.000 C 
ENDBRANCH  27  29
ENDBRANCH  19  26
ENDBRANCH  18  22
ENDBRANCH   1  18
TORSDOF 8
ENDMDL
MODEL 2
REMARK VINA RESULT:      -7.9      3.937      7.065
REMARK  Name = 
REMARK  8 active torsions:
REMARK  status: ('A' for Active; 'I' for Inactive)
REMARK    1  A    between atoms: C_2  and  C_7
REMARK    2  A    between atoms: N_3  and  C_4
REMARK    3  A    between atoms: C_10  and  C_11
REMARK    4  A    between atoms: C_11  and  N_12
REMARK    5  A    between atoms: N_12  and  C_13
REMARK    6  A    between atoms: N_12  and  S_16
REMARK    7  A    between atoms: S_16  and  C_19
REMARK    8  A    between atoms: C_23  and  C_24
REMARK                            x       y       z     vdW  Elec       q    Type
REMARK                         _______ _______ _______ _____ _____    ______ ____
ROOT
ATOM      1  N   UNL     1       3.221   4.565  19.888  0.00  0.00    +0.000 NA
ENDROOT
BRANCH   1   2
ATOM      2  C   UNL     1       2.177   4.086  20.855  0.00  0.00    +0.000 C 
ATOM      3  C   UNL     1       1.859   2.644  21.132  0.00  0.00    +0.000 C 
ATOM      4  C   UNL     1       0.826   3.540  20.503  0.00  0.00    +0.000 C 
ENDBRANCH   1   2
BRANCH   1   5
ATOM      5  S   UNL     1       4.307   3.387  19.235  0.00  0.00    +0.000 S 
ATOM      6  O   UNL     1       5.113   2.803  20.285  0.00  0.00    +0.000 OA
ATOM      7  O   UNL     1       3.550   2.557  18.318  0.00  0.00    +0.000 OA
BRANCH   5   8
ATOM      8  C   UNL     1       5.443   4.363  18.254  0.00  0.00    +0.000 A 
ATOM      9  C   UNL     1       6.323   5.233  18.902  0.00  0.00    +0.000 A 
ATOM     10  C   UNL     1       7.253   5.955  18.153  0.00  0.00    +0.000 A 
ATOM     11  C   UNL     1       7.315   5.794  16.767  0.00  0.00    +0.000 A 
ATOM     12  C   UNL     1       6.449   4.908  16.106  0.00  0.00    +0.000 A 
ATOM     13  C   UNL     1       5.502   4.193  16.863  0.00  0.00    +0.000 A 
BRANCH  12  14
ATOM     14  C   UNL     1       6.542   4.699  14.611  0.00  0.00    +0.000 C 
ATOM     15  F   UNL     1       7.661   5.240  14.054  0.00  0.00    +0.000 F 
ATOM     16  F   UNL     1       6.556   3.382  14.269  0.00  0.00    +0.000 F 
ATOM     17  F   UNL     1       5.491   5.250  13.946  0.00  0.00    +0.000 F 
ENDBRANCH  12  14
ENDBRANCH   5   8
ENDBRANCH   1   5
BRANCH   1  18
ATOM     18  C   UNL     1       2.619   5.402  18.790  0.00  0.00    +0.000 C 
BRANCH  18  22
ATOM     19  C   UNL     1       1.229   9.394  19.759  0.00  0.00    +0.000 A 
ATOM     20  C   UNL     1       1.262   8.408  20.753  0.00  0.00    +0.000 A 
ATOM     21  C   UNL     1       1.736   7.125  20.466  0.00  0.00    +0.000 A 
ATOM     22  C   UNL     1       2.156   6.799  19.169  0.00  0.00    +0.000 A 
ATOM     23  C   UNL     1       2.183   7.814  18.195  0.00  0.00    +0.000 A 
ATOM     24  C   UNL     1       1.722   9.104  18.484  0.00  0.00    +0.000 A 
BRANCH  19  26
ATOM     25  O   UNL     1       1.385  11.489  20.803  0.00  0.00    +0.000 OA
ATOM     26  C   UNL     1       0.699  10.737  20.121  0.00  0.00    +0.000 C 
ATOM     27  N   UNL     1      -0.588  11.034  19.696  0.00  0.00    +0.000 N 
ATOM     28  H   UNL     1      -1.155  10.311  19.275  0.00  0.00    +0.000 HD
BRANCH  27  29
ATOM     29  C   UNL     1      -1.217  12.265  20.072  0.00  0.00    +0.000 C 
ATOM     30  C   UNL     1      -1.992  12.410  21.352  0.00  0.00    +0.000 C 
ATOM     31  C   UNL     1      -2.716  12.382  20.038  0.00  0.00    +0.000 C 
ENDBRANCH  27  29
ENDBRANCH  19  26
ENDBRANCH  18  22
ENDBRANCH   1  18
TORSDOF 8
ENDMDL
MODEL 3
REMARK VINA RESULT:      -7.9      3.969      6.794
REMARK  Name = 
REMARK  8 active torsions:
REMARK  status: ('A' for Active; 'I' for Inactive)
REMARK    1  A    between atoms: C_2  and  C_7
REMARK    2  A    between atoms: N_3  and  C_4
REMARK    3  A    between atoms: C_10  and  C_11
REMARK    4  A    between atoms: C_11  and  N_12
REMARK    5  A    between atoms: N_12  and  C_13
REMARK    6  A    between atoms: N_12  and  S_16
REMARK    7  A    between atoms: S_16  and  C_19
REMARK    8  A    between atoms: C_23  and  C_24
REMARK                            x       y       z     vdW  Elec       q    Type
REMARK                         _______ _______ _______ _____ _____    ______ ____
ROOT
ATOM      1  N   UNL     1       3.208   4.395  20.078  0.00  0.00    +0.000 NA
ENDROOT
BRANCH   1   2
ATOM      2  C   UNL     1       2.247   3.880  21.111  0.00  0.00    +0.000 C 
ATOM      3  C   UNL     1       2.176   2.458  21.588  0.00  0.00    +0.000 C 
ATOM      4  C   UNL     1       1.015   3.067  20.851  0.00  0.00    +0.000 C 
ENDBRANCH   1   2
BRANCH   1   5
ATOM      5  S   UNL     1       4.338   3.270  19.408  0.00  0.00    +0.000 S 
ATOM      6  O   UNL     1       5.175   2.710  20.446  0.00  0.00    +0.000 OA
ATOM      7  O   UNL     1       3.610   2.417  18.488  0.00  0.00    +0.000 OA
BRANCH   5   8
ATOM      8  C   UNL     1       5.425   4.301  18.428  0.00  0.00    +0.000 A 
ATOM      9  C   UNL     1       6.278   5.196  19.079  0.00  0.00    +0.000 A 
ATOM     10  C   UNL     1       7.171   5.963  18.330  0.00  0.00    +0.000 A 
ATOM     11  C   UNL     1       7.224   5.823  16.941  0.00  0.00    +0.000 A 
ATOM     12  C   UNL     1       6.385   4.914  16.277  0.00  0.00    +0.000 A 
ATOM     13  C   UNL     1       5.475   4.153  17.035  0.00  0.00    +0.000 A 
BRANCH  12  14
ATOM     14  C   UNL     1       6.470   4.729  14.779  0.00  0.00    +0.000 C 
ATOM     15  F   UNL     1       6.489   3.423  14.391  0.00  0.00    +0.000 F 
ATOM     16  F   UNL     1       5.420   5.296  14.125  0.00  0.00    +0.000 F 
ATOM     17  F   UNL     1       7.591   5.291  14.250  0.00  0.00    +0.000 F 
ENDBRANCH  12  14
ENDBRANCH   5   8
ENDBRANCH   1   5
BRANCH   1  18
ATOM     18  C   UNL     1       2.498   5.153  18.987  0.00  0.00    +0.000 C 
BRANCH  18  22
ATOM     19  C   UNL     1       1.400   9.225  19.999  0.00  0.00    +0.000 A 
ATOM     20  C   UNL     1       1.843   8.924  18.704  0.00  0.00    +0.000 A 
ATOM     21  C   UNL     1       2.171   7.612  18.352  0.00  0.00    +0.000 A 
ATOM     22  C   UNL     1       2.091   6.584  19.301  0.00  0.00    +0.000 A 
ATOM     23  C   UNL     1       1.581   6.883  20.577  0.00  0.00    +0.000 A 
ATOM     24  C   UNL     1       1.238   8.194  20.928  0.00  0.00    +0.000 A 
BRANCH  19  26
ATOM     25  O   UNL     1       1.088  11.011  21.487  0.00  0.00    +0.000 OA
ATOM     26  C   UNL     1       1.080  10.643  20.318  0.00  0.00    +0.000 C 
ATOM     27  N   UNL     1       0.736  11.460  19.251  0.00  0.00    +0.000 N 
ATOM     28  H   UNL     1       0.596  11.054  18.335  0.00  0.00    +0.000 HD
BRANCH  27  29
ATOM     29  C   UNL     1       0.327  12.815  19.467  0.00  0.00    +0.000 C 
ATOM     30  C   UNL     1      -1.111  13.190  19.693  0.00  0.00    +0.000 C 
ATOM     31  C   UNL     1      -0.439  13.548  18.401  0.00  0.00    +0.000 C 
ENDBRANCH  27  29
ENDBRANCH  19  26
ENDBRANCH  18  22
ENDBRANCH   1  18
TORSDOF 8
ENDMDL
MODEL 4
REMARK VINA RESULT:      -7.8      4.285      6.671
REMARK  Name = 
REMARK  8 active torsions:
REMARK  status: ('A' for Active; 'I' for Inactive)
REMARK    1  A    between atoms: C_2  and  C_7
REMARK    2  A    between atoms: N_3  and  C_4
REMARK    3  A    between atoms: C_10  and  C_11
REMARK    4  A    between atoms: C_11  and  N_12
REMARK    5  A    between atoms: N_12  and  C_13
REMARK    6  A    between atoms: N_12  and  S_16
REMARK    7  A    between atoms: S_16  and  C_19
REMARK    8  A    between atoms: C_23  and  C_24
REMARK                            x       y       z     vdW  Elec       q    Type
REMARK                         _______ _______ _______ _____ _____    ______ ____
ROOT
ATOM      1  N   UNL     1       2.981   4.477  19.061  0.00  0.00    +0.000 NA
ENDROOT
BRANCH   1   2
ATOM      2  C   UNL     1       1.545   4.054  19.187  0.00  0.00    +0.000 C 
ATOM      3  C   UNL     1       0.823   3.833  20.485  0.00  0.00    +0.000 C 
ATOM      4  C   UNL     1       1.050   2.684  19.540  0.00  0.00    +0.000 C 
ENDBRANCH   1   2
BRANCH   1   5
ATOM      5  S   UNL     1       4.146   3.249  18.706  0.00  0.00    +0.000 S 
ATOM      6  O   UNL     1       4.893   2.898  19.894  0.00  0.00    +0.000 OA
ATOM      7  O   UNL     1       3.482   2.235  17.909  0.00  0.00    +0.000 OA
BRANCH   5   8
ATOM      8  C   UNL     1       5.318   4.080  17.637  0.00  0.00    +0.000 A 
ATOM      9  C   UNL     1       6.316   4.871  18.213  0.00  0.00    +0.000 A 
ATOM     10  C   UNL     1       7.270   5.477  17.394  0.00  0.00    +0.000 A 
ATOM     11  C   UNL     1       7.238   5.279  16.012  0.00  0.00    +0.000 A 
ATOM     12  C   UNL     1       6.251   4.471  15.424  0.00  0.00    +0.000 A 
ATOM     13  C   UNL     1       5.281   3.874  16.251  0.00  0.00    +0.000 A 
BRANCH  12  14
ATOM     14  C   UNL     1       6.238   4.220  13.933  0.00  0.00    +0.000 C 
ATOM     15  F   UNL     1       6.491   2.925  13.596  0.00  0.00    +0.000 F 
ATOM     16  F   UNL     1       5.041   4.525  13.364  0.00  0.00    +0.000 F 
ATOM     17  F   UNL     1       7.169   4.965  13.275  0.00  0.00    +0.000 F 
ENDBRANCH  12  14
ENDBRANCH   5   8
ENDBRANCH   1   5
BRANCH   1  18
ATOM     18  C   UNL     1       3.136   5.647  18.126  0.00  0.00    +0.000 C 
BRANCH  18  22
ATOM     19  C   UNL     1       1.239   9.381  19.254  0.00  0.00    +0.000 A 
ATOM     20  C   UNL     1       1.533   8.425  20.235  0.00  0.00    +0.000 A 
ATOM     21  C   UNL     1       2.172   7.230  19.894  0.00  0.00    +0.000 A 
ATOM     22  C   UNL     1       2.499   6.958  18.559  0.00  0.00    +0.000 A 
ATOM     23  C   UNL     1       2.261   7.952  17.591  0.00  0.00    +0.000 A 
ATOM     24  C   UNL     1       1.634   9.156  17.933  0.00  0.00    +0.000 A 
BRANCH  19  26
ATOM     25  O   UNL     1      -0.598  10.557  20.116  0.00  0.00    +0.000 OA
ATOM     26  C   UNL     1       0.543  10.627  19.676  0.00  0.00    +0.000 C 
ATOM     27  N   UNL     1       1.230  11.817  19.491  0.00  0.00    +0.000 N 
ATOM     28  H   UNL     1       2.102  11.818  18.979  0.00  0.00    +0.000 HD
BRANCH  27  29
ATOM     29  C   UNL     1       0.610  13.075  19.784  0.00  0.00    +0.000 C 
ATOM     30  C   UNL     1      -0.238  13.802  18.778  0.00  0.00    +0.000 C 
ATOM     31  C   UNL     1       1.119  14.332  19.136  0.00  0.00    +0.000 C 
ENDBRANCH  27  29
ENDBRANCH  19  26
ENDBRANCH  18  22
ENDBRANCH   1  18
TORSDOF 8
ENDMDL
MODEL 5
REMARK VINA RESULT:      -7.8      3.952      6.852
REMARK  Name = 
REMARK  8 active torsions:
REMARK  status: ('A' for Active; 'I' for Inactive)
REMARK    1  A    between atoms: C_2  and  C_7
REMARK    2  A    between atoms: N_3  and  C_4
REMARK    3  A    between atoms: C_10  and  C_11
REMARK    4  A    between atoms: C_11  and  N_12
REMARK    5  A    between atoms: N_12  and  C_13
REMARK    6  A    between atoms: N_12  and  S_16
REMARK    7  A    between atoms: S_16  and  C_19
REMARK    8  A    between atoms: C_23  and  C_24
REMARK                            x       y       z     vdW  Elec       q    Type
REMARK                         _______ _______ _______ _____ _____    ______ ____
ROOT
ATOM      1  N   UNL     1       5.130   5.972  17.454  0.00  0.00    +0.000 NA
ENDROOT
BRANCH   1   2
ATOM      2  C   UNL     1       6.439   6.596  17.064  0.00  0.00    +0.000 C 
ATOM      3  C   UNL     1       7.649   6.685  17.950  0.00  0.00    +0.000 C 
ATOM      4  C   UNL     1       6.948   7.938  17.499  0.00  0.00    +0.000 C 
ENDBRANCH   1   2
BRANCH   1   5
ATOM      5  S   UNL     1       5.027   4.245  17.419  0.00  0.00    +0.000 S 
ATOM      6  O   UNL     1       4.890   3.772  16.059  0.00  0.00    +0.000 OA
ATOM      7  O   UNL     1       6.062   3.728  18.294  0.00  0.00    +0.000 OA
BRANCH   5   8
ATOM      8  C   UNL     1       3.452   3.904  18.199  0.00  0.00    +0.000 A 
ATOM      9  C   UNL     1       2.303   3.844  17.407  0.00  0.00    +0.000 A 
ATOM     10  C   UNL     1       1.078   3.521  17.995  0.00  0.00    +0.000 A 
ATOM     11  C   UNL     1       1.008   3.242  19.362  0.00  0.00    +0.000 A 
ATOM     12  C   UNL     1       2.159   3.280  20.165  0.00  0.00    +0.000 A 
ATOM     13  C   UNL     1       3.389   3.622  19.571  0.00  0.00    +0.000 A 
BRANCH  12  14
ATOM     14  C   UNL     1       2.093   2.938  21.636  0.00  0.00    +0.000 C 
ATOM     15  F   UNL     1       0.876   2.472  22.033  0.00  0.00    +0.000 F 
ATOM     16  F   UNL     1       2.991   1.979  21.988  0.00  0.00    +0.000 F 
ATOM     17  F   UNL     1       2.358   4.011  22.430  0.00  0.00    +0.000 F 
ENDBRANCH  12  14
ENDBRANCH   5   8
ENDBRANCH   1   5
BRANCH   1  18
ATOM     18  C   UNL     1       4.628   6.510  18.768  0.00  0.00    +0.000 C 
BRANCH  18  22
ATOM     19  C   UNL     1       1.077   9.000  18.763  0.00  0.00    +0.000 A 
ATOM     20  C   UNL     1       1.933   9.004  17.654  0.00  0.00    +0.000 A 
ATOM     21  C   UNL     1       3.064   8.185  17.625  0.00  0.00    +0.000 A 
ATOM     22  C   UNL     1       3.376   7.371  18.722  0.00  0.00    +0.000 A 
ATOM     23  C   UNL     1       2.475   7.322  19.802  0.00  0.00    +0.000 A 
ATOM     24  C   UNL     1       1.334   8.131  19.827  0.00  0.00    +0.000 A 
BRANCH  19  26
ATOM     25  O   UNL     1      -0.503  10.396  19.790  0.00  0.00    +0.000 OA
ATOM     26  C   UNL     1      -0.103   9.906  18.741  0.00  0.00    +0.000 C 
ATOM     27  N   UNL     1      -0.718  10.098  17.512  0.00  0.00    +0.000 N 
ATOM     28  H   UNL     1      -0.434   9.541  16.718  0.00  0.00    +0.000 HD
BRANCH  27  29
ATOM     29  C   UNL     1      -1.913  10.881  17.405  0.00  0.00    +0.000 C 
ATOM     30  C   UNL     1      -3.282  10.259  17.426  0.00  0.00    +0.000 C 
ATOM     31  C   UNL     1      -2.736  10.826  16.148  0.00  0.00    +0.000 C 
ENDBRANCH  27  29
ENDBRANCH  19  26
ENDBRANCH  18  22
ENDBRANCH   1  18
TORSDOF 8
ENDMDL
MODEL 6
REMARK VINA RESULT:      -7.8      3.461      6.187
REMARK  Name = 
REMARK  8 active torsions:
REMARK  status: ('A' for Active; 'I' for Inactive)
REMARK    1  A    between atoms: C_2  and  C_7
REMARK    2  A    between atoms: N_3  and  C_4
REMARK    3  A    between atoms: C_10  and  C_11
REMARK    4  A    between atoms: C_11  and  N_12
REMARK    5  A    between atoms: N_12  and  C_13
REMARK    6  A    between atoms: N_12  and  S_16
REMARK    7  A    between atoms: S_16  and  C_19
REMARK    8  A    between atoms: C_23  and  C_24
REMARK                            x       y       z     vdW  Elec       q    Type
REMARK                         _______ _______ _______ _____ _____    ______ ____
ROOT
ATOM      1  N   UNL     1       3.220   4.667  19.675  0.00  0.00    +0.000 NA
ENDROOT
BRANCH   1   2
ATOM      2  C   UNL     1       2.259   4.293  20.768  0.00  0.00    +0.000 C 
ATOM      3  C   UNL     1       2.251   2.978  21.494  0.00  0.00    +0.000 C 
ATOM      4  C   UNL     1       1.079   3.377  20.638  0.00  0.00    +0.000 C 
ENDBRANCH   1   2
BRANCH   1   5
ATOM      5  S   UNL     1       4.230   3.415  19.039  0.00  0.00    +0.000 S 
ATOM      6  O   UNL     1       5.157   2.948  20.046  0.00  0.00    +0.000 OA
ATOM      7  O   UNL     1       3.377   2.491  18.316  0.00  0.00    +0.000 OA
BRANCH   5   8
ATOM      8  C   UNL     1       5.237   4.266  17.827  0.00  0.00    +0.000 A 
ATOM      9  C   UNL     1       5.191   3.849  16.495  0.00  0.00    +0.000 A 
ATOM     10  C   UNL     1       5.926   4.541  15.531  0.00  0.00    +0.000 A 
ATOM     11  C   UNL     1       6.687   5.654  15.895  0.00  0.00    +0.000 A 
ATOM     12  C   UNL     1       6.726   6.096  17.227  0.00  0.00    +0.000 A 
ATOM     13  C   UNL     1       5.996   5.385  18.199  0.00  0.00    +0.000 A 
BRANCH  12  14
ATOM     14  C   UNL     1       7.515   7.325  17.617  0.00  0.00    +0.000 C 
ATOM     15  F   UNL     1       8.398   7.731  16.662  0.00  0.00    +0.000 F 
ATOM     16  F   UNL     1       6.717   8.398  17.866  0.00  0.00    +0.000 F 
ATOM     17  F   UNL     1       8.250   7.132  18.746  0.00  0.00    +0.000 F 
ENDBRANCH  12  14
ENDBRANCH   5   8
ENDBRANCH   1   5
BRANCH   1  18
ATOM     18  C   UNL     1       2.533   5.416  18.564  0.00  0.00    +0.000 C 
BRANCH  18  22
ATOM     19  C   UNL     1       1.425   9.555  19.235  0.00  0.00    +0.000 A 
ATOM     20  C   UNL     1       1.439   8.655  20.308  0.00  0.00    +0.000 A 
ATOM     21  C   UNL     1       1.823   7.325  20.116  0.00  0.00    +0.000 A 
ATOM     22  C   UNL     1       2.169   6.866  18.838  0.00  0.00    +0.000 A 
ATOM     23  C   UNL     1       2.218   7.793  17.780  0.00  0.00    +0.000 A 
ATOM     24  C   UNL     1       1.847   9.128  17.973  0.00  0.00    +0.000 A 
BRANCH  19  26
ATOM     25  O   UNL     1      -0.029  11.153  20.148  0.00  0.00    +0.000 OA
ATOM     26  C   UNL     1       0.991  10.954  19.499  0.00  0.00    +0.000 C 
ATOM     27  N   UNL     1       1.760  11.962  18.936  0.00  0.00    +0.000 N 
ATOM     28  H   UNL     1       2.494  11.725  18.283  0.00  0.00    +0.000 HD
BRANCH  27  29
ATOM     29  C   UNL     1       1.373  13.335  19.060  0.00  0.00    +0.000 C 
ATOM     30  C   UNL     1       2.202  14.454  18.494  0.00  0.00    +0.000 C 
ATOM     31  C   UNL     1       2.134  14.250  19.979  0.00  0.00    +0.000 C 
ENDBRANCH  27  29
ENDBRANCH  19  26
ENDBRANCH  18  22
ENDBRANCH   1  18
TORSDOF 8
ENDMDL
MODEL 7
REMARK VINA RESULT:      -7.7      4.545      7.261
REMARK  Name = 
REMARK  8 active torsions:
REMARK  status: ('A' for Active; 'I' for Inactive)
REMARK    1  A    between atoms: C_2  and  C_7
REMARK    2  A    between atoms: N_3  and  C_4
REMARK    3  A    between atoms: C_10  and  C_11
REMARK    4  A    between atoms: C_11  and  N_12
REMARK    5  A    between atoms: N_12  and  C_13
REMARK    6  A    between atoms: N_12  and  S_16
REMARK    7  A    between atoms: S_16  and  C_19
REMARK    8  A    between atoms: C_23  and  C_24
REMARK                            x       y       z     vdW  Elec       q    Type
REMARK                         _______ _______ _______ _____ _____    ______ ____
ROOT
ATOM      1  N   UNL     1       3.201   4.164  19.600  0.00  0.00    +0.000 NA
ENDROOT
BRANCH   1   2
ATOM      2  C   UNL     1       1.905   4.244  20.353  0.00  0.00    +0.000 C 
ATOM      3  C   UNL     1       1.528   3.369  21.515  0.00  0.00    +0.000 C 
ATOM      4  C   UNL     1       0.747   3.300  20.231  0.00  0.00    +0.000 C 
ENDBRANCH   1   2
BRANCH   1   5
ATOM      5  S   UNL     1       3.178   3.397  18.050  0.00  0.00    +0.000 S 
ATOM      6  O   UNL     1       3.293   1.962  18.191  0.00  0.00    +0.000 OA
ATOM      7  O   UNL     1       2.098   3.992  17.285  0.00  0.00    +0.000 OA
BRANCH   5   8
ATOM      8  C   UNL     1       4.715   3.924  17.298  0.00  0.00    +0.000 A 
ATOM      9  C   UNL     1       5.797   4.243  18.123  0.00  0.00    +0.000 A 
ATOM     10  C   UNL     1       7.018   4.599  17.548  0.00  0.00    +0.000 A 
ATOM     11  C   UNL     1       7.161   4.617  16.158  0.00  0.00    +0.000 A 
ATOM     12  C   UNL     1       6.087   4.279  15.319  0.00  0.00    +0.000 A 
ATOM     13  C   UNL     1       4.852   3.936  15.903  0.00  0.00    +0.000 A 
BRANCH  12  14
ATOM     14  C   UNL     1       6.251   4.256  13.817  0.00  0.00    +0.000 C 
ATOM     15  F   UNL     1       6.658   3.050  13.331  0.00  0.00    +0.000 F 
ATOM     16  F   UNL     1       5.094   4.548  13.162  0.00  0.00    +0.000 F 
ATOM     17  F   UNL     1       7.169   5.162  13.383  0.00  0.00    +0.000 F 
ENDBRANCH  12  14
ENDBRANCH   5   8
ENDBRANCH   1   5
BRANCH   1  18
ATOM     18  C   UNL     1       3.882   5.505  19.522  0.00  0.00    +0.000 C 
BRANCH  18  22
ATOM     19  C   UNL     1       1.312   8.888  18.649  0.00  0.00    +0.000 A 
ATOM     20  C   UNL     1       1.330   8.342  19.939  0.00  0.00    +0.000 A 
ATOM     21  C   UNL     1       2.175   7.272  20.246  0.00  0.00    +0.000 A 
ATOM     22  C   UNL     1       2.993   6.710  19.257  0.00  0.00    +0.000 A 
ATOM     23  C   UNL     1       3.018   7.308  17.983  0.00  0.00    +0.000 A 
ATOM     24  C   UNL     1       2.183   8.389  17.678  0.00  0.00    +0.000 A 
BRANCH  19  26
ATOM     25  O   UNL     1       0.613  11.117  18.864  0.00  0.00    +0.000 OA
ATOM     26  C   UNL     1       0.379  10.016  18.380  0.00  0.00    +0.000 C 
ATOM     27  N   UNL     1      -0.747   9.726  17.623  0.00  0.00    +0.000 N 
ATOM     28  H   UNL     1      -0.959   8.766  17.389  0.00  0.00    +0.000 HD
BRANCH  27  29
ATOM     29  C   UNL     1      -1.747  10.724  17.385  0.00  0.00    +0.000 C 
ATOM     30  C   UNL     1      -3.217  10.411  17.433  0.00  0.00    +0.000 C 
ATOM     31  C   UNL     1      -2.553  10.692  16.117  0.00  0.00    +0.000 C 
ENDBRANCH  27  29
ENDBRANCH  19  26
ENDBRANCH  18  22
ENDBRANCH   1  18
TORSDOF 8
ENDMDL
MODEL 8
REMARK VINA RESULT:      -7.7      3.600      6.912
REMARK  Name = 
REMARK  8 active torsions:
REMARK  status: ('A' for Active; 'I' for Inactive)
REMARK    1  A    between atoms: C_2  and  C_7
REMARK    2  A    between atoms: N_3  and  C_4
REMARK    3  A    between atoms: C_10  and  C_11
REMARK    4  A    between atoms: C_11  and  N_12
REMARK    5  A    between atoms: N_12  and  C_13
REMARK    6  A    between atoms: N_12  and  S_16
REMARK    7  A    between atoms: S_16  and  C_19
REMARK    8  A    between atoms: C_23  and  C_24
REMARK                            x       y       z     vdW  Elec       q    Type
REMARK                         _______ _______ _______ _____ _____    ______ ____
ROOT
ATOM      1  N   UNL     1       3.089   4.481  19.522  0.00  0.00    +0.000 NA
ENDROOT
BRANCH   1   2
ATOM      2  C   UNL     1       1.931   3.987  20.341  0.00  0.00    +0.000 C 
ATOM      3  C   UNL     1       2.042   3.384  21.712  0.00  0.00    +0.000 C 
ATOM      4  C   UNL     1       1.544   2.555  20.559  0.00  0.00    +0.000 C 
ENDBRANCH   1   2
BRANCH   1   5
ATOM      5  S   UNL     1       4.145   3.294  18.836  0.00  0.00    +0.000 S 
ATOM      6  O   UNL     1       5.088   2.821  19.826  0.00  0.00    +0.000 OA
ATOM      7  O   UNL     1       3.326   2.370  18.075  0.00  0.00    +0.000 OA
BRANCH   5   8
ATOM      8  C   UNL     1       5.120   4.230  17.662  0.00  0.00    +0.000 A 
ATOM      9  C   UNL     1       5.012   3.932  16.301  0.00  0.00    +0.000 A 
ATOM     10  C   UNL     1       5.722   4.693  15.372  0.00  0.00    +0.000 A 
ATOM     11  C   UNL     1       6.520   5.757  15.798  0.00  0.00    +0.000 A 
ATOM     12  C   UNL     1       6.622   6.079  17.161  0.00  0.00    +0.000 A 
ATOM     13  C   UNL     1       5.916   5.299  18.097  0.00  0.00    +0.000 A 
BRANCH  12  14
ATOM     14  C   UNL     1       7.451   7.256  17.622  0.00  0.00    +0.000 C 
ATOM     15  F   UNL     1       6.709   8.354  17.940  0.00  0.00    +0.000 F 
ATOM     16  F   UNL     1       8.188   6.972  18.729  0.00  0.00    +0.000 F 
ATOM     17  F   UNL     1       8.337   7.668  16.675  0.00  0.00    +0.000 F 
ENDBRANCH  12  14
ENDBRANCH   5   8
ENDBRANCH   1   5
BRANCH   1  18
ATOM     18  C   UNL     1       2.648   5.471  18.476  0.00  0.00    +0.000 C 
BRANCH  18  22
ATOM     19  C   UNL     1       1.218   9.349  19.789  0.00  0.00    +0.000 A 
ATOM     20  C   UNL     1       1.373   8.313  20.718  0.00  0.00    +0.000 A 
ATOM     21  C   UNL     1       1.862   7.067  20.319  0.00  0.00    +0.000 A 
ATOM     22  C   UNL     1       2.174   6.827  18.974  0.00  0.00    +0.000 A 
ATOM     23  C   UNL     1       2.080   7.893  18.060  0.00  0.00    +0.000 A 
ATOM     24  C   UNL     1       1.604   9.147  18.461  0.00  0.00    +0.000 A 
BRANCH  19  26
ATOM     25  O   UNL     1       1.193  11.188  21.245  0.00  0.00    +0.000 OA
ATOM     26  C   UNL     1       0.678  10.649  20.272  0.00  0.00    +0.000 C 
ATOM     27  N   UNL     1      -0.430  11.151  19.605  0.00  0.00    +0.000 N 
ATOM     28  H   UNL     1      -0.898  10.580  18.914  0.00  0.00    +0.000 HD
BRANCH  27  29
ATOM     29  C   UNL     1      -1.074  12.349  20.052  0.00  0.00    +0.000 C 
ATOM     30  C   UNL     1      -1.988  12.369  21.246  0.00  0.00    +0.000 C 
ATOM     31  C   UNL     1      -2.557  12.519  19.865  0.00  0.00    +0.000 C 
ENDBRANCH  27  29
ENDBRANCH  19  26
ENDBRANCH  18  22
ENDBRANCH   1  18
TORSDOF 8
ENDMDL
MODEL 9
REMARK VINA RESULT:      -7.7      1.008      1.187
REMARK  Name = 
REMARK  8 active torsions:
REMARK  status: ('A' for Active; 'I' for Inactive)
REMARK    1  A    between atoms: C_2  and  C_7
REMARK    2  A    between atoms: N_3  and  C_4
REMARK    3  A    between atoms: C_10  and  C_11
REMARK    4  A    between atoms: C_11  and  N_12
REMARK    5  A    between atoms: N_12  and  C_13
REMARK    6  A    between atoms: N_12  and  S_16
REMARK    7  A    between atoms: S_16  and  C_19
REMARK    8  A    between atoms: C_23  and  C_24
REMARK                            x       y       z     vdW  Elec       q    Type
REMARK                         _______ _______ _______ _____ _____    ______ ____
ROOT
ATOM      1  N   UNL     1       5.347   4.644  17.215  0.00  0.00    +0.000 NA
ENDROOT
BRANCH   1   2
ATOM      2  C   UNL     1       5.106   4.312  15.771  0.00  0.00    +0.000 C 
ATOM      3  C   UNL     1       6.162   3.858  14.804  0.00  0.00    +0.000 C 
ATOM      4  C   UNL     1       5.456   5.170  14.592  0.00  0.00    +0.000 C 
ENDBRANCH   1   2
BRANCH   1   5
ATOM      5  S   UNL     1       4.459   3.748  18.400  0.00  0.00    +0.000 S 
ATOM      6  O   UNL     1       3.622   2.755  17.763  0.00  0.00    +0.000 OA
ATOM      7  O   UNL     1       5.384   3.386  19.456  0.00  0.00    +0.000 OA
BRANCH   5   8
ATOM      8  C   UNL     1       3.327   4.958  19.077  0.00  0.00    +0.000 A 
ATOM      9  C   UNL     1       2.706   4.694  20.301  0.00  0.00    +0.000 A 
ATOM     10  C   UNL     1       1.867   5.655  20.868  0.00  0.00    +0.000 A 
ATOM     11  C   UNL     1       1.665   6.878  20.225  0.00  0.00    +0.000 A 
ATOM     12  C   UNL     1       2.299   7.164  19.005  0.00  0.00    +0.000 A 
ATOM     13  C   UNL     1       3.132   6.186  18.429  0.00  0.00    +0.000 A 
BRANCH  12  14
ATOM     14  C   UNL     1       2.116   8.503  18.328  0.00  0.00    +0.000 C 
ATOM     15  F   UNL     1       3.234   8.947  17.689  0.00  0.00    +0.000 F 
ATOM     16  F   UNL     1       1.134   8.482  17.388  0.00  0.00    +0.000 F 
ATOM     17  F   UNL     1       1.775   9.485  19.207  0.00  0.00    +0.000 F 
ENDBRANCH  12  14
ENDBRANCH   5   8
ENDBRANCH   1   5
BRANCH   1  18
ATOM     18  C   UNL     1       6.817   4.655  17.545  0.00  0.00    +0.000 C 
BRANCH  18  22
ATOM     19  C   UNL     1       8.435   8.541  18.590  0.00  0.00    +0.000 A 
ATOM     20  C   UNL     1       8.675   7.439  19.422  0.00  0.00    +0.000 A 
ATOM     21  C   UNL     1       8.188   6.174  19.085  0.00  0.00    +0.000 A 
ATOM     22  C   UNL     1       7.424   5.996  17.924  0.00  0.00    +0.000 A 
ATOM     23  C   UNL     1       7.245   7.093  17.061  0.00  0.00    +0.000 A 
ATOM     24  C   UNL     1       7.744   8.358  17.389  0.00  0.00    +0.000 A 
BRANCH  19  26
ATOM     25  O   UNL     1       9.013  10.142  20.203  0.00  0.00    +0.000 OA
ATOM     26  C   UNL     1       8.966   9.866  19.010  0.00  0.00    +0.000 C 
ATOM     27  N   UNL     1       9.334  10.740  17.997  0.00  0.00    +0.000 N 
ATOM     28  H   UNL     1       9.122  10.509  17.036  0.00  0.00    +0.000 HD
BRANCH  27  29
ATOM     29  C   UNL     1       9.772  12.069  18.300  0.00  0.00    +0.000 C 
ATOM     30  C   UNL     1       9.018  13.285  17.838  0.00  0.00    +0.000 C 
ATOM     31  C   UNL     1      10.337  12.939  17.212  0.00  0.00    +0.000 C 
ENDBRANCH  27  29
ENDBRANCH  19  26
ENDBRANCH  18  22
ENDBRANCH   1  18
TORSDOF 8
ENDMDL
