MODEL 1
REMARK VINA RESULT:      -7.9      0.000      0.000
REMARK  Name = 
REMARK  4 active torsions:
REMARK  status: ('A' for Active; 'I' for Inactive)
REMARK    1  A    between atoms: N_5  and  C_6
REMARK    2  A    between atoms: C_6  and  C_7
REMARK    3  A    between atoms: N_19  and  C_20
REMARK    4  A    between atoms: C_20  and  C_21
REMARK                            x       y       z     vdW  Elec       q    Type
REMARK                         _______ _______ _______ _____ _____    ______ ____
ROOT
ATOM      1  O   UNL     1      -0.750  10.716  21.235  0.00  0.00    +0.000 OA
ATOM      2  C   UNL     1      -0.005   9.987  20.616  0.00  0.00    +0.000 C 
ATOM      3  C   UNL     1       0.792   8.814  21.215  0.00  0.00    +0.000 C 
ATOM      4  O   UNL     1       0.803   8.510  22.389  0.00  0.00    +0.000 OA
ATOM      5  N   UNL     1       1.525   8.319  20.185  0.00  0.00    +0.000 N 
ATOM      6  C   UNL     1       1.366   9.124  19.088  0.00  0.00    +0.000 C 
ATOM      7  O   UNL     1       2.060   9.092  18.079  0.00  0.00    +0.000 OA
ATOM      8  N   UNL     1       0.386  10.048  19.320  0.00  0.00    +0.000 N 
ENDROOT
BRANCH   5   9
ATOM      9  C   UNL     1       2.565   7.326  20.339  0.00  0.00    +0.000 C 
BRANCH   9  10
ATOM     10  C   UNL     1       2.194   5.956  19.797  0.00  0.00    +0.000 A 
ATOM     11  C   UNL     1       1.173   5.248  20.462  0.00  0.00    +0.000 A 
ATOM     12  C   UNL     1       0.861   3.940  20.107  0.00  0.00    +0.000 A 
ATOM     13  C   UNL     1       1.546   3.323  19.066  0.00  0.00    +0.000 A 
ATOM     14  C   UNL     1       2.527   4.015  18.342  0.00  0.00    +0.000 A 
ATOM     15  C   UNL     1       3.175   3.378  17.271  0.00  0.00    +0.000 A 
ATOM     16  C   UNL     1       4.142   4.041  16.520  0.00  0.00    +0.000 A 
ATOM     17  C   UNL     1       4.483   5.345  16.843  0.00  0.00    +0.000 A 
ATOM     18  C   UNL     1       3.860   5.985  17.918  0.00  0.00    +0.000 A 
ATOM     19  C   UNL     1       2.864   5.350  18.694  0.00  0.00    +0.000 A 
ENDBRANCH   9  10
ENDBRANCH   5   9
BRANCH   8  20
ATOM     20  C   UNL     1      -0.040  11.058  18.378  0.00  0.00    +0.000 C 
BRANCH  20  21
ATOM     21  C   UNL     1      -1.490  10.875  17.998  0.00  0.00    +0.000 A 
ATOM     22  C   UNL     1      -1.866   9.879  17.085  0.00  0.00    +0.000 A 
ATOM     23  C   UNL     1      -3.200   9.745  16.695  0.00  0.00    +0.000 A 
ATOM     24  C   UNL     1      -4.169  10.603  17.210  0.00  0.00    +0.000 A 
ATOM     25  C   UNL     1      -3.808  11.594  18.121  0.00  0.00    +0.000 A 
ATOM     26  C   UNL     1      -2.474  11.732  18.512  0.00  0.00    +0.000 A 
ENDBRANCH  20  21
ENDBRANCH   8  20
TORSDOF 4
ENDMDL
MODEL 2
REMARK VINA RESULT:      -7.9      1.145      2.242
REMARK  Name = 
REMARK  4 active torsions:
REMARK  status: ('A' for Active; 'I' for Inactive)
REMARK    1  A    between atoms: N_5  and  C_6
REMARK    2  A    between atoms: C_6  and  C_7
REMARK    3  A    between atoms: N_19  and  C_20
REMARK    4  A    between atoms: C_20  and  C_21
REMARK                            x       y       z     vdW  Elec       q    Type
REMARK                         _______ _______ _______ _____ _____    ______ ____
ROOT
ATOM      1  O   UNL     1      -0.143  10.335  21.246  0.00  0.00    +0.000 OA
ATOM      2  C   UNL     1       0.480   9.687  20.432  0.00  0.00    +0.000 C 
ATOM      3  C   UNL     1       1.315   8.431  20.746  0.00  0.00    +0.000 C 
ATOM      4  O   UNL     1       1.484   7.970  21.855  0.00  0.00    +0.000 OA
ATOM      5  N   UNL     1       1.874   8.071  19.562  0.00  0.00    +0.000 N 
ATOM      6  C   UNL     1       1.586   9.021  18.617  0.00  0.00    +0.000 C 
ATOM      7  O   UNL     1       2.126   9.117  17.522  0.00  0.00    +0.000 OA
ATOM      8  N   UNL     1       0.682   9.918  19.113  0.00  0.00    +0.000 N 
ENDROOT
BRANCH   5   9
ATOM      9  C   UNL     1       2.891   7.052  19.428  0.00  0.00    +0.000 C 
BRANCH   9  10
ATOM     10  C   UNL     1       2.353   5.699  18.997  0.00  0.00    +0.000 A 
ATOM     11  C   UNL     1       2.027   5.531  17.636  0.00  0.00    +0.000 A 
ATOM     12  C   UNL     1       1.414   4.367  17.186  0.00  0.00    +0.000 A 
ATOM     13  C   UNL     1       1.137   3.339  18.081  0.00  0.00    +0.000 A 
ATOM     14  C   UNL     1       1.499   3.445  19.430  0.00  0.00    +0.000 A 
ATOM     15  C   UNL     1       1.241   2.374  20.302  0.00  0.00    +0.000 A 
ATOM     16  C   UNL     1       1.602   2.438  21.645  0.00  0.00    +0.000 A 
ATOM     17  C   UNL     1       2.214   3.582  22.135  0.00  0.00    +0.000 A 
ATOM     18  C   UNL     1       2.460   4.662  21.283  0.00  0.00    +0.000 A 
ATOM     19  C   UNL     1       2.121   4.629  19.911  0.00  0.00    +0.000 A 
ENDBRANCH   9  10
ENDBRANCH   5   9
BRANCH   8  20
ATOM     20  C   UNL     1       0.159  11.053  18.386  0.00  0.00    +0.000 C 
BRANCH  20  21
ATOM     21  C   UNL     1      -1.316  10.893  18.109  0.00  0.00    +0.000 A 
ATOM     22  C   UNL     1      -1.772   9.899  17.232  0.00  0.00    +0.000 A 
ATOM     23  C   UNL     1      -3.132   9.785  16.936  0.00  0.00    +0.000 A 
ATOM     24  C   UNL     1      -4.048  10.663  17.511  0.00  0.00    +0.000 A 
ATOM     25  C   UNL     1      -3.608  11.653  18.388  0.00  0.00    +0.000 A 
ATOM     26  C   UNL     1      -2.248  11.770  18.684  0.00  0.00    +0.000 A 
ENDBRANCH  20  21
ENDBRANCH   8  20
TORSDOF 4
ENDMDL
MODEL 3
REMARK VINA RESULT:      -7.8      2.019      3.387
REMARK  Name = 
REMARK  4 active torsions:
REMARK  status: ('A' for Active; 'I' for Inactive)
REMARK    1  A    between atoms: N_5  and  C_6
REMARK    2  A    between atoms: C_6  and  C_7
REMARK    3  A    between atoms: N_19  and  C_20
REMARK    4  A    between atoms: C_20  and  C_21
REMARK                            x       y       z     vdW  Elec       q    Type
REMARK                         _______ _______ _______ _____ _____    ______ ____
ROOT
ATOM      1  O   UNL     1       1.358   8.327  21.175  0.00  0.00    +0.000 OA
ATOM      2  C   UNL     1       1.735   7.776  20.162  0.00  0.00    +0.000 C 
ATOM      3  C   UNL     1       2.100   6.285  20.045  0.00  0.00    +0.000 C 
ATOM      4  O   UNL     1       2.098   5.495  20.965  0.00  0.00    +0.000 OA
ATOM      5  N   UNL     1       2.516   6.120  18.763  0.00  0.00    +0.000 N 
ATOM      6  C   UNL     1       2.568   7.341  18.143  0.00  0.00    +0.000 C 
ATOM      7  O   UNL     1       3.118   7.570  17.073  0.00  0.00    +0.000 OA
ATOM      8  N   UNL     1       2.012   8.299  18.944  0.00  0.00    +0.000 N 
ENDROOT
BRANCH   5   9
ATOM      9  C   UNL     1       3.134   4.912  18.264  0.00  0.00    +0.000 C 
BRANCH   9  10
ATOM     10  C   UNL     1       4.649   4.985  18.180  0.00  0.00    +0.000 A 
ATOM     11  C   UNL     1       5.356   5.239  19.372  0.00  0.00    +0.000 A 
ATOM     12  C   UNL     1       6.731   5.444  19.359  0.00  0.00    +0.000 A 
ATOM     13  C   UNL     1       7.430   5.375  18.158  0.00  0.00    +0.000 A 
ATOM     14  C   UNL     1       6.771   5.067  16.961  0.00  0.00    +0.000 A 
ATOM     15  C   UNL     1       7.510   4.966  15.770  0.00  0.00    +0.000 A 
ATOM     16  C   UNL     1       6.891   4.644  14.565  0.00  0.00    +0.000 A 
ATOM     17  C   UNL     1       5.520   4.434  14.535  0.00  0.00    +0.000 A 
ATOM     18  C   UNL     1       4.770   4.549  15.709  0.00  0.00    +0.000 A 
ATOM     19  C   UNL     1       5.365   4.860  16.953  0.00  0.00    +0.000 A 
ENDBRANCH   9  10
ENDBRANCH   5   9
BRANCH   8  20
ATOM     20  C   UNL     1       1.904   9.701  18.606  0.00  0.00    +0.000 C 
BRANCH  20  21
ATOM     21  C   UNL     1       0.464  10.154  18.607  0.00  0.00    +0.000 A 
ATOM     22  C   UNL     1      -0.440   9.655  17.657  0.00  0.00    +0.000 A 
ATOM     23  C   UNL     1      -1.758  10.114  17.626  0.00  0.00    +0.000 A 
ATOM     24  C   UNL     1      -2.186  11.075  18.539  0.00  0.00    +0.000 A 
ATOM     25  C   UNL     1      -1.298  11.576  19.490  0.00  0.00    +0.000 A 
ATOM     26  C   UNL     1       0.022  11.120  19.523  0.00  0.00    +0.000 A 
ENDBRANCH  20  21
ENDBRANCH   8  20
TORSDOF 4
ENDMDL
MODEL 4
REMARK VINA RESULT:      -7.7      1.865      7.681
REMARK  Name = 
REMARK  4 active torsions:
REMARK  status: ('A' for Active; 'I' for Inactive)
REMARK    1  A    between atoms: N_5  and  C_6
REMARK    2  A    between atoms: C_6  and  C_7
REMARK    3  A    between atoms: N_19  and  C_20
REMARK    4  A    between atoms: C_20  and  C_21
REMARK                            x       y       z     vdW  Elec       q    Type
REMARK                         _______ _______ _______ _____ _____    ______ ____
ROOT
ATOM      1  O   UNL     1       1.788   5.953  20.680  0.00  0.00    +0.000 OA
ATOM      2  C   UNL     1       1.906   6.957  20.009  0.00  0.00    +0.000 C 
ATOM      3  C   UNL     1       1.346   8.343  20.378  0.00  0.00    +0.000 C 
ATOM      4  O   UNL     1       0.681   8.583  21.363  0.00  0.00    +0.000 OA
ATOM      5  N   UNL     1       1.663   9.145  19.329  0.00  0.00    +0.000 N 
ATOM      6  C   UNL     1       2.220   8.388  18.332  0.00  0.00    +0.000 C 
ATOM      7  O   UNL     1       2.398   8.756  17.178  0.00  0.00    +0.000 OA
ATOM      8  N   UNL     1       2.450   7.117  18.779  0.00  0.00    +0.000 N 
ENDROOT
BRANCH   5   9
ATOM      9  C   UNL     1       1.164  10.492  19.164  0.00  0.00    +0.000 C 
BRANCH   9  10
ATOM     10  C   UNL     1      -0.303  10.563  18.780  0.00  0.00    +0.000 A 
ATOM     11  C   UNL     1      -0.717   9.835  17.647  0.00  0.00    +0.000 A 
ATOM     12  C   UNL     1      -2.013   9.947  17.158  0.00  0.00    +0.000 A 
ATOM     13  C   UNL     1      -2.929  10.770  17.805  0.00  0.00    +0.000 A 
ATOM     14  C   UNL     1      -2.573  11.465  18.969  0.00  0.00    +0.000 A 
ATOM     15  C   UNL     1      -3.530  12.258  19.622  0.00  0.00    +0.000 A 
ATOM     16  C   UNL     1      -3.217  12.949  20.790  0.00  0.00    +0.000 A 
ATOM     17  C   UNL     1      -1.933  12.864  21.309  0.00  0.00    +0.000 A 
ATOM     18  C   UNL     1      -0.965  12.094  20.659  0.00  0.00    +0.000 A 
ATOM     19  C   UNL     1      -1.251  11.368  19.480  0.00  0.00    +0.000 A 
ENDBRANCH   9  10
ENDBRANCH   5   9
BRANCH   8  20
ATOM     20  C   UNL     1       3.026   6.052  17.988  0.00  0.00    +0.000 C 
BRANCH  20  21
ATOM     21  C   UNL     1       4.532   6.040  18.101  0.00  0.00    +0.000 A 
ATOM     22  C   UNL     1       5.162   5.342  19.141  0.00  0.00    +0.000 A 
ATOM     23  C   UNL     1       6.551   5.374  19.275  0.00  0.00    +0.000 A 
ATOM     24  C   UNL     1       7.323   6.104  18.374  0.00  0.00    +0.000 A 
ATOM     25  C   UNL     1       6.709   6.799  17.334  0.00  0.00    +0.000 A 
ATOM     26  C   UNL     1       5.319   6.770  17.199  0.00  0.00    +0.000 A 
ENDBRANCH  20  21
ENDBRANCH   8  20
TORSDOF 4
ENDMDL
MODEL 5
REMARK VINA RESULT:      -7.5      4.715      7.709
REMARK  Name = 
REMARK  4 active torsions:
REMARK  status: ('A' for Active; 'I' for Inactive)
REMARK    1  A    between atoms: N_5  and  C_6
REMARK    2  A    between atoms: C_6  and  C_7
REMARK    3  A    between atoms: N_19  and  C_20
REMARK    4  A    between atoms: C_20  and  C_21
REMARK                            x       y       z     vdW  Elec       q    Type
REMARK                         _______ _______ _______ _____ _____    ______ ____
ROOT
ATOM      1  O   UNL     1       5.281   7.052  14.922  0.00  0.00    +0.000 OA
ATOM      2  C   UNL     1       5.458   6.398  15.928  0.00  0.00    +0.000 C 
ATOM      3  C   UNL     1       4.611   6.493  17.211  0.00  0.00    +0.000 C 
ATOM      4  O   UNL     1       3.695   7.269  17.382  0.00  0.00    +0.000 OA
ATOM      5  N   UNL     1       5.193   5.631  18.085  0.00  0.00    +0.000 N 
ATOM      6  C   UNL     1       6.346   5.137  17.535  0.00  0.00    +0.000 C 
ATOM      7  O   UNL     1       7.216   4.526  18.143  0.00  0.00    +0.000 OA
ATOM      8  N   UNL     1       6.443   5.517  16.225  0.00  0.00    +0.000 N 
ENDROOT
BRANCH   5   9
ATOM      9  C   UNL     1       4.837   5.540  19.484  0.00  0.00    +0.000 C 
BRANCH   9  10
ATOM     10  C   UNL     1       3.387   5.164  19.728  0.00  0.00    +0.000 A 
ATOM     11  C   UNL     1       2.594   6.068  20.462  0.00  0.00    +0.000 A 
ATOM     12  C   UNL     1       1.295   5.742  20.835  0.00  0.00    +0.000 A 
ATOM     13  C   UNL     1       0.754   4.516  20.461  0.00  0.00    +0.000 A 
ATOM     14  C   UNL     1       1.491   3.615  19.681  0.00  0.00    +0.000 A 
ATOM     15  C   UNL     1       0.904   2.401  19.286  0.00  0.00    +0.000 A 
ATOM     16  C   UNL     1       1.599   1.489  18.497  0.00  0.00    +0.000 A 
ATOM     17  C   UNL     1       2.899   1.776  18.105  0.00  0.00    +0.000 A 
ATOM     18  C   UNL     1       3.501   2.972  18.506  0.00  0.00    +0.000 A 
ATOM     19  C   UNL     1       2.822   3.928  19.295  0.00  0.00    +0.000 A 
ENDBRANCH   9  10
ENDBRANCH   5   9
BRANCH   8  20
ATOM     20  C   UNL     1       7.535   5.174  15.343  0.00  0.00    +0.000 C 
BRANCH  20  21
ATOM     21  C   UNL     1       7.028   4.615  14.036  0.00  0.00    +0.000 A 
ATOM     22  C   UNL     1       5.950   3.717  14.017  0.00  0.00    +0.000 A 
ATOM     23  C   UNL     1       5.515   3.160  12.812  0.00  0.00    +0.000 A 
ATOM     24  C   UNL     1       6.151   3.491  11.618  0.00  0.00    +0.000 A 
ATOM     25  C   UNL     1       7.220   4.385  11.624  0.00  0.00    +0.000 A 
ATOM     26  C   UNL     1       7.659   4.943  12.827  0.00  0.00    +0.000 A 
ENDBRANCH  20  21
ENDBRANCH   8  20
TORSDOF 4
ENDMDL
MODEL 6
REMARK VINA RESULT:      -7.5      0.791      1.437
REMARK  Name = 
REMARK  4 active torsions:
REMARK  status: ('A' for Active; 'I' for Inactive)
REMARK    1  A    between atoms: N_5  and  C_6
REMARK    2  A    between atoms: C_6  and  C_7
REMARK    3  A    between atoms: N_19  and  C_20
REMARK    4  A    between atoms: C_20  and  C_21
REMARK                            x       y       z     vdW  Elec       q    Type
REMARK                         _______ _______ _______ _____ _____    ______ ____
ROOT
ATOM      1  O   UNL     1      -0.475  10.273  20.953  0.00  0.00    +0.000 OA
ATOM      2  C   UNL     1       0.292   9.636  20.263  0.00  0.00    +0.000 C 
ATOM      3  C   UNL     1       1.149   8.451  20.748  0.00  0.00    +0.000 C 
ATOM      4  O   UNL     1       1.190   8.047  21.890  0.00  0.00    +0.000 OA
ATOM      5  N   UNL     1       1.887   8.082  19.670  0.00  0.00    +0.000 N 
ATOM      6  C   UNL     1       1.676   8.971  18.650  0.00  0.00    +0.000 C 
ATOM      7  O   UNL     1       2.356   9.060  17.634  0.00  0.00    +0.000 OA
ATOM      8  N   UNL     1       0.660   9.827  18.974  0.00  0.00    +0.000 N 
ENDROOT
BRANCH   5   9
ATOM      9  C   UNL     1       2.971   7.126  19.724  0.00  0.00    +0.000 C 
BRANCH   9  10
ATOM     10  C   UNL     1       2.790   5.936  18.798  0.00  0.00    +0.000 A 
ATOM     11  C   UNL     1       1.680   5.099  19.023  0.00  0.00    +0.000 A 
ATOM     12  C   UNL     1       1.513   3.922  18.300  0.00  0.00    +0.000 A 
ATOM     13  C   UNL     1       2.439   3.572  17.324  0.00  0.00    +0.000 A 
ATOM     14  C   UNL     1       3.524   4.408  17.031  0.00  0.00    +0.000 A 
ATOM     15  C   UNL     1       4.421   4.047  16.012  0.00  0.00    +0.000 A 
ATOM     16  C   UNL     1       5.501   4.862  15.682  0.00  0.00    +0.000 A 
ATOM     17  C   UNL     1       5.703   6.043  16.380  0.00  0.00    +0.000 A 
ATOM     18  C   UNL     1       4.830   6.406  17.408  0.00  0.00    +0.000 A 
ATOM     19  C   UNL     1       3.715   5.611  17.762  0.00  0.00    +0.000 A 
ENDBRANCH   9  10
ENDBRANCH   5   9
BRANCH   8  20
ATOM     20  C   UNL     1       0.177  10.896  18.129  0.00  0.00    +0.000 C 
BRANCH  20  21
ATOM     21  C   UNL     1      -1.318  10.805  17.934  0.00  0.00    +0.000 A 
ATOM     22  C   UNL     1      -2.174  11.724  18.559  0.00  0.00    +0.000 A 
ATOM     23  C   UNL     1      -3.558  11.608  18.420  0.00  0.00    +0.000 A 
ATOM     24  C   UNL     1      -4.101  10.575  17.659  0.00  0.00    +0.000 A 
ATOM     25  C   UNL     1      -3.260   9.658  17.030  0.00  0.00    +0.000 A 
ATOM     26  C   UNL     1      -1.875   9.770  17.169  0.00  0.00    +0.000 A 
ENDBRANCH  20  21
ENDBRANCH   8  20
TORSDOF 4
ENDMDL
MODEL 7
REMARK VINA RESULT:      -7.4      4.570      7.547
REMARK  Name = 
REMARK  4 active torsions:
REMARK  status: ('A' for Active; 'I' for Inactive)
REMARK    1  A    between atoms: N_5  and  C_6
REMARK    2  A    between atoms: C_6  and  C_7
REMARK    3  A    between atoms: N_19  and  C_20
REMARK    4  A    between atoms: C_20  and  C_21
REMARK                            x       y       z     vdW  Elec       q    Type
REMARK                         _______ _______ _______ _____ _____    ______ ____
ROOT
ATOM      1  O   UNL     1       7.693   4.492  18.227  0.00  0.00    +0.000 OA
ATOM      2  C   UNL     1       6.869   5.252  17.764  0.00  0.00    +0.000 C 
ATOM      3  C   UNL     1       5.608   5.749  18.496  0.00  0.00    +0.000 C 
ATOM      4  O   UNL     1       5.268   5.401  19.606  0.00  0.00    +0.000 OA
ATOM      5  N   UNL     1       4.957   6.527  17.593  0.00  0.00    +0.000 N 
ATOM      6  C   UNL     1       5.597   6.451  16.384  0.00  0.00    +0.000 C 
ATOM      7  O   UNL     1       5.142   6.840  15.315  0.00  0.00    +0.000 OA
ATOM      8  N   UNL     1       6.779   5.777  16.519  0.00  0.00    +0.000 N 
ENDROOT
BRANCH   5   9
ATOM      9  C   UNL     1       3.624   7.049  17.792  0.00  0.00    +0.000 C 
BRANCH   9  10
ATOM     10  C   UNL     1       2.763   6.205  18.714  0.00  0.00    +0.000 A 
ATOM     11  C   UNL     1       2.266   6.816  19.882  0.00  0.00    +0.000 A 
ATOM     12  C   UNL     1       1.576   6.079  20.838  0.00  0.00    +0.000 A 
ATOM     13  C   UNL     1       1.348   4.722  20.635  0.00  0.00    +0.000 A 
ATOM     14  C   UNL     1       1.776   4.091  19.459  0.00  0.00    +0.000 A 
ATOM     15  C   UNL     1       1.497   2.728  19.265  0.00  0.00    +0.000 A 
ATOM     16  C   UNL     1       1.892   2.072  18.102  0.00  0.00    +0.000 A 
ATOM     17  C   UNL     1       2.584   2.771  17.124  0.00  0.00    +0.000 A 
ATOM     18  C   UNL     1       2.884   4.123  17.312  0.00  0.00    +0.000 A 
ATOM     19  C   UNL     1       2.487   4.826  18.474  0.00  0.00    +0.000 A 
ENDBRANCH   9  10
ENDBRANCH   5   9
BRANCH   8  20
ATOM     20  C   UNL     1       7.707   5.509  15.443  0.00  0.00    +0.000 C 
BRANCH  20  21
ATOM     21  C   UNL     1       7.046   4.728  14.332  0.00  0.00    +0.000 A 
ATOM     22  C   UNL     1       7.518   4.826  13.016  0.00  0.00    +0.000 A 
ATOM     23  C   UNL     1       6.874   4.144  11.981  0.00  0.00    +0.000 A 
ATOM     24  C   UNL     1       5.755   3.359  12.251  0.00  0.00    +0.000 A 
ATOM     25  C   UNL     1       5.279   3.250  13.556  0.00  0.00    +0.000 A 
ATOM     26  C   UNL     1       5.920   3.933  14.593  0.00  0.00    +0.000 A 
ENDBRANCH  20  21
ENDBRANCH   8  20
TORSDOF 4
ENDMDL
MODEL 8
REMARK VINA RESULT:      -7.4      5.320      7.857
REMARK  Name = 
REMARK  4 active torsions:
REMARK  status: ('A' for Active; 'I' for Inactive)
REMARK    1  A    between atoms: N_5  and  C_6
REMARK    2  A    between atoms: C_6  and  C_7
REMARK    3  A    between atoms: N_19  and  C_20
REMARK    4  A    between atoms: C_20  and  C_21
REMARK                            x       y       z     vdW  Elec       q    Type
REMARK                         _______ _______ _______ _____ _____    ______ ____
ROOT
ATOM      1  O   UNL     1       8.151   4.096  17.572  0.00  0.00    +0.000 OA
ATOM      2  C   UNL     1       7.210   4.860  17.557  0.00  0.00    +0.000 C 
ATOM      3  C   UNL     1       6.106   4.932  18.629  0.00  0.00    +0.000 C 
ATOM      4  O   UNL     1       6.025   4.198  19.591  0.00  0.00    +0.000 OA
ATOM      5  N   UNL     1       5.240   5.879  18.184  0.00  0.00    +0.000 N 
ATOM      6  C   UNL     1       5.616   6.284  16.931  0.00  0.00    +0.000 C 
ATOM      7  O   UNL     1       4.927   6.946  16.164  0.00  0.00    +0.000 OA
ATOM      8  N   UNL     1       6.833   5.752  16.609  0.00  0.00    +0.000 N 
ENDROOT
BRANCH   5   9
ATOM      9  C   UNL     1       3.952   6.140  18.787  0.00  0.00    +0.000 C 
BRANCH   9  10
ATOM     10  C   UNL     1       2.951   5.012  18.614  0.00  0.00    +0.000 A 
ATOM     11  C   UNL     1       2.461   4.769  17.316  0.00  0.00    +0.000 A 
ATOM     12  C   UNL     1       1.451   3.840  17.094  0.00  0.00    +0.000 A 
ATOM     13  C   UNL     1       0.927   3.118  18.161  0.00  0.00    +0.000 A 
ATOM     14  C   UNL     1       1.429   3.289  19.458  0.00  0.00    +0.000 A 
ATOM     15  C   UNL     1       0.907   2.517  20.510  0.00  0.00    +0.000 A 
ATOM     16  C   UNL     1       1.393   2.649  21.808  0.00  0.00    +0.000 A 
ATOM     17  C   UNL     1       2.399   3.566  22.071  0.00  0.00    +0.000 A 
ATOM     18  C   UNL     1       2.915   4.353  21.038  0.00  0.00    +0.000 A 
ATOM     19  C   UNL     1       2.457   4.238  19.706  0.00  0.00    +0.000 A 
ENDBRANCH   9  10
ENDBRANCH   5   9
BRANCH   8  20
ATOM     20  C   UNL     1       7.528   5.968  15.360  0.00  0.00    +0.000 C 
BRANCH  20  21
ATOM     21  C   UNL     1       7.026   5.034  14.286  0.00  0.00    +0.000 A 
ATOM     22  C   UNL     1       7.677   4.961  13.046  0.00  0.00    +0.000 A 
ATOM     23  C   UNL     1       7.182   4.135  12.034  0.00  0.00    +0.000 A 
ATOM     24  C   UNL     1       6.033   3.378  12.250  0.00  0.00    +0.000 A 
ATOM     25  C   UNL     1       5.379   3.439  13.479  0.00  0.00    +0.000 A 
ATOM     26  C   UNL     1       5.871   4.265  14.492  0.00  0.00    +0.000 A 
ENDBRANCH  20  21
ENDBRANCH   8  20
TORSDOF 4
ENDMDL
MODEL 9
REMARK VINA RESULT:      -7.3      1.650      7.633
REMARK  Name = 
REMARK  4 active torsions:
REMARK  status: ('A' for Active; 'I' for Inactive)
REMARK    1  A    between atoms: N_5  and  C_6
REMARK    2  A    between atoms: C_6  and  C_7
REMARK    3  A    between atoms: N_19  and  C_20
REMARK    4  A    between atoms: C_20  and  C_21
REMARK                            x       y       z     vdW  Elec       q    Type
REMARK                         _______ _______ _______ _____ _____    ______ ____
ROOT
ATOM      1  O   UNL     1       3.366   6.200  18.098  0.00  0.00    +0.000 OA
ATOM      2  C   UNL     1       2.653   6.967  18.709  0.00  0.00    +0.000 C 
ATOM      3  C   UNL     1       2.196   8.349  18.206  0.00  0.00    +0.000 C 
ATOM      4  O   UNL     1       2.535   8.852  17.156  0.00  0.00    +0.000 OA
ATOM      5  N   UNL     1       1.467   8.875  19.224  0.00  0.00    +0.000 N 
ATOM      6  C   UNL     1       1.541   8.043  20.310  0.00  0.00    +0.000 C 
ATOM      7  O   UNL     1       1.195   8.333  21.449  0.00  0.00    +0.000 OA
ATOM      8  N   UNL     1       2.159   6.874  19.967  0.00  0.00    +0.000 N 
ENDROOT
BRANCH   5   9
ATOM      9  C   UNL     1       1.001  10.243  19.259  0.00  0.00    +0.000 C 
BRANCH   9  10
ATOM     10  C   UNL     1      -0.437  10.415  18.803  0.00  0.00    +0.000 A 
ATOM     11  C   UNL     1      -0.833   9.744  17.629  0.00  0.00    +0.000 A 
ATOM     12  C   UNL     1      -2.093   9.949  17.078  0.00  0.00    +0.000 A 
ATOM     13  C   UNL     1      -2.990  10.810  17.701  0.00  0.00    +0.000 A 
ATOM     14  C   UNL     1      -2.654  11.450  18.901  0.00  0.00    +0.000 A 
ATOM     15  C   UNL     1      -3.596  12.284  19.528  0.00  0.00    +0.000 A 
ATOM     16  C   UNL     1      -3.303  12.923  20.730  0.00  0.00    +0.000 A 
ATOM     17  C   UNL     1      -2.056  12.745  21.312  0.00  0.00    +0.000 A 
ATOM     18  C   UNL     1      -1.104  11.934  20.690  0.00  0.00    +0.000 A 
ATOM     19  C   UNL     1      -1.370  11.258  19.477  0.00  0.00    +0.000 A 
ENDBRANCH   9  10
ENDBRANCH   5   9
BRANCH   8  20
ATOM     20  C   UNL     1       2.408   5.773  20.870  0.00  0.00    +0.000 C 
BRANCH  20  21
ATOM     21  C   UNL     1       2.174   4.445  20.192  0.00  0.00    +0.000 A 
ATOM     22  C   UNL     1       0.872   4.026  19.879  0.00  0.00    +0.000 A 
ATOM     23  C   UNL     1       0.652   2.775  19.299  0.00  0.00    +0.000 A 
ATOM     24  C   UNL     1       1.727   1.931  19.028  0.00  0.00    +0.000 A 
ATOM     25  C   UNL     1       3.025   2.337  19.331  0.00  0.00    +0.000 A 
ATOM     26  C   UNL     1       3.248   3.588  19.913  0.00  0.00    +0.000 A 
ENDBRANCH  20  21
ENDBRANCH   8  20
TORSDOF 4
ENDMDL
