MODEL 1
REMARK VINA RESULT:      -8.3      0.000      0.000
REMARK  Name = 
REMARK  5 active torsions:
REMARK  status: ('A' for Active; 'I' for Inactive)
REMARK    1  A    between atoms: C_2  and  C_3
REMARK    2  A    between atoms: C_3  and  N_4
REMARK    3  A    between atoms: N_15  and  C_16
REMARK    4  A    between atoms: N_20  and  C_21
REMARK    5  A    between atoms: C_21  and  C_22
REMARK                            x       y       z     vdW  Elec       q    Type
REMARK                         _______ _______ _______ _____ _____    ______ ____
ROOT
ATOM      1  O   UNL     1       1.967   6.198  17.586  0.00  0.00    +0.000 OA
ATOM      2  C   UNL     1       2.396   6.994  18.412  0.00  0.00    +0.000 C 
ATOM      3  N   UNL     1       3.200   6.539  19.531  0.00  0.00    +0.000 N 
ATOM      4  H   UNL     1       3.519   7.268  20.173  0.00  0.00    +0.000 HD
ENDROOT
BRANCH   3   5
ATOM      5  C   UNL     1       3.569   5.208  19.724  0.00  0.00    +0.000 A 
ATOM      6  C   UNL     1       2.784   4.191  20.228  0.00  0.00    +0.000 A 
ATOM      7  C   UNL     1       3.587   3.039  20.211  0.00  0.00    +0.000 A 
ATOM      8  N   UNL     1       4.808   3.287  19.740  0.00  0.00    +0.000 NA
ATOM      9  N   UNL     1       4.775   4.603  19.423  0.00  0.00    +0.000 N 
BRANCH   9  10
ATOM     10  C   UNL     1       6.000   5.212  18.927  0.00  0.00    +0.000 C 
BRANCH  10  11
ATOM     11  C   UNL     1       6.094   5.118  17.430  0.00  0.00    +0.000 A 
ATOM     12  C   UNL     1       5.080   5.607  16.595  0.00  0.00    +0.000 A 
ATOM     13  C   UNL     1       5.218   5.539  15.204  0.00  0.00    +0.000 A 
ATOM     14  C   UNL     1       6.367   4.986  14.637  0.00  0.00    +0.000 A 
ATOM     15  C   UNL     1       7.378   4.495  15.460  0.00  0.00    +0.000 A 
ATOM     16  C   UNL     1       7.233   4.571  16.840  0.00  0.00    +0.000 A 
ATOM     17  F   UNL     1       8.215   4.114  17.626  0.00  0.00    +0.000 F 
ENDBRANCH  10  11
ENDBRANCH   9  10
ENDBRANCH   3   5
BRANCH   2  18
ATOM     18  C   UNL     1       2.253   8.492  18.241  0.00  0.00    +0.000 C 
BRANCH  18  19
ATOM     19  N   UNL     1       1.511   9.098  19.316  0.00  0.00    +0.000 N 
ATOM     20  N   UNL     1       0.949   8.405  20.349  0.00  0.00    +0.000 NA
ATOM     21  C   UNL     1       0.392   9.329  21.087  0.00  0.00    +0.000 A 
ATOM     22  N   UNL     1       0.501  10.575  20.590  0.00  0.00    +0.000 N 
ATOM     23  C   UNL     1       1.251  10.461  19.446  0.00  0.00    +0.000 A 
ATOM     24  O   UNL     1       1.608  11.344  18.687  0.00  0.00    +0.000 OA
ATOM     25  C   UNL     1       0.013  11.845  21.099  0.00  0.00    +0.000 C 
ATOM     26  C   UNL     1      -1.408  11.732  21.637  0.00  0.00    +0.000 C 
ATOM     27  C   UNL     1      -1.478  11.160  23.052  0.00  0.00    +0.000 C 
ATOM     28  C   UNL     1      -0.449  10.076  23.378  0.00  0.00    +0.000 C 
ATOM     29  C   UNL     1      -0.382   8.979  22.328  0.00  0.00    +0.000 C 
ENDBRANCH  18  19
ENDBRANCH   2  18
TORSDOF 5
ENDMDL
MODEL 2
REMARK VINA RESULT:      -8.3      1.352      1.851
REMARK  Name = 
REMARK  5 active torsions:
REMARK  status: ('A' for Active; 'I' for Inactive)
REMARK    1  A    between atoms: C_2  and  C_3
REMARK    2  A    between atoms: C_3  and  N_4
REMARK    3  A    between atoms: N_15  and  C_16
REMARK    4  A    between atoms: N_20  and  C_21
REMARK    5  A    between atoms: C_21  and  C_22
REMARK                            x       y       z     vdW  Elec       q    Type
REMARK                         _______ _______ _______ _____ _____    ______ ____
ROOT
ATOM      1  O   UNL     1       1.763   6.030  17.594  0.00  0.00    +0.000 OA
ATOM      2  C   UNL     1       2.337   6.767  18.385  0.00  0.00    +0.000 C 
ATOM      3  N   UNL     1       3.164   6.218  19.443  0.00  0.00    +0.000 N 
ATOM      4  H   UNL     1       3.609   6.903  20.058  0.00  0.00    +0.000 HD
ENDROOT
BRANCH   3   5
ATOM      5  C   UNL     1       3.395   4.854  19.611  0.00  0.00    +0.000 A 
ATOM      6  C   UNL     1       2.937   4.051  20.637  0.00  0.00    +0.000 A 
ATOM      7  C   UNL     1       3.411   2.760  20.358  0.00  0.00    +0.000 A 
ATOM      8  N   UNL     1       4.132   2.721  19.239  0.00  0.00    +0.000 NA
ATOM      9  N   UNL     1       4.093   3.995  18.782  0.00  0.00    +0.000 N 
BRANCH   9  10
ATOM     10  C   UNL     1       4.850   4.308  17.579  0.00  0.00    +0.000 C 
BRANCH  10  11
ATOM     11  C   UNL     1       5.930   5.316  17.857  0.00  0.00    +0.000 A 
ATOM     12  C   UNL     1       6.931   5.082  18.810  0.00  0.00    +0.000 A 
ATOM     13  C   UNL     1       7.944   6.026  19.015  0.00  0.00    +0.000 A 
ATOM     14  C   UNL     1       7.968   7.205  18.269  0.00  0.00    +0.000 A 
ATOM     15  C   UNL     1       6.976   7.446  17.321  0.00  0.00    +0.000 A 
ATOM     16  C   UNL     1       5.977   6.501  17.123  0.00  0.00    +0.000 A 
ATOM     17  F   UNL     1       5.036   6.730  16.199  0.00  0.00    +0.000 F 
ENDBRANCH  10  11
ENDBRANCH   9  10
ENDBRANCH   3   5
BRANCH   2  18
ATOM     18  C   UNL     1       2.350   8.273  18.222  0.00  0.00    +0.000 C 
BRANCH  18  19
ATOM     19  N   UNL     1       1.600   8.943  19.252  0.00  0.00    +0.000 N 
ATOM     20  N   UNL     1       1.023   8.312  20.316  0.00  0.00    +0.000 NA
ATOM     21  C   UNL     1       0.463   9.280  20.994  0.00  0.00    +0.000 A 
ATOM     22  N   UNL     1       0.585  10.495  20.428  0.00  0.00    +0.000 N 
ATOM     23  C   UNL     1       1.347  10.313  19.302  0.00  0.00    +0.000 A 
ATOM     24  O   UNL     1       1.717  11.149  18.498  0.00  0.00    +0.000 OA
ATOM     25  C   UNL     1       0.098  11.794  20.860  0.00  0.00    +0.000 C 
ATOM     26  C   UNL     1      -1.329  11.719  21.386  0.00  0.00    +0.000 C 
ATOM     27  C   UNL     1      -1.419  11.229  22.831  0.00  0.00    +0.000 C 
ATOM     28  C   UNL     1      -0.400  10.160  23.230  0.00  0.00    +0.000 C 
ATOM     29  C   UNL     1      -0.327   9.005  22.244  0.00  0.00    +0.000 C 
ENDBRANCH  18  19
ENDBRANCH   2  18
TORSDOF 5
ENDMDL
MODEL 3
REMARK VINA RESULT:      -8.2      0.960      1.179
REMARK  Name = 
REMARK  5 active torsions:
REMARK  status: ('A' for Active; 'I' for Inactive)
REMARK    1  A    between atoms: C_2  and  C_3
REMARK    2  A    between atoms: C_3  and  N_4
REMARK    3  A    between atoms: N_15  and  C_16
REMARK    4  A    between atoms: N_20  and  C_21
REMARK    5  A    between atoms: C_21  and  C_22
REMARK                            x       y       z     vdW  Elec       q    Type
REMARK                         _______ _______ _______ _____ _____    ______ ____
ROOT
ATOM      1  O   UNL     1       1.833   5.947  17.685  0.00  0.00    +0.000 OA
ATOM      2  C   UNL     1       2.345   6.744  18.462  0.00  0.00    +0.000 C 
ATOM      3  N   UNL     1       3.202   6.282  19.538  0.00  0.00    +0.000 N 
ATOM      4  H   UNL     1       3.590   7.012  20.139  0.00  0.00    +0.000 HD
ENDROOT
BRANCH   3   5
ATOM      5  C   UNL     1       3.530   4.943  19.740  0.00  0.00    +0.000 A 
ATOM      6  C   UNL     1       2.736   3.966  20.306  0.00  0.00    +0.000 A 
ATOM      7  C   UNL     1       3.494   2.784  20.273  0.00  0.00    +0.000 A 
ATOM      8  N   UNL     1       4.697   2.976  19.735  0.00  0.00    +0.000 NA
ATOM      9  N   UNL     1       4.696   4.286  19.392  0.00  0.00    +0.000 N 
BRANCH   9  10
ATOM     10  C   UNL     1       5.916   4.838  18.821  0.00  0.00    +0.000 C 
BRANCH  10  11
ATOM     11  C   UNL     1       5.831   4.923  17.323  0.00  0.00    +0.000 A 
ATOM     12  C   UNL     1       5.968   3.789  16.510  0.00  0.00    +0.000 A 
ATOM     13  C   UNL     1       5.844   3.899  15.121  0.00  0.00    +0.000 A 
ATOM     14  C   UNL     1       5.581   5.137  14.533  0.00  0.00    +0.000 A 
ATOM     15  C   UNL     1       5.446   6.269  15.333  0.00  0.00    +0.000 A 
ATOM     16  C   UNL     1       5.567   6.149  16.712  0.00  0.00    +0.000 A 
ATOM     17  F   UNL     1       5.419   7.237  17.478  0.00  0.00    +0.000 F 
ENDBRANCH  10  11
ENDBRANCH   9  10
ENDBRANCH   3   5
BRANCH   2  18
ATOM     18  C   UNL     1       2.249   8.242  18.263  0.00  0.00    +0.000 C 
BRANCH  18  19
ATOM     19  N   UNL     1       1.515   8.890  19.318  0.00  0.00    +0.000 N 
ATOM     20  N   UNL     1       0.961   8.237  20.382  0.00  0.00    +0.000 NA
ATOM     21  C   UNL     1       0.409   9.190  21.087  0.00  0.00    +0.000 A 
ATOM     22  N   UNL     1       0.514  10.415  20.540  0.00  0.00    +0.000 N 
ATOM     23  C   UNL     1       1.256  10.257  19.397  0.00  0.00    +0.000 A 
ATOM     24  O   UNL     1       1.606  11.110  18.601  0.00  0.00    +0.000 OA
ATOM     25  C   UNL     1       0.029  11.704  21.003  0.00  0.00    +0.000 C 
ATOM     26  C   UNL     1      -1.388  11.612  21.556  0.00  0.00    +0.000 C 
ATOM     27  C   UNL     1      -1.447  11.096  22.993  0.00  0.00    +0.000 C 
ATOM     28  C   UNL     1      -0.415  10.026  23.353  0.00  0.00    +0.000 C 
ATOM     29  C   UNL     1      -0.355   8.889  22.347  0.00  0.00    +0.000 C 
ENDBRANCH  18  19
ENDBRANCH   2  18
TORSDOF 5
ENDMDL
MODEL 4
REMARK VINA RESULT:      -8.2      1.660      2.081
REMARK  Name = 
REMARK  5 active torsions:
REMARK  status: ('A' for Active; 'I' for Inactive)
REMARK    1  A    between atoms: C_2  and  C_3
REMARK    2  A    between atoms: C_3  and  N_4
REMARK    3  A    between atoms: N_15  and  C_16
REMARK    4  A    between atoms: N_20  and  C_21
REMARK    5  A    between atoms: C_21  and  C_22
REMARK                            x       y       z     vdW  Elec       q    Type
REMARK                         _______ _______ _______ _____ _____    ______ ____
ROOT
ATOM      1  O   UNL     1       3.285   6.621  19.548  0.00  0.00    +0.000 OA
ATOM      2  C   UNL     1       2.653   6.881  18.532  0.00  0.00    +0.000 C 
ATOM      3  N   UNL     1       2.136   5.819  17.689  0.00  0.00    +0.000 N 
ATOM      4  H   UNL     1       1.618   6.123  16.861  0.00  0.00    +0.000 HD
ENDROOT
BRANCH   3   5
ATOM      5  C   UNL     1       2.282   4.464  17.981  0.00  0.00    +0.000 A 
ATOM      6  C   UNL     1       1.495   3.704  18.824  0.00  0.00    +0.000 A 
ATOM      7  C   UNL     1       2.022   2.403  18.775  0.00  0.00    +0.000 A 
ATOM      8  N   UNL     1       3.078   2.320  17.969  0.00  0.00    +0.000 NA
ATOM      9  N   UNL     1       3.210   3.573  17.473  0.00  0.00    +0.000 N 
BRANCH   9  10
ATOM     10  C   UNL     1       4.333   3.837  16.586  0.00  0.00    +0.000 C 
BRANCH  10  11
ATOM     11  C   UNL     1       5.329   4.766  17.222  0.00  0.00    +0.000 A 
ATOM     12  C   UNL     1       5.919   4.480  18.461  0.00  0.00    +0.000 A 
ATOM     13  C   UNL     1       6.872   5.348  19.005  0.00  0.00    +0.000 A 
ATOM     14  C   UNL     1       7.245   6.504  18.317  0.00  0.00    +0.000 A 
ATOM     15  C   UNL     1       6.662   6.797  17.087  0.00  0.00    +0.000 A 
ATOM     16  C   UNL     1       5.719   5.927  16.553  0.00  0.00    +0.000 A 
ATOM     17  F   UNL     1       5.175   6.204  15.362  0.00  0.00    +0.000 F 
ENDBRANCH  10  11
ENDBRANCH   9  10
ENDBRANCH   3   5
BRANCH   2  18
ATOM     18  C   UNL     1       2.239   8.294  18.177  0.00  0.00    +0.000 C 
BRANCH  18  19
ATOM     19  N   UNL     1       1.523   8.940  19.246  0.00  0.00    +0.000 N 
ATOM     20  N   UNL     1       0.962   8.283  20.303  0.00  0.00    +0.000 NA
ATOM     21  C   UNL     1       0.432   9.236  21.025  0.00  0.00    +0.000 A 
ATOM     22  N   UNL     1       0.557  10.467  20.495  0.00  0.00    +0.000 N 
ATOM     23  C   UNL     1       1.290  10.311  19.346  0.00  0.00    +0.000 A 
ATOM     24  O   UNL     1       1.653  11.168  18.560  0.00  0.00    +0.000 OA
ATOM     25  C   UNL     1       0.099  11.758  20.979  0.00  0.00    +0.000 C 
ATOM     26  C   UNL     1      -1.316  11.685  21.538  0.00  0.00    +0.000 C 
ATOM     27  C   UNL     1      -1.378  11.150  22.968  0.00  0.00    +0.000 C 
ATOM     28  C   UNL     1      -0.365  10.056  23.307  0.00  0.00    +0.000 C 
ATOM     29  C   UNL     1      -0.332   8.932  22.285  0.00  0.00    +0.000 C 
ENDBRANCH  18  19
ENDBRANCH   2  18
TORSDOF 5
ENDMDL
MODEL 5
REMARK VINA RESULT:      -8.0      1.987      3.632
REMARK  Name = 
REMARK  5 active torsions:
REMARK  status: ('A' for Active; 'I' for Inactive)
REMARK    1  A    between atoms: C_2  and  C_3
REMARK    2  A    between atoms: C_3  and  N_4
REMARK    3  A    between atoms: N_15  and  C_16
REMARK    4  A    between atoms: N_20  and  C_21
REMARK    5  A    between atoms: C_21  and  C_22
REMARK                            x       y       z     vdW  Elec       q    Type
REMARK                         _______ _______ _______ _____ _____    ______ ____
ROOT
ATOM      1  O   UNL     1       3.135   6.793  19.549  0.00  0.00    +0.000 OA
ATOM      2  C   UNL     1       3.142   7.339  18.453  0.00  0.00    +0.000 C 
ATOM      3  N   UNL     1       4.159   7.015  17.471  0.00  0.00    +0.000 N 
ATOM      4  H   UNL     1       4.091   7.515  16.581  0.00  0.00    +0.000 HD
ENDROOT
BRANCH   3   5
ATOM      5  C   UNL     1       5.153   6.060  17.677  0.00  0.00    +0.000 A 
ATOM      6  C   UNL     1       6.481   6.289  17.974  0.00  0.00    +0.000 A 
ATOM      7  C   UNL     1       7.072   5.022  18.107  0.00  0.00    +0.000 A 
ATOM      8  N   UNL     1       6.198   4.039  17.904  0.00  0.00    +0.000 NA
ATOM      9  N   UNL     1       5.030   4.682  17.669  0.00  0.00    +0.000 N 
BRANCH   9  10
ATOM     10  C   UNL     1       3.864   3.875  17.344  0.00  0.00    +0.000 C 
BRANCH  10  11
ATOM     11  C   UNL     1       3.040   3.582  18.567  0.00  0.00    +0.000 A 
ATOM     12  C   UNL     1       3.601   3.001  19.712  0.00  0.00    +0.000 A 
ATOM     13  C   UNL     1       2.813   2.779  20.847  0.00  0.00    +0.000 A 
ATOM     14  C   UNL     1       1.464   3.137  20.849  0.00  0.00    +0.000 A 
ATOM     15  C   UNL     1       0.899   3.713  19.714  0.00  0.00    +0.000 A 
ATOM     16  C   UNL     1       1.691   3.933  18.593  0.00  0.00    +0.000 A 
ATOM     17  F   UNL     1       1.147   4.503  17.511  0.00  0.00    +0.000 F 
ENDBRANCH  10  11
ENDBRANCH   9  10
ENDBRANCH   3   5
BRANCH   2  18
ATOM     18  C   UNL     1       2.022   8.252  17.998  0.00  0.00    +0.000 C 
BRANCH  18  19
ATOM     19  N   UNL     1       1.375   8.917  19.099  0.00  0.00    +0.000 N 
ATOM     20  N   UNL     1       0.798   8.271  20.154  0.00  0.00    +0.000 NA
ATOM     21  C   UNL     1       0.348   9.238  20.911  0.00  0.00    +0.000 A 
ATOM     22  N   UNL     1       0.539  10.470  20.406  0.00  0.00    +0.000 N 
ATOM     23  C   UNL     1       1.233  10.296  19.235  0.00  0.00    +0.000 A 
ATOM     24  O   UNL     1       1.631  11.148  18.461  0.00  0.00    +0.000 OA
ATOM     25  C   UNL     1       0.177  11.776  20.931  0.00  0.00    +0.000 C 
ATOM     26  C   UNL     1      -1.226  11.780  21.523  0.00  0.00    +0.000 C 
ATOM     27  C   UNL     1      -1.289  11.215  22.942  0.00  0.00    +0.000 C 
ATOM     28  C   UNL     1      -0.340  10.051  23.231  0.00  0.00    +0.000 C 
ATOM     29  C   UNL     1      -0.404   8.952  22.182  0.00  0.00    +0.000 C 
ENDBRANCH  18  19
ENDBRANCH   2  18
TORSDOF 5
ENDMDL
MODEL 6
REMARK VINA RESULT:      -8.0      1.198      1.272
REMARK  Name = 
REMARK  5 active torsions:
REMARK  status: ('A' for Active; 'I' for Inactive)
REMARK    1  A    between atoms: C_2  and  C_3
REMARK    2  A    between atoms: C_3  and  N_4
REMARK    3  A    between atoms: N_15  and  C_16
REMARK    4  A    between atoms: N_20  and  C_21
REMARK    5  A    between atoms: C_21  and  C_22
REMARK                            x       y       z     vdW  Elec       q    Type
REMARK                         _______ _______ _______ _____ _____    ______ ____
ROOT
ATOM      1  O   UNL     1       1.890   6.001  17.690  0.00  0.00    +0.000 OA
ATOM      2  C   UNL     1       2.262   6.724  18.606  0.00  0.00    +0.000 C 
ATOM      3  N   UNL     1       2.738   6.153  19.852  0.00  0.00    +0.000 N 
ATOM      4  H   UNL     1       3.031   6.826  20.564  0.00  0.00    +0.000 HD
ENDROOT
BRANCH   3   5
ATOM      5  C   UNL     1       2.842   4.782  20.082  0.00  0.00    +0.000 A 
ATOM      6  C   UNL     1       1.858   3.939  20.559  0.00  0.00    +0.000 A 
ATOM      7  C   UNL     1       2.431   2.658  20.599  0.00  0.00    +0.000 A 
ATOM      8  N   UNL     1       3.698   2.664  20.187  0.00  0.00    +0.000 NA
ATOM      9  N   UNL     1       3.927   3.955  19.851  0.00  0.00    +0.000 N 
BRANCH   9  10
ATOM     10  C   UNL     1       5.266   4.315  19.410  0.00  0.00    +0.000 C 
BRANCH  10  11
ATOM     11  C   UNL     1       5.258   4.841  18.002  0.00  0.00    +0.000 A 
ATOM     12  C   UNL     1       5.645   6.154  17.702  0.00  0.00    +0.000 A 
ATOM     13  C   UNL     1       5.663   6.599  16.376  0.00  0.00    +0.000 A 
ATOM     14  C   UNL     1       5.299   5.737  15.340  0.00  0.00    +0.000 A 
ATOM     15  C   UNL     1       4.911   4.431  15.629  0.00  0.00    +0.000 A 
ATOM     16  C   UNL     1       4.899   3.998  16.949  0.00  0.00    +0.000 A 
ATOM     17  F   UNL     1       4.543   2.737  17.220  0.00  0.00    +0.000 F 
ENDBRANCH  10  11
ENDBRANCH   9  10
ENDBRANCH   3   5
BRANCH   2  18
ATOM     18  C   UNL     1       2.398   8.224  18.448  0.00  0.00    +0.000 C 
BRANCH  18  19
ATOM     19  N   UNL     1       1.598   8.950  19.399  0.00  0.00    +0.000 N 
ATOM     20  N   UNL     1       0.999   8.386  20.489  0.00  0.00    +0.000 NA
ATOM     21  C   UNL     1       0.394   9.388  21.072  0.00  0.00    +0.000 A 
ATOM     22  N   UNL     1       0.506  10.559  20.420  0.00  0.00    +0.000 N 
ATOM     23  C   UNL     1       1.310  10.312  19.336  0.00  0.00    +0.000 A 
ATOM     24  O   UNL     1       1.688  11.095  18.482  0.00  0.00    +0.000 OA
ATOM     25  C   UNL     1      -0.026  11.874  20.734  0.00  0.00    +0.000 C 
ATOM     26  C   UNL     1      -1.468  11.802  21.219  0.00  0.00    +0.000 C 
ATOM     27  C   UNL     1      -1.596  11.421  22.693  0.00  0.00    +0.000 C 
ATOM     28  C   UNL     1      -0.566  10.412  23.205  0.00  0.00    +0.000 C 
ATOM     29  C   UNL     1      -0.432   9.188  22.314  0.00  0.00    +0.000 C 
ENDBRANCH  18  19
ENDBRANCH   2  18
TORSDOF 5
ENDMDL
MODEL 7
REMARK VINA RESULT:      -8.0      3.977      9.101
REMARK  Name = 
REMARK  5 active torsions:
REMARK  status: ('A' for Active; 'I' for Inactive)
REMARK    1  A    between atoms: C_2  and  C_3
REMARK    2  A    between atoms: C_3  and  N_4
REMARK    3  A    between atoms: N_15  and  C_16
REMARK    4  A    between atoms: N_20  and  C_21
REMARK    5  A    between atoms: C_21  and  C_22
REMARK                            x       y       z     vdW  Elec       q    Type
REMARK                         _______ _______ _______ _____ _____    ______ ____
ROOT
ATOM      1  O   UNL     1       1.877   9.055  17.260  0.00  0.00    +0.000 OA
ATOM      2  C   UNL     1       1.861   8.806  18.459  0.00  0.00    +0.000 C 
ATOM      3  N   UNL     1       1.460   9.816  19.420  0.00  0.00    +0.000 N 
ATOM      4  H   UNL     1       1.473   9.525  20.400  0.00  0.00    +0.000 HD
ENDROOT
BRANCH   3   5
ATOM      5  C   UNL     1       1.038  11.096  19.062  0.00  0.00    +0.000 A 
ATOM      6  C   UNL     1       1.834  12.186  18.773  0.00  0.00    +0.000 A 
ATOM      7  C   UNL     1       0.954  13.232  18.451  0.00  0.00    +0.000 A 
ATOM      8  N   UNL     1      -0.321  12.857  18.533  0.00  0.00    +0.000 NA
ATOM      9  N   UNL     1      -0.256  11.550  18.879  0.00  0.00    +0.000 N 
BRANCH   9  10
ATOM     10  C   UNL     1      -1.508  10.846  19.111  0.00  0.00    +0.000 C 
BRANCH  10  11
ATOM     11  C   UNL     1      -2.328  10.754  17.854  0.00  0.00    +0.000 A 
ATOM     12  C   UNL     1      -1.929   9.961  16.769  0.00  0.00    +0.000 A 
ATOM     13  C   UNL     1      -2.736   9.868  15.630  0.00  0.00    +0.000 A 
ATOM     14  C   UNL     1      -3.946  10.561  15.567  0.00  0.00    +0.000 A 
ATOM     15  C   UNL     1      -4.348  11.353  16.639  0.00  0.00    +0.000 A 
ATOM     16  C   UNL     1      -3.541  11.436  17.767  0.00  0.00    +0.000 A 
ATOM     17  F   UNL     1      -3.941  12.185  18.802  0.00  0.00    +0.000 F 
ENDBRANCH  10  11
ENDBRANCH   9  10
ENDBRANCH   3   5
BRANCH   2  18
ATOM     18  C   UNL     1       2.101   7.411  18.997  0.00  0.00    +0.000 C 
BRANCH  18  19
ATOM     19  N   UNL     1       3.156   6.726  18.298  0.00  0.00    +0.000 N 
ATOM     20  N   UNL     1       4.388   7.262  18.050  0.00  0.00    +0.000 NA
ATOM     21  C   UNL     1       5.024   6.314  17.412  0.00  0.00    +0.000 A 
ATOM     22  N   UNL     1       4.286   5.214  17.176  0.00  0.00    +0.000 N 
ATOM     23  C   UNL     1       3.069   5.441  17.767  0.00  0.00    +0.000 A 
ATOM     24  O   UNL     1       2.103   4.700  17.813  0.00  0.00    +0.000 OA
ATOM     25  C   UNL     1       4.624   3.975  16.497  0.00  0.00    +0.000 C 
ATOM     26  C   UNL     1       5.423   4.224  15.224  0.00  0.00    +0.000 C 
ATOM     27  C   UNL     1       6.910   4.467  15.478  0.00  0.00    +0.000 C 
ATOM     28  C   UNL     1       7.244   5.241  16.754  0.00  0.00    +0.000 C 
ATOM     29  C   UNL     1       6.429   6.514  16.913  0.00  0.00    +0.000 C 
ENDBRANCH  18  19
ENDBRANCH   2  18
TORSDOF 5
ENDMDL
MODEL 8
REMARK VINA RESULT:      -8.0      2.524      4.425
REMARK  Name = 
REMARK  5 active torsions:
REMARK  status: ('A' for Active; 'I' for Inactive)
REMARK    1  A    between atoms: C_2  and  C_3
REMARK    2  A    between atoms: C_3  and  N_4
REMARK    3  A    between atoms: N_15  and  C_16
REMARK    4  A    between atoms: N_20  and  C_21
REMARK    5  A    between atoms: C_21  and  C_22
REMARK                            x       y       z     vdW  Elec       q    Type
REMARK                         _______ _______ _______ _____ _____    ______ ____
ROOT
ATOM      1  O   UNL     1       2.921   7.001  19.469  0.00  0.00    +0.000 OA
ATOM      2  C   UNL     1       2.804   7.420  18.325  0.00  0.00    +0.000 C 
ATOM      3  N   UNL     1       3.775   7.071  17.305  0.00  0.00    +0.000 N 
ATOM      4  H   UNL     1       3.601   7.461  16.375  0.00  0.00    +0.000 HD
ENDROOT
BRANCH   3   5
ATOM      5  C   UNL     1       4.860   6.226  17.531  0.00  0.00    +0.000 A 
ATOM      6  C   UNL     1       6.164   6.596  17.794  0.00  0.00    +0.000 A 
ATOM      7  C   UNL     1       6.878   5.400  17.968  0.00  0.00    +0.000 A 
ATOM      8  N   UNL     1       6.102   4.328  17.822  0.00  0.00    +0.000 NA
ATOM      9  N   UNL     1       4.873   4.844  17.582  0.00  0.00    +0.000 N 
BRANCH   9  10
ATOM     10  C   UNL     1       3.787   3.914  17.313  0.00  0.00    +0.000 C 
BRANCH  10  11
ATOM     11  C   UNL     1       2.991   3.624  18.555  0.00  0.00    +0.000 A 
ATOM     12  C   UNL     1       3.587   3.090  19.705  0.00  0.00    +0.000 A 
ATOM     13  C   UNL     1       2.823   2.869  20.857  0.00  0.00    +0.000 A 
ATOM     14  C   UNL     1       1.463   3.183  20.870  0.00  0.00    +0.000 A 
ATOM     15  C   UNL     1       0.863   3.712  19.731  0.00  0.00    +0.000 A 
ATOM     16  C   UNL     1       1.631   3.931  18.593  0.00  0.00    +0.000 A 
ATOM     17  F   UNL     1       1.053   4.456  17.506  0.00  0.00    +0.000 F 
ENDBRANCH  10  11
ENDBRANCH   9  10
ENDBRANCH   3   5
BRANCH   2  18
ATOM     18  C   UNL     1       1.580   8.185  17.866  0.00  0.00    +0.000 C 
BRANCH  18  19
ATOM     19  N   UNL     1       1.595   9.557  18.302  0.00  0.00    +0.000 N 
ATOM     20  N   UNL     1       2.300  10.551  17.688  0.00  0.00    +0.000 NA
ATOM     21  C   UNL     1       2.026  11.617  18.394  0.00  0.00    +0.000 A 
ATOM     22  N   UNL     1       1.233  11.389  19.456  0.00  0.00    +0.000 N 
ATOM     23  C   UNL     1       0.911  10.057  19.409  0.00  0.00    +0.000 A 
ATOM     24  O   UNL     1       0.200   9.425  20.170  0.00  0.00    +0.000 OA
ATOM     25  C   UNL     1       0.724  12.297  20.471  0.00  0.00    +0.000 C 
ATOM     26  C   UNL     1       1.792  13.273  20.947  0.00  0.00    +0.000 C 
ATOM     27  C   UNL     1       1.988  14.464  20.009  0.00  0.00    +0.000 C 
ATOM     28  C   UNL     1       1.839  14.160  18.517  0.00  0.00    +0.000 C 
ATOM     29  C   UNL     1       2.643  12.950  18.070  0.00  0.00    +0.000 C 
ENDBRANCH  18  19
ENDBRANCH   2  18
TORSDOF 5
ENDMDL
MODEL 9
REMARK VINA RESULT:      -7.9      1.696      2.292
REMARK  Name = 
REMARK  5 active torsions:
REMARK  status: ('A' for Active; 'I' for Inactive)
REMARK    1  A    between atoms: C_2  and  C_3
REMARK    2  A    between atoms: C_3  and  N_4
REMARK    3  A    between atoms: N_15  and  C_16
REMARK    4  A    between atoms: N_20  and  C_21
REMARK    5  A    between atoms: C_21  and  C_22
REMARK                            x       y       z     vdW  Elec       q    Type
REMARK                         _______ _______ _______ _____ _____    ______ ____
ROOT
ATOM      1  O   UNL     1       1.885   5.921  17.560  0.00  0.00    +0.000 OA
ATOM      2  C   UNL     1       2.290   6.517  18.551  0.00  0.00    +0.000 C 
ATOM      3  N   UNL     1       2.536   5.808  19.792  0.00  0.00    +0.000 N 
ATOM      4  H   UNL     1       2.875   6.379  20.569  0.00  0.00    +0.000 HD
ENDROOT
BRANCH   3   5
ATOM      5  C   UNL     1       2.373   4.431  19.938  0.00  0.00    +0.000 A 
ATOM      6  C   UNL     1       1.204   3.756  20.227  0.00  0.00    +0.000 A 
ATOM      7  C   UNL     1       1.540   2.393  20.252  0.00  0.00    +0.000 A 
ATOM      8  N   UNL     1       2.833   2.192  20.006  0.00  0.00    +0.000 NA
ATOM      9  N   UNL     1       3.323   3.436  19.792  0.00  0.00    +0.000 N 
BRANCH   9  10
ATOM     10  C   UNL     1       4.751   3.571  19.551  0.00  0.00    +0.000 C 
BRANCH  10  11
ATOM     11  C   UNL     1       5.025   4.219  18.222  0.00  0.00    +0.000 A 
ATOM     12  C   UNL     1       4.525   3.688  17.025  0.00  0.00    +0.000 A 
ATOM     13  C   UNL     1       4.767   4.339  15.810  0.00  0.00    +0.000 A 
ATOM     14  C   UNL     1       5.505   5.524  15.781  0.00  0.00    +0.000 A 
ATOM     15  C   UNL     1       6.007   6.056  16.966  0.00  0.00    +0.000 A 
ATOM     16  C   UNL     1       5.759   5.404  18.167  0.00  0.00    +0.000 A 
ATOM     17  F   UNL     1       6.229   5.930  19.305  0.00  0.00    +0.000 F 
ENDBRANCH  10  11
ENDBRANCH   9  10
ENDBRANCH   3   5
BRANCH   2  18
ATOM     18  C   UNL     1       2.705   7.973  18.505  0.00  0.00    +0.000 C 
BRANCH  18  19
ATOM     19  N   UNL     1       1.640   8.859  18.897  0.00  0.00    +0.000 N 
ATOM     20  N   UNL     1       0.953   9.664  18.034  0.00  0.00    +0.000 NA
ATOM     21  C   UNL     1       0.086  10.279  18.796  0.00  0.00    +0.000 A 
ATOM     22  N   UNL     1       0.184   9.977  20.103  0.00  0.00    +0.000 N 
ATOM     23  C   UNL     1       1.173   9.030  20.199  0.00  0.00    +0.000 A 
ATOM     24  O   UNL     1       1.581   8.463  21.197  0.00  0.00    +0.000 OA
ATOM     25  C   UNL     1      -0.577  10.453  21.245  0.00  0.00    +0.000 C 
ATOM     26  C   UNL     1      -0.818  11.955  21.181  0.00  0.00    +0.000 C 
ATOM     27  C   UNL     1      -1.982  12.344  20.269  0.00  0.00    +0.000 C 
ATOM     28  C   UNL     1      -2.152  11.487  19.014  0.00  0.00    +0.000 C 
ATOM     29  C   UNL     1      -0.860  11.305  18.234  0.00  0.00    +0.000 C 
ENDBRANCH  18  19
ENDBRANCH   2  18
TORSDOF 5
ENDMDL
