MODEL 1
REMARK VINA RESULT:      -8.6      0.000      0.000
REMARK  Name = 
REMARK  4 active torsions:
REMARK  status: ('A' for Active; 'I' for Inactive)
REMARK    1  A    between atoms: C_1  and  C_2
REMARK    2  A    between atoms: N_4  and  C_5
REMARK    3  A    between atoms: C_5  and  C_6
REMARK    4  A    between atoms: C_9  and  C_10
REMARK                            x       y       z     vdW  Elec       q    Type
REMARK                         _______ _______ _______ _____ _____    ______ ____
ROOT
ATOM      1  C   UNL     1       2.650   7.063  18.740  0.00  0.00    +0.000 A 
ATOM      2  N   UNL     1       2.556   7.662  17.542  0.00  0.00    +0.000 NA
ATOM      3  O   UNL     1       1.726   8.760  17.793  0.00  0.00    +0.000 OA
ATOM      4  C   UNL     1       1.440   8.742  19.128  0.00  0.00    +0.000 A 
ATOM      5  N   UNL     1       2.041   7.759  19.763  0.00  0.00    +0.000 NA
ENDROOT
BRANCH   4   6
ATOM      6  C   UNL     1       0.592   9.789  19.657  0.00  0.00    +0.000 A 
ATOM      7  C   UNL     1       0.114  10.836  18.852  0.00  0.00    +0.000 A 
ATOM      8  C   UNL     1      -0.703  11.830  19.382  0.00  0.00    +0.000 A 
ATOM      9  F   UNL     1      -1.153  12.801  18.576  0.00  0.00    +0.000 F 
ATOM     10  C   UNL     1      -1.066  11.850  20.730  0.00  0.00    +0.000 A 
ATOM     11  C   UNL     1      -0.575  10.830  21.564  0.00  0.00    +0.000 A 
ATOM     12  C   UNL     1      -0.693  10.521  22.945  0.00  0.00    +0.000 A 
ATOM     13  C   UNL     1       0.052   9.384  23.152  0.00  0.00    +0.000 A 
ATOM     14  O   UNL     1       0.614   8.963  21.990  0.00  0.00    +0.000 OA
ATOM     15  C   UNL     1       0.232   9.836  21.010  0.00  0.00    +0.000 A 
ENDBRANCH   4   6
BRANCH   1  16
ATOM     16  C   UNL     1       3.354   5.715  18.960  0.00  0.00    +0.000 C 
ATOM     17  C   UNL     1       2.867   5.094  20.299  0.00  0.00    +0.000 C 
ATOM     18  C   UNL     1       1.401   4.661  20.251  0.00  0.00    +0.000 C 
ATOM     19  C   UNL     1       1.146   3.689  19.105  0.00  0.00    +0.000 C 
ATOM     20  C   UNL     1       1.596   4.254  17.761  0.00  0.00    +0.000 C 
ATOM     21  C   UNL     1       3.049   4.729  17.796  0.00  0.00    +0.000 C 
BRANCH  16  25
ATOM     22  C   UNL     1       7.179   5.579  19.229  0.00  0.00    +0.000 C 
ATOM     23  C   UNL     1       5.777   5.036  19.194  0.00  0.00    +0.000 C 
ATOM     24  O   UNL     1       5.555   3.838  19.318  0.00  0.00    +0.000 OA
ATOM     25  N   UNL     1       4.810   6.001  19.025  0.00  0.00    +0.000 N 
ATOM     26  H   UNL     1       5.101   6.959  18.889  0.00  0.00    +0.000 HD
ENDBRANCH  16  25
ENDBRANCH   1  16
TORSDOF 3
ENDMDL
MODEL 2
REMARK VINA RESULT:      -8.5      1.429      2.284
REMARK  Name = 
REMARK  4 active torsions:
REMARK  status: ('A' for Active; 'I' for Inactive)
REMARK    1  A    between atoms: C_1  and  C_2
REMARK    2  A    between atoms: N_4  and  C_5
REMARK    3  A    between atoms: C_5  and  C_6
REMARK    4  A    between atoms: C_9  and  C_10
REMARK                            x       y       z     vdW  Elec       q    Type
REMARK                         _______ _______ _______ _____ _____    ______ ____
ROOT
ATOM      1  C   UNL     1       2.788   7.157  18.684  0.00  0.00    +0.000 A 
ATOM      2  N   UNL     1       2.891   7.877  17.556  0.00  0.00    +0.000 NA
ATOM      3  O   UNL     1       2.009   8.942  17.768  0.00  0.00    +0.000 OA
ATOM      4  C   UNL     1       1.496   8.786  19.024  0.00  0.00    +0.000 A 
ATOM      5  N   UNL     1       1.997   7.744  19.651  0.00  0.00    +0.000 NA
ENDROOT
BRANCH   4   6
ATOM      6  C   UNL     1       0.550   9.772  19.501  0.00  0.00    +0.000 A 
ATOM      7  C   UNL     1       0.655  10.345  20.779  0.00  0.00    +0.000 A 
ATOM      8  C   UNL     1      -0.264  11.295  21.214  0.00  0.00    +0.000 A 
ATOM      9  F   UNL     1      -0.117  11.831  22.433  0.00  0.00    +0.000 F 
ATOM     10  C   UNL     1      -1.338  11.705  20.422  0.00  0.00    +0.000 A 
ATOM     11  C   UNL     1      -1.483  11.124  19.150  0.00  0.00    +0.000 A 
ATOM     12  C   UNL     1      -2.420  11.251  18.091  0.00  0.00    +0.000 A 
ATOM     13  C   UNL     1      -2.013  10.381  17.107  0.00  0.00    +0.000 A 
ATOM     14  O   UNL     1      -0.880   9.732  17.482  0.00  0.00    +0.000 OA
ATOM     15  C   UNL     1      -0.543  10.182  18.727  0.00  0.00    +0.000 A 
ENDBRANCH   4   6
BRANCH   1  16
ATOM     16  C   UNL     1       3.468   5.794  18.886  0.00  0.00    +0.000 C 
ATOM     17  C   UNL     1       2.986   5.173  20.226  0.00  0.00    +0.000 C 
ATOM     18  C   UNL     1       1.511   4.767  20.192  0.00  0.00    +0.000 C 
ATOM     19  C   UNL     1       1.225   3.810  19.042  0.00  0.00    +0.000 C 
ATOM     20  C   UNL     1       1.669   4.376  17.697  0.00  0.00    +0.000 C 
ATOM     21  C   UNL     1       3.131   4.823  17.718  0.00  0.00    +0.000 C 
BRANCH  16  25
ATOM     22  C   UNL     1       7.291   5.589  19.150  0.00  0.00    +0.000 C 
ATOM     23  C   UNL     1       5.878   5.075  19.140  0.00  0.00    +0.000 C 
ATOM     24  O   UNL     1       5.631   3.887  19.311  0.00  0.00    +0.000 OA
ATOM     25  N   UNL     1       4.930   6.052  18.935  0.00  0.00    +0.000 N 
ATOM     26  H   UNL     1       5.240   6.998  18.761  0.00  0.00    +0.000 HD
ENDBRANCH  16  25
ENDBRANCH   1  16
TORSDOF 3
ENDMDL
MODEL 3
REMARK VINA RESULT:      -8.4      2.098      3.754
REMARK  Name = 
REMARK  4 active torsions:
REMARK  status: ('A' for Active; 'I' for Inactive)
REMARK    1  A    between atoms: C_1  and  C_2
REMARK    2  A    between atoms: N_4  and  C_5
REMARK    3  A    between atoms: C_5  and  C_6
REMARK    4  A    between atoms: C_9  and  C_10
REMARK                            x       y       z     vdW  Elec       q    Type
REMARK                         _______ _______ _______ _____ _____    ______ ____
ROOT
ATOM      1  C   UNL     1       3.178   6.225  18.711  0.00  0.00    +0.000 A 
ATOM      2  N   UNL     1       3.188   7.181  17.768  0.00  0.00    +0.000 NA
ATOM      3  O   UNL     1       2.407   8.198  18.326  0.00  0.00    +0.000 OA
ATOM      4  C   UNL     1       2.042   7.775  19.573  0.00  0.00    +0.000 A 
ATOM      5  N   UNL     1       2.550   6.601  19.880  0.00  0.00    +0.000 NA
ENDROOT
BRANCH   4   6
ATOM      6  C   UNL     1       1.225   8.657  20.378  0.00  0.00    +0.000 A 
ATOM      7  C   UNL     1       1.210   8.581  21.781  0.00  0.00    +0.000 A 
ATOM      8  C   UNL     1       0.419   9.443  22.535  0.00  0.00    +0.000 A 
ATOM      9  F   UNL     1       0.448   9.350  23.871  0.00  0.00    +0.000 F 
ATOM     10  C   UNL     1      -0.407  10.400  21.943  0.00  0.00    +0.000 A 
ATOM     11  C   UNL     1      -0.433  10.476  20.540  0.00  0.00    +0.000 A 
ATOM     12  C   UNL     1      -1.132  11.269  19.592  0.00  0.00    +0.000 A 
ATOM     13  C   UNL     1      -0.727  10.837  18.351  0.00  0.00    +0.000 A 
ATOM     14  O   UNL     1       0.184   9.837  18.468  0.00  0.00    +0.000 OA
ATOM     15  C   UNL     1       0.377   9.612  19.802  0.00  0.00    +0.000 A 
ENDBRANCH   4   6
BRANCH   1  16
ATOM     16  C   UNL     1       3.791   4.831  18.512  0.00  0.00    +0.000 C 
ATOM     17  C   UNL     1       4.118   4.624  17.007  0.00  0.00    +0.000 C 
ATOM     18  C   UNL     1       5.257   5.522  16.521  0.00  0.00    +0.000 C 
ATOM     19  C   UNL     1       6.515   5.325  17.358  0.00  0.00    +0.000 C 
ATOM     20  C   UNL     1       6.253   5.529  18.847  0.00  0.00    +0.000 C 
ATOM     21  C   UNL     1       5.093   4.668  19.348  0.00  0.00    +0.000 C 
BRANCH  16  25
ATOM     22  C   UNL     1       0.709   2.588  18.950  0.00  0.00    +0.000 C 
ATOM     23  C   UNL     1       1.575   3.632  18.302  0.00  0.00    +0.000 C 
ATOM     24  O   UNL     1       1.215   4.222  17.291  0.00  0.00    +0.000 OA
ATOM     25  N   UNL     1       2.768   3.850  18.955  0.00  0.00    +0.000 N 
ATOM     26  H   UNL     1       2.990   3.279  19.760  0.00  0.00    +0.000 HD
ENDBRANCH  16  25
ENDBRANCH   1  16
TORSDOF 3
ENDMDL
MODEL 4
REMARK VINA RESULT:      -8.4      1.515      2.245
REMARK  Name = 
REMARK  4 active torsions:
REMARK  status: ('A' for Active; 'I' for Inactive)
REMARK    1  A    between atoms: C_1  and  C_2
REMARK    2  A    between atoms: N_4  and  C_5
REMARK    3  A    between atoms: C_5  and  C_6
REMARK    4  A    between atoms: C_9  and  C_10
REMARK                            x       y       z     vdW  Elec       q    Type
REMARK                         _______ _______ _______ _____ _____    ______ ____
ROOT
ATOM      1  C   UNL     1       2.568   6.977  19.021  0.00  0.00    +0.000 A 
ATOM      2  N   UNL     1       2.236   7.639  17.902  0.00  0.00    +0.000 NA
ATOM      3  O   UNL     1       1.487   8.722  18.374  0.00  0.00    +0.000 OA
ATOM      4  C   UNL     1       1.482   8.633  19.737  0.00  0.00    +0.000 A 
ATOM      5  N   UNL     1       2.190   7.619  20.183  0.00  0.00    +0.000 NA
ENDROOT
BRANCH   4   6
ATOM      6  C   UNL     1       0.773   9.651  20.483  0.00  0.00    +0.000 A 
ATOM      7  C   UNL     1       0.072   9.355  21.664  0.00  0.00    +0.000 A 
ATOM      8  C   UNL     1      -0.598  10.352  22.366  0.00  0.00    +0.000 A 
ATOM      9  F   UNL     1      -1.238  10.030  23.498  0.00  0.00    +0.000 F 
ATOM     10  C   UNL     1      -0.629  11.676  21.926  0.00  0.00    +0.000 A 
ATOM     11  C   UNL     1       0.039  11.993  20.731  0.00  0.00    +0.000 A 
ATOM     12  C   UNL     1       0.217  13.176  19.965  0.00  0.00    +0.000 A 
ATOM     13  C   UNL     1       0.966  12.818  18.869  0.00  0.00    +0.000 A 
ATOM     14  O   UNL     1       1.273  11.496  18.911  0.00  0.00    +0.000 OA
ATOM     15  C   UNL     1       0.716  10.982  20.048  0.00  0.00    +0.000 A 
ENDBRANCH   4   6
BRANCH   1  16
ATOM     16  C   UNL     1       3.287   5.620  19.022  0.00  0.00    +0.000 C 
ATOM     17  C   UNL     1       2.882   4.824  20.294  0.00  0.00    +0.000 C 
ATOM     18  C   UNL     1       1.417   4.385  20.274  0.00  0.00    +0.000 C 
ATOM     19  C   UNL     1       1.099   3.569  19.027  0.00  0.00    +0.000 C 
ATOM     20  C   UNL     1       1.467   4.309  17.746  0.00  0.00    +0.000 C 
ATOM     21  C   UNL     1       2.918   4.791  17.758  0.00  0.00    +0.000 C 
BRANCH  16  25
ATOM     22  C   UNL     1       7.120   5.496  19.170  0.00  0.00    +0.000 C 
ATOM     23  C   UNL     1       5.719   4.949  19.182  0.00  0.00    +0.000 C 
ATOM     24  O   UNL     1       5.504   3.750  19.318  0.00  0.00    +0.000 OA
ATOM     25  N   UNL     1       4.744   5.910  19.040  0.00  0.00    +0.000 N 
ATOM     26  H   UNL     1       5.028   6.869  18.891  0.00  0.00    +0.000 HD
ENDBRANCH  16  25
ENDBRANCH   1  16
TORSDOF 3
ENDMDL
MODEL 5
REMARK VINA RESULT:      -8.4      1.860      2.563
REMARK  Name = 
REMARK  4 active torsions:
REMARK  status: ('A' for Active; 'I' for Inactive)
REMARK    1  A    between atoms: C_1  and  C_2
REMARK    2  A    between atoms: N_4  and  C_5
REMARK    3  A    between atoms: C_5  and  C_6
REMARK    4  A    between atoms: C_9  and  C_10
REMARK                            x       y       z     vdW  Elec       q    Type
REMARK                         _______ _______ _______ _____ _____    ______ ____
ROOT
ATOM      1  C   UNL     1       3.156   5.942  18.693  0.00  0.00    +0.000 A 
ATOM      2  N   UNL     1       3.413   6.942  17.835  0.00  0.00    +0.000 NA
ATOM      3  O   UNL     1       2.716   8.026  18.380  0.00  0.00    +0.000 OA
ATOM      4  C   UNL     1       2.146   7.585  19.540  0.00  0.00    +0.000 A 
ATOM      5  N   UNL     1       2.446   6.333  19.809  0.00  0.00    +0.000 NA
ENDROOT
BRANCH   4   6
ATOM      6  C   UNL     1       1.366   8.526  20.315  0.00  0.00    +0.000 A 
ATOM      7  C   UNL     1       1.367   8.514  21.720  0.00  0.00    +0.000 A 
ATOM      8  C   UNL     1       0.612   9.431  22.444  0.00  0.00    +0.000 A 
ATOM      9  F   UNL     1       0.656   9.397  23.782  0.00  0.00    +0.000 F 
ATOM     10  C   UNL     1      -0.196  10.383  21.819  0.00  0.00    +0.000 A 
ATOM     11  C   UNL     1      -0.239  10.397  20.414  0.00  0.00    +0.000 A 
ATOM     12  C   UNL     1      -0.928  11.166  19.440  0.00  0.00    +0.000 A 
ATOM     13  C   UNL     1      -0.552  10.666  18.215  0.00  0.00    +0.000 A 
ATOM     14  O   UNL     1       0.332   9.647  18.366  0.00  0.00    +0.000 OA
ATOM     15  C   UNL     1       0.536   9.477  19.706  0.00  0.00    +0.000 A 
ENDBRANCH   4   6
BRANCH   1  16
ATOM     16  C   UNL     1       3.591   4.489  18.455  0.00  0.00    +0.000 C 
ATOM     17  C   UNL     1       3.615   3.732  19.812  0.00  0.00    +0.000 C 
ATOM     18  C   UNL     1       2.218   3.532  20.402  0.00  0.00    +0.000 C 
ATOM     19  C   UNL     1       1.299   2.813  19.422  0.00  0.00    +0.000 C 
ATOM     20  C   UNL     1       1.229   3.522  18.073  0.00  0.00    +0.000 C 
ATOM     21  C   UNL     1       2.617   3.766  17.481  0.00  0.00    +0.000 C 
BRANCH  16  25
ATOM     22  C   UNL     1       7.349   4.853  17.772  0.00  0.00    +0.000 C 
ATOM     23  C   UNL     1       6.087   4.865  18.589  0.00  0.00    +0.000 C 
ATOM     24  O   UNL     1       6.101   5.150  19.780  0.00  0.00    +0.000 OA
ATOM     25  N   UNL     1       4.956   4.543  17.872  0.00  0.00    +0.000 N 
ATOM     26  H   UNL     1       5.057   4.281  16.901  0.00  0.00    +0.000 HD
ENDBRANCH  16  25
ENDBRANCH   1  16
TORSDOF 3
ENDMDL
MODEL 6
REMARK VINA RESULT:      -8.3      2.060      3.030
REMARK  Name = 
REMARK  4 active torsions:
REMARK  status: ('A' for Active; 'I' for Inactive)
REMARK    1  A    between atoms: C_1  and  C_2
REMARK    2  A    between atoms: N_4  and  C_5
REMARK    3  A    between atoms: C_5  and  C_6
REMARK    4  A    between atoms: C_9  and  C_10
REMARK                            x       y       z     vdW  Elec       q    Type
REMARK                         _______ _______ _______ _____ _____    ______ ____
ROOT
ATOM      1  C   UNL     1       3.158   5.250  19.690  0.00  0.00    +0.000 A 
ATOM      2  N   UNL     1       2.380   4.676  20.622  0.00  0.00    +0.000 NA
ATOM      3  O   UNL     1       1.604   5.739  21.096  0.00  0.00    +0.000 OA
ATOM      4  C   UNL     1       1.955   6.840  20.369  0.00  0.00    +0.000 A 
ATOM      5  N   UNL     1       2.855   6.574  19.447  0.00  0.00    +0.000 NA
ENDROOT
BRANCH   4   6
ATOM      6  C   UNL     1       1.285   8.090  20.658  0.00  0.00    +0.000 A 
ATOM      7  C   UNL     1       0.556   8.285  21.843  0.00  0.00    +0.000 A 
ATOM      8  C   UNL     1      -0.077   9.498  22.101  0.00  0.00    +0.000 A 
ATOM      9  F   UNL     1      -0.746   9.649  23.251  0.00  0.00    +0.000 F 
ATOM     10  C   UNL     1      -0.040  10.560  21.196  0.00  0.00    +0.000 A 
ATOM     11  C   UNL     1       0.657  10.379  19.989  0.00  0.00    +0.000 A 
ATOM     12  C   UNL     1       0.900  11.180  18.842  0.00  0.00    +0.000 A 
ATOM     13  C   UNL     1       1.646  10.409  17.982  0.00  0.00    +0.000 A 
ATOM     14  O   UNL     1       1.890   9.189  18.525  0.00  0.00    +0.000 OA
ATOM     15  C   UNL     1       1.296   9.161  19.755  0.00  0.00    +0.000 A 
ENDBRANCH   4   6
BRANCH   1  16
ATOM     16  C   UNL     1       4.297   4.515  18.967  0.00  0.00    +0.000 C 
ATOM     17  C   UNL     1       4.455   3.092  19.571  0.00  0.00    +0.000 C 
ATOM     18  C   UNL     1       3.266   2.182  19.258  0.00  0.00    +0.000 C 
ATOM     19  C   UNL     1       3.022   2.084  17.757  0.00  0.00    +0.000 C 
ATOM     20  C   UNL     1       2.847   3.456  17.113  0.00  0.00    +0.000 C 
ATOM     21  C   UNL     1       4.006   4.397  17.443  0.00  0.00    +0.000 C 
BRANCH  16  25
ATOM     22  C   UNL     1       7.804   6.071  18.905  0.00  0.00    +0.000 C 
ATOM     23  C   UNL     1       6.697   5.145  18.484  0.00  0.00    +0.000 C 
ATOM     24  O   UNL     1       6.859   4.324  17.589  0.00  0.00    +0.000 OA
ATOM     25  N   UNL     1       5.530   5.311  19.195  0.00  0.00    +0.000 N 
ATOM     26  H   UNL     1       5.485   6.048  19.886  0.00  0.00    +0.000 HD
ENDBRANCH  16  25
ENDBRANCH   1  16
TORSDOF 3
ENDMDL
MODEL 7
REMARK VINA RESULT:      -8.2      3.043      7.484
REMARK  Name = 
REMARK  4 active torsions:
REMARK  status: ('A' for Active; 'I' for Inactive)
REMARK    1  A    between atoms: C_1  and  C_2
REMARK    2  A    between atoms: N_4  and  C_5
REMARK    3  A    between atoms: C_5  and  C_6
REMARK    4  A    between atoms: C_9  and  C_10
REMARK                            x       y       z     vdW  Elec       q    Type
REMARK                         _______ _______ _______ _____ _____    ______ ____
ROOT
ATOM      1  C   UNL     1       1.123   9.284  19.001  0.00  0.00    +0.000 A 
ATOM      2  N   UNL     1       1.365   8.718  20.194  0.00  0.00    +0.000 NA
ATOM      3  O   UNL     1       2.179   7.626  19.876  0.00  0.00    +0.000 OA
ATOM      4  C   UNL     1       2.389   7.669  18.527  0.00  0.00    +0.000 A 
ATOM      5  N   UNL     1       1.818   8.709  17.958  0.00  0.00    +0.000 NA
ENDROOT
BRANCH   4   6
ATOM      6  C   UNL     1       3.218   6.642  17.933  0.00  0.00    +0.000 A 
ATOM      7  C   UNL     1       4.450   6.939  17.328  0.00  0.00    +0.000 A 
ATOM      8  C   UNL     1       5.232   5.934  16.767  0.00  0.00    +0.000 A 
ATOM      9  F   UNL     1       6.410   6.258  16.217  0.00  0.00    +0.000 F 
ATOM     10  C   UNL     1       4.826   4.598  16.757  0.00  0.00    +0.000 A 
ATOM     11  C   UNL     1       3.583   4.279  17.329  0.00  0.00    +0.000 A 
ATOM     12  C   UNL     1       2.831   3.085  17.490  0.00  0.00    +0.000 A 
ATOM     13  C   UNL     1       1.664   3.445  18.123  0.00  0.00    +0.000 A 
ATOM     14  O   UNL     1       1.648   4.780  18.373  0.00  0.00    +0.000 OA
ATOM     15  C   UNL     1       2.819   5.299  17.897  0.00  0.00    +0.000 A 
ENDBRANCH   4   6
BRANCH   1  16
ATOM     16  C   UNL     1       0.149  10.455  18.801  0.00  0.00    +0.000 C 
ATOM     17  C   UNL     1      -0.690  10.652  20.094  0.00  0.00    +0.000 C 
ATOM     18  C   UNL     1       0.147  11.159  21.270  0.00  0.00    +0.000 C 
ATOM     19  C   UNL     1       0.872  12.452  20.919  0.00  0.00    +0.000 C 
ATOM     20  C   UNL     1       1.723  12.311  19.661  0.00  0.00    +0.000 C 
ATOM     21  C   UNL     1       0.915  11.771  18.480  0.00  0.00    +0.000 C 
BRANCH  16  25
ATOM     22  C   UNL     1      -2.586  10.212  16.121  0.00  0.00    +0.000 C 
ATOM     23  C   UNL     1      -1.859  10.790  17.303  0.00  0.00    +0.000 C 
ATOM     24  O   UNL     1      -2.267  11.796  17.872  0.00  0.00    +0.000 OA
ATOM     25  N   UNL     1      -0.734  10.085  17.666  0.00  0.00    +0.000 N 
ATOM     26  H   UNL     1      -0.458   9.291  17.103  0.00  0.00    +0.000 HD
ENDBRANCH  16  25
ENDBRANCH   1  16
TORSDOF 3
ENDMDL
MODEL 8
REMARK VINA RESULT:      -8.0      1.595      3.030
REMARK  Name = 
REMARK  4 active torsions:
REMARK  status: ('A' for Active; 'I' for Inactive)
REMARK    1  A    between atoms: C_1  and  C_2
REMARK    2  A    between atoms: N_4  and  C_5
REMARK    3  A    between atoms: C_5  and  C_6
REMARK    4  A    between atoms: C_9  and  C_10
REMARK                            x       y       z     vdW  Elec       q    Type
REMARK                         _______ _______ _______ _____ _____    ______ ____
ROOT
ATOM      1  C   UNL     1       3.385   6.385  18.334  0.00  0.00    +0.000 A 
ATOM      2  N   UNL     1       3.770   7.256  17.387  0.00  0.00    +0.000 NA
ATOM      3  O   UNL     1       2.916   8.347  17.582  0.00  0.00    +0.000 OA
ATOM      4  C   UNL     1       2.132   8.046  18.659  0.00  0.00    +0.000 A 
ATOM      5  N   UNL     1       2.430   6.883  19.196  0.00  0.00    +0.000 NA
ENDROOT
BRANCH   4   6
ATOM      6  C   UNL     1       1.154   9.025  19.082  0.00  0.00    +0.000 A 
ATOM      7  C   UNL     1       0.444   9.814  18.161  0.00  0.00    +0.000 A 
ATOM      8  C   UNL     1      -0.496  10.746  18.592  0.00  0.00    +0.000 A 
ATOM      9  F   UNL     1      -1.164  11.464  17.681  0.00  0.00    +0.000 F 
ATOM     10  C   UNL     1      -0.760  10.959  19.947  0.00  0.00    +0.000 A 
ATOM     11  C   UNL     1      -0.041  10.205  20.889  0.00  0.00    +0.000 A 
ATOM     12  C   UNL     1      -0.005  10.144  22.308  0.00  0.00    +0.000 A 
ATOM     13  C   UNL     1       0.941   9.200  22.631  0.00  0.00    +0.000 A 
ATOM     14  O   UNL     1       1.484   8.664  21.508  0.00  0.00    +0.000 OA
ATOM     15  C   UNL     1       0.887   9.266  20.437  0.00  0.00    +0.000 A 
ENDBRANCH   4   6
BRANCH   1  16
ATOM     16  C   UNL     1       3.936   4.956  18.446  0.00  0.00    +0.000 C 
ATOM     17  C   UNL     1       4.205   4.396  17.021  0.00  0.00    +0.000 C 
ATOM     18  C   UNL     1       5.362   5.107  16.316  0.00  0.00    +0.000 C 
ATOM     19  C   UNL     1       6.638   5.049  17.147  0.00  0.00    +0.000 C 
ATOM     20  C   UNL     1       6.433   5.599  18.555  0.00  0.00    +0.000 C 
ATOM     21  C   UNL     1       5.257   4.928  19.267  0.00  0.00    +0.000 C 
BRANCH  16  25
ATOM     22  C   UNL     1       0.823   2.936  19.424  0.00  0.00    +0.000 C 
ATOM     23  C   UNL     1       1.720   3.741  18.525  0.00  0.00    +0.000 C 
ATOM     24  O   UNL     1       1.401   3.998  17.371  0.00  0.00    +0.000 OA
ATOM     25  N   UNL     1       2.890   4.149  19.126  0.00  0.00    +0.000 N 
ATOM     26  H   UNL     1       3.079   3.847  20.072  0.00  0.00    +0.000 HD
ENDBRANCH  16  25
ENDBRANCH   1  16
TORSDOF 3
ENDMDL
MODEL 9
REMARK VINA RESULT:      -8.0      1.938      2.574
REMARK  Name = 
REMARK  4 active torsions:
REMARK  status: ('A' for Active; 'I' for Inactive)
REMARK    1  A    between atoms: C_1  and  C_2
REMARK    2  A    between atoms: N_4  and  C_5
REMARK    3  A    between atoms: C_5  and  C_6
REMARK    4  A    between atoms: C_9  and  C_10
REMARK                            x       y       z     vdW  Elec       q    Type
REMARK                         _______ _______ _______ _____ _____    ______ ____
ROOT
ATOM      1  C   UNL     1       2.932   6.641  18.658  0.00  0.00    +0.000 A 
ATOM      2  N   UNL     1       2.973   7.679  17.809  0.00  0.00    +0.000 NA
ATOM      3  O   UNL     1       2.205   8.656  18.452  0.00  0.00    +0.000 OA
ATOM      4  C   UNL     1       1.816   8.127  19.649  0.00  0.00    +0.000 A 
ATOM      5  N   UNL     1       2.296   6.919  19.851  0.00  0.00    +0.000 NA
ENDROOT
BRANCH   4   6
ATOM      6  C   UNL     1       1.006   8.946  20.525  0.00  0.00    +0.000 A 
ATOM      7  C   UNL     1       0.982   8.750  21.916  0.00  0.00    +0.000 A 
ATOM      8  C   UNL     1       0.199   9.553  22.738  0.00  0.00    +0.000 A 
ATOM      9  F   UNL     1       0.219   9.345  24.061  0.00  0.00    +0.000 F 
ATOM     10  C   UNL     1      -0.612  10.569  22.228  0.00  0.00    +0.000 A 
ATOM     11  C   UNL     1      -0.630  10.766  20.836  0.00  0.00    +0.000 A 
ATOM     12  C   UNL     1      -1.314  11.647  19.957  0.00  0.00    +0.000 A 
ATOM     13  C   UNL     1      -0.908  11.318  18.685  0.00  0.00    +0.000 A 
ATOM     14  O   UNL     1      -0.010  10.300  18.719  0.00  0.00    +0.000 OA
ATOM     15  C   UNL     1       0.172   9.958  20.030  0.00  0.00    +0.000 A 
ENDBRANCH   4   6
BRANCH   1  16
ATOM     16  C   UNL     1       3.520   5.259  18.336  0.00  0.00    +0.000 C 
ATOM     17  C   UNL     1       3.860   4.523  19.663  0.00  0.00    +0.000 C 
ATOM     18  C   UNL     1       2.612   4.138  20.460  0.00  0.00    +0.000 C 
ATOM     19  C   UNL     1       1.659   3.291  19.626  0.00  0.00    +0.000 C 
ATOM     20  C   UNL     1       1.282   3.973  18.314  0.00  0.00    +0.000 C 
ATOM     21  C   UNL     1       2.514   4.401  17.516  0.00  0.00    +0.000 C 
BRANCH  16  25
ATOM     22  C   UNL     1       6.630   5.015  16.102  0.00  0.00    +0.000 C 
ATOM     23  C   UNL     1       5.396   4.526  16.808  0.00  0.00    +0.000 C 
ATOM     24  O   UNL     1       5.028   3.361  16.717  0.00  0.00    +0.000 OA
ATOM     25  N   UNL     1       4.757   5.496  17.549  0.00  0.00    +0.000 N 
ATOM     26  H   UNL     1       5.117   6.440  17.524  0.00  0.00    +0.000 HD
ENDBRANCH  16  25
ENDBRANCH   1  16
TORSDOF 3
ENDMDL
