MODEL 1
REMARK VINA RESULT:      -8.8      0.000      0.000
REMARK  Name = 
REMARK  5 active torsions:
REMARK  status: ('A' for Active; 'I' for Inactive)
REMARK    1  A    between atoms: C_2  and  C_3
REMARK    2  A    between atoms: C_3  and  C_4
REMARK    3  A    between atoms: N_13  and  C_14
REMARK    4  A    between atoms: C_17  and  C_18
REMARK    5  A    between atoms: C_21  and  C_22
REMARK                            x       y       z     vdW  Elec       q    Type
REMARK                         _______ _______ _______ _____ _____    ______ ____
ROOT
ATOM      1  O   UNL     1       4.756   4.320  19.038  0.00  0.00    +0.000 OA
ATOM      2  C   UNL     1       4.181   4.488  17.963  0.00  0.00    +0.000 C 
ATOM      3  N   UNL     1       3.135   5.366  17.732  0.00  0.00    +0.000 N 
ATOM      4  H   UNL     1       2.620   5.234  16.869  0.00  0.00    +0.000 HD
ENDROOT
BRANCH   3   5
ATOM      5  C   UNL     1       2.595   6.280  18.662  0.00  0.00    +0.000 A 
ATOM      6  C   UNL     1       2.187   5.920  19.947  0.00  0.00    +0.000 A 
ATOM      7  C   UNL     1       1.619   6.864  20.813  0.00  0.00    +0.000 A 
ATOM      8  C   UNL     1       1.452   8.197  20.418  0.00  0.00    +0.000 A 
ATOM      9  C   UNL     1       1.893   8.563  19.140  0.00  0.00    +0.000 A 
ATOM     10  C   UNL     1       2.471   7.618  18.275  0.00  0.00    +0.000 A 
BRANCH   8  11
ATOM     11  C   UNL     1       0.832   9.155  21.320  0.00  0.00    +0.000 A 
ATOM     12  C   UNL     1       0.608   9.229  22.678  0.00  0.00    +0.000 A 
ATOM     13  N   UNL     1      -0.052  10.389  22.995  0.00  0.00    +0.000 NA
ATOM     14  C   UNL     1      -0.208  10.989  21.832  0.00  0.00    +0.000 A 
ATOM     15  O   UNL     1       0.309  10.294  20.769  0.00  0.00    +0.000 OA
BRANCH  14  16
ATOM     16  C   UNL     1      -0.906  12.331  21.696  0.00  0.00    +0.000 C 
ATOM     17  C   UNL     1      -0.062  13.588  21.762  0.00  0.00    +0.000 C 
ATOM     18  C   UNL     1      -0.959  13.246  22.902  0.00  0.00    +0.000 C 
ENDBRANCH  14  16
ENDBRANCH   8  11
ENDBRANCH   3   5
BRANCH   2  19
ATOM     19  C   UNL     1       4.653   3.740  16.725  0.00  0.00    +0.000 C 
BRANCH  19  20
ATOM     20  C   UNL     1       5.726   4.433  15.946  0.00  0.00    +0.000 A 
ATOM     21  C   UNL     1       6.634   5.341  16.457  0.00  0.00    +0.000 A 
ATOM     22  N   UNL     1       7.492   5.709  15.457  0.00  0.00    +0.000 N 
ATOM     23  C   UNL     1       7.166   5.061  14.289  0.00  0.00    +0.000 A 
ATOM     24  C   UNL     1       7.769   5.129  13.027  0.00  0.00    +0.000 A 
ATOM     25  C   UNL     1       7.227   4.342  12.007  0.00  0.00    +0.000 A 
ATOM     26  C   UNL     1       6.133   3.516  12.247  0.00  0.00    +0.000 A 
ATOM     27  C   UNL     1       5.547   3.455  13.518  0.00  0.00    +0.000 A 
ATOM     28  C   UNL     1       6.065   4.247  14.563  0.00  0.00    +0.000 A 
ATOM     29  H   UNL     1       8.267   6.350  15.556  0.00  0.00    +0.000 HD
ENDBRANCH  19  20
ENDBRANCH   2  19
TORSDOF 5
ENDMDL
MODEL 2
REMARK VINA RESULT:      -8.6      1.310      1.549
REMARK  Name = 
REMARK  5 active torsions:
REMARK  status: ('A' for Active; 'I' for Inactive)
REMARK    1  A    between atoms: C_2  and  C_3
REMARK    2  A    between atoms: C_3  and  C_4
REMARK    3  A    between atoms: N_13  and  C_14
REMARK    4  A    between atoms: C_17  and  C_18
REMARK    5  A    between atoms: C_21  and  C_22
REMARK                            x       y       z     vdW  Elec       q    Type
REMARK                         _______ _______ _______ _____ _____    ______ ____
ROOT
ATOM      1  O   UNL     1       2.396   4.249  17.424  0.00  0.00    +0.000 OA
ATOM      2  C   UNL     1       3.546   4.687  17.416  0.00  0.00    +0.000 C 
ATOM      3  N   UNL     1       3.927   5.969  17.776  0.00  0.00    +0.000 N 
ATOM      4  H   UNL     1       4.863   6.252  17.507  0.00  0.00    +0.000 HD
ENDROOT
BRANCH   3   5
ATOM      5  C   UNL     1       3.081   6.975  18.291  0.00  0.00    +0.000 A 
ATOM      6  C   UNL     1       2.506   6.923  19.561  0.00  0.00    +0.000 A 
ATOM      7  C   UNL     1       1.640   7.933  20.001  0.00  0.00    +0.000 A 
ATOM      8  C   UNL     1       1.335   9.028  19.185  0.00  0.00    +0.000 A 
ATOM      9  C   UNL     1       1.940   9.096  17.923  0.00  0.00    +0.000 A 
ATOM     10  C   UNL     1       2.814   8.087  17.485  0.00  0.00    +0.000 A 
BRANCH   8  11
ATOM     11  C   UNL     1       0.410  10.051  19.649  0.00  0.00    +0.000 A 
ATOM     12  C   UNL     1      -0.577  10.822  19.073  0.00  0.00    +0.000 A 
ATOM     13  N   UNL     1      -1.139  11.658  20.005  0.00  0.00    +0.000 NA
ATOM     14  C   UNL     1      -0.488  11.374  21.114  0.00  0.00    +0.000 A 
ATOM     15  O   UNL     1       0.468  10.403  20.970  0.00  0.00    +0.000 OA
BRANCH  14  16
ATOM     16  C   UNL     1      -0.779  12.076  22.430  0.00  0.00    +0.000 C 
ATOM     17  C   UNL     1      -1.931  11.565  23.273  0.00  0.00    +0.000 C 
ATOM     18  C   UNL     1      -2.064  12.867  22.560  0.00  0.00    +0.000 C 
ENDBRANCH  14  16
ENDBRANCH   8  11
ENDBRANCH   3   5
BRANCH   2  19
ATOM     19  C   UNL     1       4.704   3.772  17.047  0.00  0.00    +0.000 C 
BRANCH  19  20
ATOM     20  C   UNL     1       5.762   4.408  16.203  0.00  0.00    +0.000 A 
ATOM     21  C   UNL     1       6.757   5.252  16.659  0.00  0.00    +0.000 A 
ATOM     22  N   UNL     1       7.567   5.580  15.607  0.00  0.00    +0.000 N 
ATOM     23  C   UNL     1       7.123   4.969  14.458  0.00  0.00    +0.000 A 
ATOM     24  C   UNL     1       7.643   5.016  13.159  0.00  0.00    +0.000 A 
ATOM     25  C   UNL     1       6.986   4.278  12.171  0.00  0.00    +0.000 A 
ATOM     26  C   UNL     1       5.862   3.517  12.477  0.00  0.00    +0.000 A 
ATOM     27  C   UNL     1       5.360   3.474  13.784  0.00  0.00    +0.000 A 
ATOM     28  C   UNL     1       5.995   4.220  14.799  0.00  0.00    +0.000 A 
ATOM     29  H   UNL     1       8.385   6.171  15.659  0.00  0.00    +0.000 HD
ENDBRANCH  19  20
ENDBRANCH   2  19
TORSDOF 5
ENDMDL
MODEL 3
REMARK VINA RESULT:      -8.4      1.363      1.478
REMARK  Name = 
REMARK  5 active torsions:
REMARK  status: ('A' for Active; 'I' for Inactive)
REMARK    1  A    between atoms: C_2  and  C_3
REMARK    2  A    between atoms: C_3  and  C_4
REMARK    3  A    between atoms: N_13  and  C_14
REMARK    4  A    between atoms: C_17  and  C_18
REMARK    5  A    between atoms: C_21  and  C_22
REMARK                            x       y       z     vdW  Elec       q    Type
REMARK                         _______ _______ _______ _____ _____    ______ ____
ROOT
ATOM      1  O   UNL     1       2.468   4.110  17.319  0.00  0.00    +0.000 OA
ATOM      2  C   UNL     1       3.616   4.550  17.283  0.00  0.00    +0.000 C 
ATOM      3  N   UNL     1       4.010   5.818  17.675  0.00  0.00    +0.000 N 
ATOM      4  H   UNL     1       4.935   6.113  17.380  0.00  0.00    +0.000 HD
ENDROOT
BRANCH   3   5
ATOM      5  C   UNL     1       3.185   6.803  18.259  0.00  0.00    +0.000 A 
ATOM      6  C   UNL     1       2.682   6.715  19.557  0.00  0.00    +0.000 A 
ATOM      7  C   UNL     1       1.832   7.705  20.069  0.00  0.00    +0.000 A 
ATOM      8  C   UNL     1       1.471   8.815  19.297  0.00  0.00    +0.000 A 
ATOM      9  C   UNL     1       2.004   8.919  18.006  0.00  0.00    +0.000 A 
ATOM     10  C   UNL     1       2.863   7.930  17.496  0.00  0.00    +0.000 A 
BRANCH   8  11
ATOM     11  C   UNL     1       0.563   9.817  19.835  0.00  0.00    +0.000 A 
ATOM     12  C   UNL     1      -0.122   9.992  21.018  0.00  0.00    +0.000 A 
ATOM     13  N   UNL     1      -0.865  11.146  20.977  0.00  0.00    +0.000 NA
ATOM     14  C   UNL     1      -0.611  11.640  19.782  0.00  0.00    +0.000 A 
ATOM     15  O   UNL     1       0.252  10.883  19.034  0.00  0.00    +0.000 OA
BRANCH  14  16
ATOM     16  C   UNL     1      -1.235  12.934  19.289  0.00  0.00    +0.000 C 
ATOM     17  C   UNL     1      -0.331  14.136  19.097  0.00  0.00    +0.000 C 
ATOM     18  C   UNL     1      -1.294  14.116  20.234  0.00  0.00    +0.000 C 
ENDBRANCH  14  16
ENDBRANCH   8  11
ENDBRANCH   3   5
BRANCH   2  19
ATOM     19  C   UNL     1       4.759   3.651  16.835  0.00  0.00    +0.000 C 
BRANCH  19  20
ATOM     20  C   UNL     1       5.806   4.332  16.012  0.00  0.00    +0.000 A 
ATOM     21  C   UNL     1       6.772   5.197  16.491  0.00  0.00    +0.000 A 
ATOM     22  N   UNL     1       7.581   5.565  15.452  0.00  0.00    +0.000 N 
ATOM     23  C   UNL     1       7.167   4.959  14.289  0.00  0.00    +0.000 A 
ATOM     24  C   UNL     1       7.698   5.042  12.996  0.00  0.00    +0.000 A 
ATOM     25  C   UNL     1       7.073   4.299  11.990  0.00  0.00    +0.000 A 
ATOM     26  C   UNL     1       5.968   3.501  12.274  0.00  0.00    +0.000 A 
ATOM     27  C   UNL     1       5.455   3.424  13.575  0.00  0.00    +0.000 A 
ATOM     28  C   UNL     1       6.058   4.172  14.607  0.00  0.00    +0.000 A 
ATOM     29  H   UNL     1       8.381   6.179  15.521  0.00  0.00    +0.000 HD
ENDBRANCH  19  20
ENDBRANCH   2  19
TORSDOF 5
ENDMDL
MODEL 4
REMARK VINA RESULT:      -8.3      1.773      2.579
REMARK  Name = 
REMARK  5 active torsions:
REMARK  status: ('A' for Active; 'I' for Inactive)
REMARK    1  A    between atoms: C_2  and  C_3
REMARK    2  A    between atoms: C_3  and  C_4
REMARK    3  A    between atoms: N_13  and  C_14
REMARK    4  A    between atoms: C_17  and  C_18
REMARK    5  A    between atoms: C_21  and  C_22
REMARK                            x       y       z     vdW  Elec       q    Type
REMARK                         _______ _______ _______ _____ _____    ______ ____
ROOT
ATOM      1  O   UNL     1       1.818   4.528  19.083  0.00  0.00    +0.000 OA
ATOM      2  C   UNL     1       2.967   4.968  19.096  0.00  0.00    +0.000 C 
ATOM      3  N   UNL     1       3.321   6.307  19.113  0.00  0.00    +0.000 N 
ATOM      4  H   UNL     1       4.288   6.518  18.896  0.00  0.00    +0.000 HD
ENDROOT
BRANCH   3   5
ATOM      5  C   UNL     1       2.433   7.402  19.197  0.00  0.00    +0.000 A 
ATOM      6  C   UNL     1       2.131   8.232  18.118  0.00  0.00    +0.000 A 
ATOM      7  C   UNL     1       1.274   9.330  18.272  0.00  0.00    +0.000 A 
ATOM      8  C   UNL     1       0.689   9.620  19.511  0.00  0.00    +0.000 A 
ATOM      9  C   UNL     1       0.967   8.765  20.585  0.00  0.00    +0.000 A 
ATOM     10  C   UNL     1       1.820   7.659  20.428  0.00  0.00    +0.000 A 
BRANCH   8  11
ATOM     11  C   UNL     1      -0.175  10.782  19.658  0.00  0.00    +0.000 A 
ATOM     12  C   UNL     1      -0.548  11.841  18.859  0.00  0.00    +0.000 A 
ATOM     13  N   UNL     1      -1.402  12.676  19.534  0.00  0.00    +0.000 NA
ATOM     14  C   UNL     1      -1.528  12.106  20.715  0.00  0.00    +0.000 A 
ATOM     15  O   UNL     1      -0.810  10.948  20.860  0.00  0.00    +0.000 OA
BRANCH  14  16
ATOM     16  C   UNL     1      -2.395  12.698  21.815  0.00  0.00    +0.000 C 
ATOM     17  C   UNL     1      -1.708  13.266  23.040  0.00  0.00    +0.000 C 
ATOM     18  C   UNL     1      -2.459  11.984  23.149  0.00  0.00    +0.000 C 
ENDBRANCH  14  16
ENDBRANCH   8  11
ENDBRANCH   3   5
BRANCH   2  19
ATOM     19  C   UNL     1       4.146   4.009  19.164  0.00  0.00    +0.000 C 
BRANCH  19  20
ATOM     20  C   UNL     1       5.375   4.477  18.451  0.00  0.00    +0.000 A 
ATOM     21  C   UNL     1       6.527   4.947  19.055  0.00  0.00    +0.000 A 
ATOM     22  N   UNL     1       7.448   5.219  18.082  0.00  0.00    +0.000 N 
ATOM     23  C   UNL     1       6.927   4.939  16.841  0.00  0.00    +0.000 A 
ATOM     24  C   UNL     1       7.511   5.059  15.575  0.00  0.00    +0.000 A 
ATOM     25  C   UNL     1       6.742   4.687  14.468  0.00  0.00    +0.000 A 
ATOM     26  C   UNL     1       5.445   4.206  14.629  0.00  0.00    +0.000 A 
ATOM     27  C   UNL     1       4.879   4.085  15.905  0.00  0.00    +0.000 A 
ATOM     28  C   UNL     1       5.628   4.464  17.038  0.00  0.00    +0.000 A 
ATOM     29  H   UNL     1       8.386   5.560  18.242  0.00  0.00    +0.000 HD
ENDBRANCH  19  20
ENDBRANCH   2  19
TORSDOF 5
ENDMDL
MODEL 5
REMARK VINA RESULT:      -8.2      1.933      2.232
REMARK  Name = 
REMARK  5 active torsions:
REMARK  status: ('A' for Active; 'I' for Inactive)
REMARK    1  A    between atoms: C_2  and  C_3
REMARK    2  A    between atoms: C_3  and  C_4
REMARK    3  A    between atoms: N_13  and  C_14
REMARK    4  A    between atoms: C_17  and  C_18
REMARK    5  A    between atoms: C_21  and  C_22
REMARK                            x       y       z     vdW  Elec       q    Type
REMARK                         _______ _______ _______ _____ _____    ______ ____
ROOT
ATOM      1  O   UNL     1       2.687   4.289  17.191  0.00  0.00    +0.000 OA
ATOM      2  C   UNL     1       3.818   4.761  17.304  0.00  0.00    +0.000 C 
ATOM      3  N   UNL     1       4.124   6.031  17.763  0.00  0.00    +0.000 N 
ATOM      4  H   UNL     1       5.068   6.357  17.589  0.00  0.00    +0.000 HD
ENDROOT
BRANCH   3   5
ATOM      5  C   UNL     1       3.204   6.982  18.256  0.00  0.00    +0.000 A 
ATOM      6  C   UNL     1       2.620   6.903  19.521  0.00  0.00    +0.000 A 
ATOM      7  C   UNL     1       1.681   7.854  19.941  0.00  0.00    +0.000 A 
ATOM      8  C   UNL     1       1.308   8.916  19.109  0.00  0.00    +0.000 A 
ATOM      9  C   UNL     1       1.920   9.012  17.852  0.00  0.00    +0.000 A 
ATOM     10  C   UNL     1       2.868   8.062  17.434  0.00  0.00    +0.000 A 
BRANCH   8  11
ATOM     11  C   UNL     1       0.308   9.877  19.551  0.00  0.00    +0.000 A 
ATOM     12  C   UNL     1       0.041  10.552  20.722  0.00  0.00    +0.000 A 
ATOM     13  N   UNL     1      -1.068  11.347  20.576  0.00  0.00    +0.000 NA
ATOM     14  C   UNL     1      -1.441  11.139  19.330  0.00  0.00    +0.000 A 
ATOM     15  O   UNL     1      -0.646  10.256  18.646  0.00  0.00    +0.000 OA
BRANCH  14  16
ATOM     16  C   UNL     1      -2.654  11.822  18.719  0.00  0.00    +0.000 C 
ATOM     17  C   UNL     1      -3.845  10.963  18.345  0.00  0.00    +0.000 C 
ATOM     18  C   UNL     1      -2.990  11.540  17.270  0.00  0.00    +0.000 C 
ENDBRANCH  14  16
ENDBRANCH   8  11
ENDBRANCH   3   5
BRANCH   2  19
ATOM     19  C   UNL     1       5.034   3.903  16.986  0.00  0.00    +0.000 C 
BRANCH  19  20
ATOM     20  C   UNL     1       6.011   4.525  16.040  0.00  0.00    +0.000 A 
ATOM     21  C   UNL     1       6.992   5.437  16.380  0.00  0.00    +0.000 A 
ATOM     22  N   UNL     1       7.723   5.728  15.261  0.00  0.00    +0.000 N 
ATOM     23  C   UNL     1       7.240   5.025  14.183  0.00  0.00    +0.000 A 
ATOM     24  C   UNL     1       7.680   5.009  12.853  0.00  0.00    +0.000 A 
ATOM     25  C   UNL     1       6.999   4.180  11.956  0.00  0.00    +0.000 A 
ATOM     26  C   UNL     1       5.930   3.396  12.379  0.00  0.00    +0.000 A 
ATOM     27  C   UNL     1       5.508   3.419  13.714  0.00  0.00    +0.000 A 
ATOM     28  C   UNL     1       6.169   4.254  14.639  0.00  0.00    +0.000 A 
ATOM     29  H   UNL     1       8.515   6.354  15.225  0.00  0.00    +0.000 HD
ENDBRANCH  19  20
ENDBRANCH   2  19
TORSDOF 5
ENDMDL
MODEL 6
REMARK VINA RESULT:      -8.2      2.684      3.431
REMARK  Name = 
REMARK  5 active torsions:
REMARK  status: ('A' for Active; 'I' for Inactive)
REMARK    1  A    between atoms: C_2  and  C_3
REMARK    2  A    between atoms: C_3  and  C_4
REMARK    3  A    between atoms: N_13  and  C_14
REMARK    4  A    between atoms: C_17  and  C_18
REMARK    5  A    between atoms: C_21  and  C_22
REMARK                            x       y       z     vdW  Elec       q    Type
REMARK                         _______ _______ _______ _____ _____    ______ ____
ROOT
ATOM      1  O   UNL     1       1.921   4.996  18.423  0.00  0.00    +0.000 OA
ATOM      2  C   UNL     1       2.903   5.357  19.071  0.00  0.00    +0.000 C 
ATOM      3  N   UNL     1       3.106   6.621  19.598  0.00  0.00    +0.000 N 
ATOM      4  H   UNL     1       4.048   6.833  19.907  0.00  0.00    +0.000 HD
ENDROOT
BRANCH   3   5
ATOM      5  C   UNL     1       2.193   7.697  19.556  0.00  0.00    +0.000 A 
ATOM      6  C   UNL     1       1.433   8.105  20.652  0.00  0.00    +0.000 A 
ATOM      7  C   UNL     1       0.512   9.155  20.539  0.00  0.00    +0.000 A 
ATOM      8  C   UNL     1       0.333   9.830  19.326  0.00  0.00    +0.000 A 
ATOM      9  C   UNL     1       1.121   9.440  18.235  0.00  0.00    +0.000 A 
ATOM     10  C   UNL     1       2.051   8.393  18.351  0.00  0.00    +0.000 A 
BRANCH   8  11
ATOM     11  C   UNL     1      -0.651  10.897  19.220  0.00  0.00    +0.000 A 
ATOM     12  C   UNL     1      -0.657  12.257  19.442  0.00  0.00    +0.000 A 
ATOM     13  N   UNL     1      -1.900  12.780  19.187  0.00  0.00    +0.000 NA
ATOM     14  C   UNL     1      -2.611  11.734  18.816  0.00  0.00    +0.000 A 
ATOM     15  O   UNL     1      -1.912  10.555  18.812  0.00  0.00    +0.000 OA
BRANCH  14  16
ATOM     16  C   UNL     1      -4.078  11.841  18.435  0.00  0.00    +0.000 C 
ATOM     17  C   UNL     1      -4.787  10.588  17.962  0.00  0.00    +0.000 C 
ATOM     18  C   UNL     1      -4.463  11.662  16.981  0.00  0.00    +0.000 C 
ENDBRANCH  14  16
ENDBRANCH   8  11
ENDBRANCH   3   5
BRANCH   2  19
ATOM     19  C   UNL     1       3.997   4.356  19.411  0.00  0.00    +0.000 C 
BRANCH  19  20
ATOM     20  C   UNL     1       5.298   4.586  18.709  0.00  0.00    +0.000 A 
ATOM     21  C   UNL     1       6.506   4.861  19.321  0.00  0.00    +0.000 A 
ATOM     22  N   UNL     1       7.473   4.947  18.357  0.00  0.00    +0.000 N 
ATOM     23  C   UNL     1       6.925   4.735  17.114  0.00  0.00    +0.000 A 
ATOM     24  C   UNL     1       7.536   4.723  15.855  0.00  0.00    +0.000 A 
ATOM     25  C   UNL     1       6.727   4.466  14.744  0.00  0.00    +0.000 A 
ATOM     26  C   UNL     1       5.365   4.222  14.894  0.00  0.00    +0.000 A 
ATOM     27  C   UNL     1       4.771   4.229  16.163  0.00  0.00    +0.000 A 
ATOM     28  C   UNL     1       5.561   4.498  17.300  0.00  0.00    +0.000 A 
ATOM     29  H   UNL     1       8.454   5.123  18.525  0.00  0.00    +0.000 HD
ENDBRANCH  19  20
ENDBRANCH   2  19
TORSDOF 5
ENDMDL
MODEL 7
REMARK VINA RESULT:      -8.1      3.337     10.753
REMARK  Name = 
REMARK  5 active torsions:
REMARK  status: ('A' for Active; 'I' for Inactive)
REMARK    1  A    between atoms: C_2  and  C_3
REMARK    2  A    between atoms: C_3  and  C_4
REMARK    3  A    between atoms: N_13  and  C_14
REMARK    4  A    between atoms: C_17  and  C_18
REMARK    5  A    between atoms: C_21  and  C_22
REMARK                            x       y       z     vdW  Elec       q    Type
REMARK                         _______ _______ _______ _____ _____    ______ ____
ROOT
ATOM      1  O   UNL     1      -1.823   9.971  18.376  0.00  0.00    +0.000 OA
ATOM      2  C   UNL     1      -1.124  10.859  18.862  0.00  0.00    +0.000 C 
ATOM      3  N   UNL     1       0.194  10.724  19.266  0.00  0.00    +0.000 N 
ATOM      4  H   UNL     1       0.564  11.467  19.848  0.00  0.00    +0.000 HD
ENDROOT
BRANCH   3   5
ATOM      5  C   UNL     1       0.994   9.570  19.121  0.00  0.00    +0.000 A 
ATOM      6  C   UNL     1       1.186   8.634  20.137  0.00  0.00    +0.000 A 
ATOM      7  C   UNL     1       2.026   7.528  19.948  0.00  0.00    +0.000 A 
ATOM      8  C   UNL     1       2.689   7.325  18.732  0.00  0.00    +0.000 A 
ATOM      9  C   UNL     1       2.469   8.248  17.702  0.00  0.00    +0.000 A 
ATOM     10  C   UNL     1       1.619   9.352  17.888  0.00  0.00    +0.000 A 
BRANCH   8  11
ATOM     11  C   UNL     1       3.581   6.187  18.566  0.00  0.00    +0.000 A 
ATOM     12  C   UNL     1       4.089   5.204  19.387  0.00  0.00    +0.000 A 
ATOM     13  N   UNL     1       4.919   4.370  18.682  0.00  0.00    +0.000 NA
ATOM     14  C   UNL     1       4.893   4.861  17.460  0.00  0.00    +0.000 A 
ATOM     15  O   UNL     1       4.097   5.967  17.317  0.00  0.00    +0.000 OA
BRANCH  14  16
ATOM     16  C   UNL     1       5.688   4.246  16.320  0.00  0.00    +0.000 C 
ATOM     17  C   UNL     1       6.831   5.048  15.730  0.00  0.00    +0.000 C 
ATOM     18  C   UNL     1       5.578   4.869  14.943  0.00  0.00    +0.000 C 
ENDBRANCH  14  16
ENDBRANCH   8  11
ENDBRANCH   3   5
BRANCH   2  19
ATOM     19  C   UNL     1      -1.677  12.270  19.000  0.00  0.00    +0.000 C 
BRANCH  19  20
ATOM     20  C   UNL     1      -2.980  12.363  19.729  0.00  0.00    +0.000 A 
ATOM     21  C   UNL     1      -3.142  12.761  21.043  0.00  0.00    +0.000 A 
ATOM     22  N   UNL     1      -4.478  12.777  21.332  0.00  0.00    +0.000 N 
ATOM     23  C   UNL     1      -5.207  12.395  20.231  0.00  0.00    +0.000 A 
ATOM     24  C   UNL     1      -6.593  12.275  20.071  0.00  0.00    +0.000 A 
ATOM     25  C   UNL     1      -7.067  11.869  18.820  0.00  0.00    +0.000 A 
ATOM     26  C   UNL     1      -6.188  11.605  17.774  0.00  0.00    +0.000 A 
ATOM     27  C   UNL     1      -4.805  11.738  17.950  0.00  0.00    +0.000 A 
ATOM     28  C   UNL     1      -4.297  12.134  19.205  0.00  0.00    +0.000 A 
ATOM     29  H   UNL     1      -4.883  13.047  22.218  0.00  0.00    +0.000 HD
ENDBRANCH  19  20
ENDBRANCH   2  19
TORSDOF 5
ENDMDL
MODEL 8
REMARK VINA RESULT:      -8.1      2.082      2.910
REMARK  Name = 
REMARK  5 active torsions:
REMARK  status: ('A' for Active; 'I' for Inactive)
REMARK    1  A    between atoms: C_2  and  C_3
REMARK    2  A    between atoms: C_3  and  C_4
REMARK    3  A    between atoms: N_13  and  C_14
REMARK    4  A    between atoms: C_17  and  C_18
REMARK    5  A    between atoms: C_21  and  C_22
REMARK                            x       y       z     vdW  Elec       q    Type
REMARK                         _______ _______ _______ _____ _____    ______ ____
ROOT
ATOM      1  O   UNL     1       1.865   4.702  19.177  0.00  0.00    +0.000 OA
ATOM      2  C   UNL     1       2.999   5.181  19.187  0.00  0.00    +0.000 C 
ATOM      3  N   UNL     1       3.310   6.528  19.116  0.00  0.00    +0.000 N 
ATOM      4  H   UNL     1       4.276   6.755  18.909  0.00  0.00    +0.000 HD
ENDROOT
BRANCH   3   5
ATOM      5  C   UNL     1       2.387   7.596  19.099  0.00  0.00    +0.000 A 
ATOM      6  C   UNL     1       2.051   8.304  17.944  0.00  0.00    +0.000 A 
ATOM      7  C   UNL     1       1.159   9.383  17.996  0.00  0.00    +0.000 A 
ATOM      8  C   UNL     1       0.571   9.776  19.204  0.00  0.00    +0.000 A 
ATOM      9  C   UNL     1       0.884   9.043  20.356  0.00  0.00    +0.000 A 
ATOM     10  C   UNL     1       1.773   7.955  20.303  0.00  0.00    +0.000 A 
BRANCH   8  11
ATOM     11  C   UNL     1      -0.330  10.919  19.243  0.00  0.00    +0.000 A 
ATOM     12  C   UNL     1      -1.675  11.121  19.021  0.00  0.00    +0.000 A 
ATOM     13  N   UNL     1      -1.997  12.444  19.190  0.00  0.00    +0.000 NA
ATOM     14  C   UNL     1      -0.849  13.007  19.511  0.00  0.00    +0.000 A 
ATOM     15  O   UNL     1       0.208  12.136  19.563  0.00  0.00    +0.000 OA
BRANCH  14  16
ATOM     16  C   UNL     1      -0.724  14.495  19.790  0.00  0.00    +0.000 C 
ATOM     17  C   UNL     1      -0.080  15.370  18.734  0.00  0.00    +0.000 C 
ATOM     18  C   UNL     1       0.658  15.080  19.995  0.00  0.00    +0.000 C 
ENDBRANCH  14  16
ENDBRANCH   8  11
ENDBRANCH   3   5
BRANCH   2  19
ATOM     19  C   UNL     1       4.205   4.269  19.354  0.00  0.00    +0.000 C 
BRANCH  19  20
ATOM     20  C   UNL     1       5.419   4.689  18.589  0.00  0.00    +0.000 A 
ATOM     21  C   UNL     1       6.577   5.209  19.137  0.00  0.00    +0.000 A 
ATOM     22  N   UNL     1       7.481   5.414  18.131  0.00  0.00    +0.000 N 
ATOM     23  C   UNL     1       6.941   5.041  16.924  0.00  0.00    +0.000 A 
ATOM     24  C   UNL     1       7.504   5.071  15.642  0.00  0.00    +0.000 A 
ATOM     25  C   UNL     1       6.719   4.615  14.579  0.00  0.00    +0.000 A 
ATOM     26  C   UNL     1       5.429   4.139  14.796  0.00  0.00    +0.000 A 
ATOM     27  C   UNL     1       4.885   4.109  16.086  0.00  0.00    +0.000 A 
ATOM     28  C   UNL     1       5.649   4.574  17.176  0.00  0.00    +0.000 A 
ATOM     29  H   UNL     1       8.419   5.772  18.250  0.00  0.00    +0.000 HD
ENDBRANCH  19  20
ENDBRANCH   2  19
TORSDOF 5
ENDMDL
MODEL 9
REMARK VINA RESULT:      -8.1      6.785      8.319
REMARK  Name = 
REMARK  5 active torsions:
REMARK  status: ('A' for Active; 'I' for Inactive)
REMARK    1  A    between atoms: C_2  and  C_3
REMARK    2  A    between atoms: C_3  and  C_4
REMARK    3  A    between atoms: N_13  and  C_14
REMARK    4  A    between atoms: C_17  and  C_18
REMARK    5  A    between atoms: C_21  and  C_22
REMARK                            x       y       z     vdW  Elec       q    Type
REMARK                         _______ _______ _______ _____ _____    ______ ____
ROOT
ATOM      1  O   UNL     1       7.792   7.897  17.001  0.00  0.00    +0.000 OA
ATOM      2  C   UNL     1       8.122   7.684  18.167  0.00  0.00    +0.000 C 
ATOM      3  N   UNL     1       8.716   8.598  19.021  0.00  0.00    +0.000 N 
ATOM      4  H   UNL     1       9.131   8.221  19.865  0.00  0.00    +0.000 HD
ENDROOT
BRANCH   3   5
ATOM      5  C   UNL     1       8.977   9.956  18.736  0.00  0.00    +0.000 A 
ATOM      6  C   UNL     1       8.229  10.710  17.830  0.00  0.00    +0.000 A 
ATOM      7  C   UNL     1       8.562  12.043  17.557  0.00  0.00    +0.000 A 
ATOM      8  C   UNL     1       9.648  12.661  18.190  0.00  0.00    +0.000 A 
ATOM      9  C   UNL     1      10.376  11.912  19.123  0.00  0.00    +0.000 A 
ATOM     10  C   UNL     1      10.037  10.577  19.404  0.00  0.00    +0.000 A 
BRANCH   8  11
ATOM     11  C   UNL     1       9.996  14.037  17.870  0.00  0.00    +0.000 A 
ATOM     12  C   UNL     1      11.030  14.663  17.208  0.00  0.00    +0.000 A 
ATOM     13  N   UNL     1      10.851  16.024  17.216  0.00  0.00    +0.000 NA
ATOM     14  C   UNL     1       9.721  16.188  17.874  0.00  0.00    +0.000 A 
ATOM     15  O   UNL     1       9.145  15.019  18.299  0.00  0.00    +0.000 OA
BRANCH  14  16
ATOM     16  C   UNL     1       9.125  17.561  18.135  0.00  0.00    +0.000 C 
ATOM     17  C   UNL     1       9.516  18.281  19.410  0.00  0.00    +0.000 C 
ATOM     18  C   UNL     1       8.143  17.718  19.278  0.00  0.00    +0.000 C 
ENDBRANCH  14  16
ENDBRANCH   8  11
ENDBRANCH   3   5
BRANCH   2  19
ATOM     19  C   UNL     1       7.821   6.337  18.806  0.00  0.00    +0.000 C 
BRANCH  19  20
ATOM     20  C   UNL     1       6.973   5.425  17.977  0.00  0.00    +0.000 A 
ATOM     21  C   UNL     1       7.440   4.527  17.035  0.00  0.00    +0.000 A 
ATOM     22  N   UNL     1       6.375   3.832  16.531  0.00  0.00    +0.000 N 
ATOM     23  C   UNL     1       5.209   4.256  17.122  0.00  0.00    +0.000 A 
ATOM     24  C   UNL     1       3.892   3.824  16.919  0.00  0.00    +0.000 A 
ATOM     25  C   UNL     1       2.887   4.434  17.676  0.00  0.00    +0.000 A 
ATOM     26  C   UNL     1       3.193   5.426  18.602  0.00  0.00    +0.000 A 
ATOM     27  C   UNL     1       4.516   5.840  18.798  0.00  0.00    +0.000 A 
ATOM     28  C   UNL     1       5.550   5.252  18.040  0.00  0.00    +0.000 A 
ATOM     29  H   UNL     1       6.429   3.099  15.838  0.00  0.00    +0.000 HD
ENDBRANCH  19  20
ENDBRANCH   2  19
TORSDOF 5
ENDMDL
