MODEL 1
REMARK VINA RESULT:      -8.6      0.000      0.000
REMARK  Name = 
REMARK  5 active torsions:
REMARK  status: ('A' for Active; 'I' for Inactive)
REMARK    1  A    between atoms: C_2  and  C_3
REMARK    2  A    between atoms: C_3  and  N_4
REMARK    3  A    between atoms: N_14  and  C_15
REMARK    4  A    between atoms: N_25  and  C_26
REMARK    5  A    between atoms: C_26  and  C_27
REMARK                            x       y       z     vdW  Elec       q    Type
REMARK                         _______ _______ _______ _____ _____    ______ ____
ROOT
ATOM      1  O   UNL     1       2.114   4.652  17.851  0.00  0.00    +0.000 OA
ATOM      2  C   UNL     1       3.123   4.913  18.498  0.00  0.00    +0.000 C 
ATOM      3  N   UNL     1       3.394   6.112  19.148  0.00  0.00    +0.000 N 
ATOM      4  H   UNL     1       4.359   6.258  19.436  0.00  0.00    +0.000 HD
ENDROOT
BRANCH   3   5
ATOM      5  C   UNL     1       2.543   7.235  19.203  0.00  0.00    +0.000 A 
ATOM      6  C   UNL     1       2.489   8.219  18.223  0.00  0.00    +0.000 A 
ATOM      7  C   UNL     1       1.720   9.376  18.416  0.00  0.00    +0.000 A 
ATOM      8  C   UNL     1       0.980   9.588  19.586  0.00  0.00    +0.000 A 
ATOM      9  C   UNL     1       0.990   8.567  20.543  0.00  0.00    +0.000 A 
ATOM     10  C   UNL     1       1.739   7.388  20.330  0.00  0.00    +0.000 A 
ATOM     11  C   UNL     1       0.239   8.674  21.830  0.00  0.00    +0.000 C 
ATOM     12  C   UNL     1      -0.224  10.065  22.176  0.00  0.00    +0.000 C 
ATOM     13  C   UNL     1      -0.320  11.079  21.061  0.00  0.00    +0.000 C 
ATOM     14  O   UNL     1      -0.846  12.166  21.332  0.00  0.00    +0.000 OA
ATOM     15  N   UNL     1       0.258  10.804  19.824  0.00  0.00    +0.000 N 
BRANCH  15  16
ATOM     16  C   UNL     1       0.413  11.957  18.922  0.00  0.00    +0.000 C 
BRANCH  16  17
ATOM     17  C   UNL     1       1.596  12.875  19.087  0.00  0.00    +0.000 C 
ATOM     18  C   UNL     1       1.424  14.379  19.095  0.00  0.00    +0.000 C 
ATOM     19  C   UNL     1       2.227  13.727  18.012  0.00  0.00    +0.000 C 
ENDBRANCH  16  17
ENDBRANCH  15  16
ENDBRANCH   3   5
BRANCH   2  20
ATOM     20  C   UNL     1       4.268   3.907  18.585  0.00  0.00    +0.000 C 
BRANCH  20  21
ATOM     21  N   UNL     1       5.451   4.398  17.927  0.00  0.00    +0.000 N 
ATOM     22  C   UNL     1       6.547   4.977  18.587  0.00  0.00    +0.000 A 
ATOM     23  O   UNL     1       6.640   5.194  19.781  0.00  0.00    +0.000 OA
ATOM     24  N   UNL     1       7.498   5.276  17.602  0.00  0.00    +0.000 N 
ATOM     25  C   UNL     1       6.982   4.927  16.359  0.00  0.00    +0.000 A 
ATOM     26  C   UNL     1       7.549   5.063  15.112  0.00  0.00    +0.000 A 
ATOM     27  C   UNL     1       6.781   4.642  14.022  0.00  0.00    +0.000 A 
ATOM     28  C   UNL     1       5.486   4.108  14.209  0.00  0.00    +0.000 A 
ATOM     29  C   UNL     1       4.933   3.976  15.490  0.00  0.00    +0.000 A 
ATOM     30  C   UNL     1       5.705   4.391  16.550  0.00  0.00    +0.000 A 
ATOM     31  H   UNL     1       8.394   5.697  17.789  0.00  0.00    +0.000 HD
ENDBRANCH  20  21
ENDBRANCH   2  20
TORSDOF 5
ENDMDL
MODEL 2
REMARK VINA RESULT:      -8.6      1.755      2.373
REMARK  Name = 
REMARK  5 active torsions:
REMARK  status: ('A' for Active; 'I' for Inactive)
REMARK    1  A    between atoms: C_2  and  C_3
REMARK    2  A    between atoms: C_3  and  N_4
REMARK    3  A    between atoms: N_14  and  C_15
REMARK    4  A    between atoms: N_25  and  C_26
REMARK    5  A    between atoms: C_26  and  C_27
REMARK                            x       y       z     vdW  Elec       q    Type
REMARK                         _______ _______ _______ _____ _____    ______ ____
ROOT
ATOM      1  O   UNL     1       1.046   4.781  20.372  0.00  0.00    +0.000 OA
ATOM      2  C   UNL     1       2.213   5.155  20.311  0.00  0.00    +0.000 C 
ATOM      3  N   UNL     1       2.647   6.469  20.180  0.00  0.00    +0.000 N 
ATOM      4  H   UNL     1       3.619   6.596  19.908  0.00  0.00    +0.000 HD
ENDROOT
BRANCH   3   5
ATOM      5  C   UNL     1       1.822   7.612  20.120  0.00  0.00    +0.000 A 
ATOM      6  C   UNL     1       1.737   8.454  19.018  0.00  0.00    +0.000 A 
ATOM      7  C   UNL     1       1.002   9.647  19.086  0.00  0.00    +0.000 A 
ATOM      8  C   UNL     1       0.327  10.036  20.250  0.00  0.00    +0.000 A 
ATOM      9  C   UNL     1       0.366   9.155  21.337  0.00  0.00    +0.000 A 
ATOM     10  C   UNL     1       1.079   7.938  21.253  0.00  0.00    +0.000 A 
ATOM     11  C   UNL     1      -0.317   9.456  22.631  0.00  0.00    +0.000 C 
ATOM     12  C   UNL     1      -0.734  10.893  22.804  0.00  0.00    +0.000 C 
ATOM     13  C   UNL     1      -0.867  11.748  21.567  0.00  0.00    +0.000 C 
ATOM     14  O   UNL     1      -1.357  12.875  21.709  0.00  0.00    +0.000 OA
ATOM     15  N   UNL     1      -0.357  11.291  20.353  0.00  0.00    +0.000 N 
BRANCH  15  16
ATOM     16  C   UNL     1      -0.226  12.307  19.294  0.00  0.00    +0.000 C 
BRANCH  16  17
ATOM     17  C   UNL     1       0.888  13.317  19.369  0.00  0.00    +0.000 C 
ATOM     18  C   UNL     1       2.155  13.146  18.557  0.00  0.00    +0.000 C 
ATOM     19  C   UNL     1       2.222  13.133  20.053  0.00  0.00    +0.000 C 
ENDBRANCH  16  17
ENDBRANCH  15  16
ENDBRANCH   3   5
BRANCH   2  20
ATOM     20  C   UNL     1       3.352   4.139  20.299  0.00  0.00    +0.000 C 
BRANCH  20  21
ATOM     21  N   UNL     1       3.947   4.032  18.992  0.00  0.00    +0.000 N 
ATOM     22  C   UNL     1       3.371   3.349  17.909  0.00  0.00    +0.000 A 
ATOM     23  O   UNL     1       2.332   2.716  17.922  0.00  0.00    +0.000 OA
ATOM     24  N   UNL     1       4.237   3.520  16.820  0.00  0.00    +0.000 N 
ATOM     25  C   UNL     1       5.341   4.256  17.235  0.00  0.00    +0.000 A 
ATOM     26  C   UNL     1       6.450   4.641  16.517  0.00  0.00    +0.000 A 
ATOM     27  C   UNL     1       7.427   5.365  17.207  0.00  0.00    +0.000 A 
ATOM     28  C   UNL     1       7.269   5.676  18.575  0.00  0.00    +0.000 A 
ATOM     29  C   UNL     1       6.128   5.276  19.284  0.00  0.00    +0.000 A 
ATOM     30  C   UNL     1       5.176   4.569  18.586  0.00  0.00    +0.000 A 
ATOM     31  H   UNL     1       4.073   3.141  15.901  0.00  0.00    +0.000 HD
ENDBRANCH  20  21
ENDBRANCH   2  20
TORSDOF 5
ENDMDL
MODEL 3
REMARK VINA RESULT:      -8.5      1.994      2.659
REMARK  Name = 
REMARK  5 active torsions:
REMARK  status: ('A' for Active; 'I' for Inactive)
REMARK    1  A    between atoms: C_2  and  C_3
REMARK    2  A    between atoms: C_3  and  N_4
REMARK    3  A    between atoms: N_14  and  C_15
REMARK    4  A    between atoms: N_25  and  C_26
REMARK    5  A    between atoms: C_26  and  C_27
REMARK                            x       y       z     vdW  Elec       q    Type
REMARK                         _______ _______ _______ _____ _____    ______ ____
ROOT
ATOM      1  O   UNL     1       1.459   4.924  19.930  0.00  0.00    +0.000 OA
ATOM      2  C   UNL     1       2.545   5.467  20.103  0.00  0.00    +0.000 C 
ATOM      3  N   UNL     1       2.770   6.834  20.214  0.00  0.00    +0.000 N 
ATOM      4  H   UNL     1       3.736   7.139  20.118  0.00  0.00    +0.000 HD
ENDROOT
BRANCH   3   5
ATOM      5  C   UNL     1       1.784   7.842  20.173  0.00  0.00    +0.000 A 
ATOM      6  C   UNL     1       1.489   8.598  19.045  0.00  0.00    +0.000 A 
ATOM      7  C   UNL     1       0.594   9.675  19.122  0.00  0.00    +0.000 A 
ATOM      8  C   UNL     1      -0.037  10.031  20.321  0.00  0.00    +0.000 A 
ATOM      9  C   UNL     1       0.217   9.230  21.440  0.00  0.00    +0.000 A 
ATOM     10  C   UNL     1       1.093   8.124  21.350  0.00  0.00    +0.000 A 
ATOM     11  C   UNL     1      -0.397   9.504  22.773  0.00  0.00    +0.000 C 
ATOM     12  C   UNL     1      -1.007  10.875  22.915  0.00  0.00    +0.000 C 
ATOM     13  C   UNL     1      -1.362  11.628  21.656  0.00  0.00    +0.000 C 
ATOM     14  O   UNL     1      -1.999  12.680  21.789  0.00  0.00    +0.000 OA
ATOM     15  N   UNL     1      -0.888  11.179  20.425  0.00  0.00    +0.000 N 
BRANCH  15  16
ATOM     16  C   UNL     1      -0.992  12.140  19.313  0.00  0.00    +0.000 C 
BRANCH  16  17
ATOM     17  C   UNL     1      -1.951  11.868  18.184  0.00  0.00    +0.000 C 
ATOM     18  C   UNL     1      -3.444  11.799  18.425  0.00  0.00    +0.000 C 
ATOM     19  C   UNL     1      -2.710  10.586  17.942  0.00  0.00    +0.000 C 
ENDBRANCH  16  17
ENDBRANCH  15  16
ENDBRANCH   3   5
BRANCH   2  20
ATOM     20  C   UNL     1       3.827   4.640  20.139  0.00  0.00    +0.000 C 
BRANCH  20  21
ATOM     21  N   UNL     1       4.144   4.103  18.842  0.00  0.00    +0.000 N 
ATOM     22  C   UNL     1       4.007   2.753  18.483  0.00  0.00    +0.000 A 
ATOM     23  O   UNL     1       3.658   1.843  19.212  0.00  0.00    +0.000 OA
ATOM     24  N   UNL     1       4.373   2.655  17.134  0.00  0.00    +0.000 N 
ATOM     25  C   UNL     1       4.766   3.911  16.683  0.00  0.00    +0.000 A 
ATOM     26  C   UNL     1       5.226   4.284  15.441  0.00  0.00    +0.000 A 
ATOM     27  C   UNL     1       5.574   5.629  15.277  0.00  0.00    +0.000 A 
ATOM     28  C   UNL     1       5.455   6.545  16.346  0.00  0.00    +0.000 A 
ATOM     29  C   UNL     1       4.980   6.140  17.600  0.00  0.00    +0.000 A 
ATOM     30  C   UNL     1       4.638   4.815  17.740  0.00  0.00    +0.000 A 
ATOM     31  H   UNL     1       4.365   1.798  16.605  0.00  0.00    +0.000 HD
ENDBRANCH  20  21
ENDBRANCH   2  20
TORSDOF 5
ENDMDL
MODEL 4
REMARK VINA RESULT:      -8.4      1.927      2.695
REMARK  Name = 
REMARK  5 active torsions:
REMARK  status: ('A' for Active; 'I' for Inactive)
REMARK    1  A    between atoms: C_2  and  C_3
REMARK    2  A    between atoms: C_3  and  N_4
REMARK    3  A    between atoms: N_14  and  C_15
REMARK    4  A    between atoms: N_25  and  C_26
REMARK    5  A    between atoms: C_26  and  C_27
REMARK                            x       y       z     vdW  Elec       q    Type
REMARK                         _______ _______ _______ _____ _____    ______ ____
ROOT
ATOM      1  O   UNL     1       1.087   4.749  20.494  0.00  0.00    +0.000 OA
ATOM      2  C   UNL     1       2.237   5.130  20.299  0.00  0.00    +0.000 C 
ATOM      3  N   UNL     1       2.642   6.445  20.100  0.00  0.00    +0.000 N 
ATOM      4  H   UNL     1       3.577   6.574  19.721  0.00  0.00    +0.000 HD
ENDROOT
BRANCH   3   5
ATOM      5  C   UNL     1       1.806   7.581  20.115  0.00  0.00    +0.000 A 
ATOM      6  C   UNL     1       1.695   8.480  19.061  0.00  0.00    +0.000 A 
ATOM      7  C   UNL     1       0.950   9.660  19.205  0.00  0.00    +0.000 A 
ATOM      8  C   UNL     1       0.290   9.979  20.399  0.00  0.00    +0.000 A 
ATOM      9  C   UNL     1       0.355   9.042  21.436  0.00  0.00    +0.000 A 
ATOM     10  C   UNL     1       1.078   7.838  21.275  0.00  0.00    +0.000 A 
ATOM     11  C   UNL     1      -0.309   9.266  22.754  0.00  0.00    +0.000 C 
ATOM     12  C   UNL     1      -0.738  10.687  23.011  0.00  0.00    +0.000 C 
ATOM     13  C   UNL     1      -0.898  11.606  21.823  0.00  0.00    +0.000 C 
ATOM     14  O   UNL     1      -1.396  12.718  22.034  0.00  0.00    +0.000 OA
ATOM     15  N   UNL     1      -0.404  11.220  20.579  0.00  0.00    +0.000 N 
BRANCH  15  16
ATOM     16  C   UNL     1      -0.299  12.292  19.575  0.00  0.00    +0.000 C 
BRANCH  16  17
ATOM     17  C   UNL     1      -1.423  12.504  18.595  0.00  0.00    +0.000 C 
ATOM     18  C   UNL     1      -2.728  11.746  18.725  0.00  0.00    +0.000 C 
ATOM     19  C   UNL     1      -1.866  11.545  17.517  0.00  0.00    +0.000 C 
ENDBRANCH  16  17
ENDBRANCH  15  16
ENDBRANCH   3   5
BRANCH   2  20
ATOM     20  C   UNL     1       3.376   4.122  20.176  0.00  0.00    +0.000 C 
BRANCH  20  21
ATOM     21  N   UNL     1       3.955   4.141  18.858  0.00  0.00    +0.000 N 
ATOM     22  C   UNL     1       3.370   3.557  17.723  0.00  0.00    +0.000 A 
ATOM     23  O   UNL     1       2.335   2.917  17.690  0.00  0.00    +0.000 OA
ATOM     24  N   UNL     1       4.220   3.834  16.644  0.00  0.00    +0.000 N 
ATOM     25  C   UNL     1       5.325   4.537  17.112  0.00  0.00    +0.000 A 
ATOM     26  C   UNL     1       6.422   4.995  16.418  0.00  0.00    +0.000 A 
ATOM     27  C   UNL     1       7.403   5.659  17.161  0.00  0.00    +0.000 A 
ATOM     28  C   UNL     1       7.261   5.841  18.554  0.00  0.00    +0.000 A 
ATOM     29  C   UNL     1       6.132   5.369  19.237  0.00  0.00    +0.000 A 
ATOM     30  C   UNL     1       5.175   4.723  18.488  0.00  0.00    +0.000 A 
ATOM     31  H   UNL     1       4.047   3.541  15.696  0.00  0.00    +0.000 HD
ENDBRANCH  20  21
ENDBRANCH   2  20
TORSDOF 5
ENDMDL
MODEL 5
REMARK VINA RESULT:      -8.3      1.681      2.123
REMARK  Name = 
REMARK  5 active torsions:
REMARK  status: ('A' for Active; 'I' for Inactive)
REMARK    1  A    between atoms: C_2  and  C_3
REMARK    2  A    between atoms: C_3  and  N_4
REMARK    3  A    between atoms: N_14  and  C_15
REMARK    4  A    between atoms: N_25  and  C_26
REMARK    5  A    between atoms: C_26  and  C_27
REMARK                            x       y       z     vdW  Elec       q    Type
REMARK                         _______ _______ _______ _____ _____    ______ ____
ROOT
ATOM      1  O   UNL     1       1.572   5.360  19.037  0.00  0.00    +0.000 OA
ATOM      2  C   UNL     1       2.504   5.746  19.735  0.00  0.00    +0.000 C 
ATOM      3  N   UNL     1       2.613   6.994  20.340  0.00  0.00    +0.000 N 
ATOM      4  H   UNL     1       3.537   7.246  20.683  0.00  0.00    +0.000 HD
ENDROOT
BRANCH   3   5
ATOM      5  C   UNL     1       1.658   8.029  20.281  0.00  0.00    +0.000 A 
ATOM      6  C   UNL     1       1.434   8.820  19.160  0.00  0.00    +0.000 A 
ATOM      7  C   UNL     1       0.566   9.920  19.224  0.00  0.00    +0.000 A 
ATOM      8  C   UNL     1      -0.109  10.264  20.403  0.00  0.00    +0.000 A 
ATOM      9  C   UNL     1       0.073   9.429  21.511  0.00  0.00    +0.000 A 
ATOM     10  C   UNL     1       0.922   8.302  21.432  0.00  0.00    +0.000 A 
ATOM     11  C   UNL     1      -0.593   9.689  22.822  0.00  0.00    +0.000 C 
ATOM     12  C   UNL     1      -1.172  11.072  22.972  0.00  0.00    +0.000 C 
ATOM     13  C   UNL     1      -1.449  11.865  21.718  0.00  0.00    +0.000 C 
ATOM     14  O   UNL     1      -2.063  12.931  21.849  0.00  0.00    +0.000 OA
ATOM     15  N   UNL     1      -0.932  11.433  20.498  0.00  0.00    +0.000 N 
BRANCH  15  16
ATOM     16  C   UNL     1      -0.960  12.423  19.408  0.00  0.00    +0.000 C 
BRANCH  16  17
ATOM     17  C   UNL     1       0.044  13.545  19.398  0.00  0.00    +0.000 C 
ATOM     18  C   UNL     1       1.248  13.509  18.480  0.00  0.00    +0.000 C 
ATOM     19  C   UNL     1       1.443  13.502  19.965  0.00  0.00    +0.000 C 
ENDBRANCH  16  17
ENDBRANCH  15  16
ENDBRANCH   3   5
BRANCH   2  20
ATOM     20  C   UNL     1       3.731   4.863  19.948  0.00  0.00    +0.000 C 
BRANCH  20  21
ATOM     21  N   UNL     1       4.131   4.215  18.727  0.00  0.00    +0.000 N 
ATOM     22  C   UNL     1       4.089   2.829  18.510  0.00  0.00    +0.000 A 
ATOM     23  O   UNL     1       3.764   1.979  19.319  0.00  0.00    +0.000 OA
ATOM     24  N   UNL     1       4.515   2.614  17.192  0.00  0.00    +0.000 N 
ATOM     25  C   UNL     1       4.852   3.838  16.624  0.00  0.00    +0.000 A 
ATOM     26  C   UNL     1       5.340   4.108  15.366  0.00  0.00    +0.000 A 
ATOM     27  C   UNL     1       5.615   5.447  15.072  0.00  0.00    +0.000 A 
ATOM     28  C   UNL     1       5.399   6.460  16.032  0.00  0.00    +0.000 A 
ATOM     29  C   UNL     1       4.897   6.160  17.305  0.00  0.00    +0.000 A 
ATOM     30  C   UNL     1       4.628   4.838  17.574  0.00  0.00    +0.000 A 
ATOM     31  H   UNL     1       4.580   1.707  16.758  0.00  0.00    +0.000 HD
ENDBRANCH  20  21
ENDBRANCH   2  20
TORSDOF 5
ENDMDL
MODEL 6
REMARK VINA RESULT:      -8.2      0.974      1.099
REMARK  Name = 
REMARK  5 active torsions:
REMARK  status: ('A' for Active; 'I' for Inactive)
REMARK    1  A    between atoms: C_2  and  C_3
REMARK    2  A    between atoms: C_3  and  N_4
REMARK    3  A    between atoms: N_14  and  C_15
REMARK    4  A    between atoms: N_25  and  C_26
REMARK    5  A    between atoms: C_26  and  C_27
REMARK                            x       y       z     vdW  Elec       q    Type
REMARK                         _______ _______ _______ _____ _____    ______ ____
ROOT
ATOM      1  O   UNL     1       2.689   4.617  17.320  0.00  0.00    +0.000 OA
ATOM      2  C   UNL     1       3.715   5.024  17.854  0.00  0.00    +0.000 C 
ATOM      3  N   UNL     1       3.874   6.246  18.498  0.00  0.00    +0.000 N 
ATOM      4  H   UNL     1       4.833   6.537  18.679  0.00  0.00    +0.000 HD
ENDROOT
BRANCH   3   5
ATOM      5  C   UNL     1       2.875   7.225  18.677  0.00  0.00    +0.000 A 
ATOM      6  C   UNL     1       2.519   8.159  17.711  0.00  0.00    +0.000 A 
ATOM      7  C   UNL     1       1.615   9.188  18.014  0.00  0.00    +0.000 A 
ATOM      8  C   UNL     1       1.036   9.318  19.283  0.00  0.00    +0.000 A 
ATOM      9  C   UNL     1       1.352   8.340  20.233  0.00  0.00    +0.000 A 
ATOM     10  C   UNL     1       2.237   7.285  19.914  0.00  0.00    +0.000 A 
ATOM     11  C   UNL     1       0.797   8.367  21.619  0.00  0.00    +0.000 C 
ATOM     12  C   UNL     1       0.177   9.679  22.024  0.00  0.00    +0.000 C 
ATOM     13  C   UNL     1      -0.245  10.632  20.932  0.00  0.00    +0.000 C 
ATOM     14  O   UNL     1      -0.888  11.632  21.273  0.00  0.00    +0.000 OA
ATOM     15  N   UNL     1       0.176  10.413  19.622  0.00  0.00    +0.000 N 
BRANCH  15  16
ATOM     16  C   UNL     1       0.009  11.550  18.700  0.00  0.00    +0.000 C 
BRANCH  16  17
ATOM     17  C   UNL     1       0.876  12.770  18.862  0.00  0.00    +0.000 C 
ATOM     18  C   UNL     1       2.208  12.884  18.151  0.00  0.00    +0.000 C 
ATOM     19  C   UNL     1       2.161  12.860  19.648  0.00  0.00    +0.000 C 
ENDBRANCH  16  17
ENDBRANCH  15  16
ENDBRANCH   3   5
BRANCH   2  20
ATOM     20  C   UNL     1       5.002   4.206  17.785  0.00  0.00    +0.000 C 
BRANCH  20  21
ATOM     21  N   UNL     1       5.933   4.767  16.842  0.00  0.00    +0.000 N 
ATOM     22  C   UNL     1       6.892   5.744  17.155  0.00  0.00    +0.000 A 
ATOM     23  O   UNL     1       7.045   6.289  18.233  0.00  0.00    +0.000 OA
ATOM     24  N   UNL     1       7.620   5.983  15.982  0.00  0.00    +0.000 N 
ATOM     25  C   UNL     1       7.094   5.202  14.959  0.00  0.00    +0.000 A 
ATOM     26  C   UNL     1       7.472   5.128  13.638  0.00  0.00    +0.000 A 
ATOM     27  C   UNL     1       6.740   4.261  12.821  0.00  0.00    +0.000 A 
ATOM     28  C   UNL     1       5.665   3.507  13.342  0.00  0.00    +0.000 A 
ATOM     29  C   UNL     1       5.302   3.597  14.693  0.00  0.00    +0.000 A 
ATOM     30  C   UNL     1       6.038   4.451  15.482  0.00  0.00    +0.000 A 
ATOM     31  H   UNL     1       8.383   6.638  15.912  0.00  0.00    +0.000 HD
ENDBRANCH  20  21
ENDBRANCH   2  20
TORSDOF 5
ENDMDL
MODEL 7
REMARK VINA RESULT:      -8.2      1.458      1.932
REMARK  Name = 
REMARK  5 active torsions:
REMARK  status: ('A' for Active; 'I' for Inactive)
REMARK    1  A    between atoms: C_2  and  C_3
REMARK    2  A    between atoms: C_3  and  N_4
REMARK    3  A    between atoms: N_14  and  C_15
REMARK    4  A    between atoms: N_25  and  C_26
REMARK    5  A    between atoms: C_26  and  C_27
REMARK                            x       y       z     vdW  Elec       q    Type
REMARK                         _______ _______ _______ _____ _____    ______ ____
ROOT
ATOM      1  O   UNL     1       2.688   4.005  19.193  0.00  0.00    +0.000 OA
ATOM      2  C   UNL     1       3.708   4.648  19.418  0.00  0.00    +0.000 C 
ATOM      3  N   UNL     1       3.791   6.029  19.564  0.00  0.00    +0.000 N 
ATOM      4  H   UNL     1       4.725   6.430  19.510  0.00  0.00    +0.000 HD
ENDROOT
BRANCH   3   5
ATOM      5  C   UNL     1       2.711   6.934  19.506  0.00  0.00    +0.000 A 
ATOM      6  C   UNL     1       2.188   7.448  18.326  0.00  0.00    +0.000 A 
ATOM      7  C   UNL     1       1.207   8.450  18.357  0.00  0.00    +0.000 A 
ATOM      8  C   UNL     1       0.715   8.969  19.562  0.00  0.00    +0.000 A 
ATOM      9  C   UNL     1       1.202   8.406  20.747  0.00  0.00    +0.000 A 
ATOM     10  C   UNL     1       2.165   7.372  20.711  0.00  0.00    +0.000 A 
ATOM     11  C   UNL     1       0.753   8.871  22.093  0.00  0.00    +0.000 C 
ATOM     12  C   UNL     1       0.032  10.194  22.095  0.00  0.00    +0.000 C 
ATOM     13  C   UNL     1      -0.568  10.677  20.797  0.00  0.00    +0.000 C 
ATOM     14  O   UNL     1      -1.285  11.684  20.847  0.00  0.00    +0.000 OA
ATOM     15  N   UNL     1      -0.226  10.049  19.601  0.00  0.00    +0.000 N 
BRANCH  15  16
ATOM     16  C   UNL     1      -0.580  10.781  18.373  0.00  0.00    +0.000 C 
BRANCH  16  17
ATOM     17  C   UNL     1      -1.754  10.323  17.548  0.00  0.00    +0.000 C 
ATOM     18  C   UNL     1      -2.490  11.280  16.634  0.00  0.00    +0.000 C 
ATOM     19  C   UNL     1      -3.206  10.655  17.791  0.00  0.00    +0.000 C 
ENDBRANCH  16  17
ENDBRANCH  15  16
ENDBRANCH   3   5
BRANCH   2  20
ATOM     20  C   UNL     1       5.064   3.952  19.485  0.00  0.00    +0.000 C 
BRANCH  20  21
ATOM     21  N   UNL     1       6.000   4.532  18.558  0.00  0.00    +0.000 N 
ATOM     22  C   UNL     1       7.122   5.290  18.929  0.00  0.00    +0.000 A 
ATOM     23  O   UNL     1       7.439   5.608  20.060  0.00  0.00    +0.000 OA
ATOM     24  N   UNL     1       7.791   5.627  17.744  0.00  0.00    +0.000 N 
ATOM     25  C   UNL     1       7.073   5.122  16.665  0.00  0.00    +0.000 A 
ATOM     26  C   UNL     1       7.336   5.229  15.318  0.00  0.00    +0.000 A 
ATOM     27  C   UNL     1       6.417   4.634  14.448  0.00  0.00    +0.000 A 
ATOM     28  C   UNL     1       5.278   3.962  14.944  0.00  0.00    +0.000 A 
ATOM     29  C   UNL     1       5.035   3.863  16.320  0.00  0.00    +0.000 A 
ATOM     30  C   UNL     1       5.953   4.449  17.160  0.00  0.00    +0.000 A 
ATOM     31  H   UNL     1       8.640   6.167  17.706  0.00  0.00    +0.000 HD
ENDBRANCH  20  21
ENDBRANCH   2  20
TORSDOF 5
ENDMDL
MODEL 8
REMARK VINA RESULT:      -8.1      1.453      1.829
REMARK  Name = 
REMARK  5 active torsions:
REMARK  status: ('A' for Active; 'I' for Inactive)
REMARK    1  A    between atoms: C_2  and  C_3
REMARK    2  A    between atoms: C_3  and  N_4
REMARK    3  A    between atoms: N_14  and  C_15
REMARK    4  A    between atoms: N_25  and  C_26
REMARK    5  A    between atoms: C_26  and  C_27
REMARK                            x       y       z     vdW  Elec       q    Type
REMARK                         _______ _______ _______ _____ _____    ______ ____
ROOT
ATOM      1  O   UNL     1       2.654   4.166  17.016  0.00  0.00    +0.000 OA
ATOM      2  C   UNL     1       3.788   4.526  17.320  0.00  0.00    +0.000 C 
ATOM      3  N   UNL     1       4.133   5.741  17.902  0.00  0.00    +0.000 N 
ATOM      4  H   UNL     1       5.121   5.986  17.875  0.00  0.00    +0.000 HD
ENDROOT
BRANCH   3   5
ATOM      5  C   UNL     1       3.239   6.766  18.273  0.00  0.00    +0.000 A 
ATOM      6  C   UNL     1       2.990   7.898  17.506  0.00  0.00    +0.000 A 
ATOM      7  C   UNL     1       2.195   8.939  18.008  0.00  0.00    +0.000 A 
ATOM      8  C   UNL     1       1.621   8.884  19.285  0.00  0.00    +0.000 A 
ATOM      9  C   UNL     1       1.824   7.716  20.028  0.00  0.00    +0.000 A 
ATOM     10  C   UNL     1       2.598   6.655  19.505  0.00  0.00    +0.000 A 
ATOM     11  C   UNL     1       1.261   7.537  21.400  0.00  0.00    +0.000 C 
ATOM     12  C   UNL     1       0.777   8.805  22.053  0.00  0.00    +0.000 C 
ATOM     13  C   UNL     1       0.466   9.987  21.166  0.00  0.00    +0.000 C 
ATOM     14  O   UNL     1      -0.073  10.964  21.698  0.00  0.00    +0.000 OA
ATOM     15  N   UNL     1       0.875   9.978  19.834  0.00  0.00    +0.000 N 
BRANCH  15  16
ATOM     16  C   UNL     1       0.835  11.280  19.147  0.00  0.00    +0.000 C 
BRANCH  16  17
ATOM     17  C   UNL     1      -0.388  11.665  18.358  0.00  0.00    +0.000 C 
ATOM     18  C   UNL     1      -0.735  13.119  18.113  0.00  0.00    +0.000 C 
ATOM     19  C   UNL     1      -1.663  12.255  18.911  0.00  0.00    +0.000 C 
ENDBRANCH  16  17
ENDBRANCH  15  16
ENDBRANCH   3   5
BRANCH   2  20
ATOM     20  C   UNL     1       4.992   3.648  16.994  0.00  0.00    +0.000 C 
BRANCH  20  21
ATOM     21  N   UNL     1       5.933   4.337  16.150  0.00  0.00    +0.000 N 
ATOM     22  C   UNL     1       6.845   5.305  16.599  0.00  0.00    +0.000 A 
ATOM     23  O   UNL     1       6.943   5.737  17.733  0.00  0.00    +0.000 OA
ATOM     24  N   UNL     1       7.602   5.693  15.485  0.00  0.00    +0.000 N 
ATOM     25  C   UNL     1       7.139   5.009  14.367  0.00  0.00    +0.000 A 
ATOM     26  C   UNL     1       7.563   5.089  13.060  0.00  0.00    +0.000 A 
ATOM     27  C   UNL     1       6.890   4.291  12.130  0.00  0.00    +0.000 A 
ATOM     28  C   UNL     1       5.827   3.451  12.529  0.00  0.00    +0.000 A 
ATOM     29  C   UNL     1       5.416   3.384  13.867  0.00  0.00    +0.000 A 
ATOM     30  C   UNL     1       6.094   4.172  14.768  0.00  0.00    +0.000 A 
ATOM     31  H   UNL     1       8.343   6.376  15.513  0.00  0.00    +0.000 HD
ENDBRANCH  20  21
ENDBRANCH   2  20
TORSDOF 5
ENDMDL
MODEL 9
REMARK VINA RESULT:      -8.1      2.759      4.195
REMARK  Name = 
REMARK  5 active torsions:
REMARK  status: ('A' for Active; 'I' for Inactive)
REMARK    1  A    between atoms: C_2  and  C_3
REMARK    2  A    between atoms: C_3  and  N_4
REMARK    3  A    between atoms: N_14  and  C_15
REMARK    4  A    between atoms: N_25  and  C_26
REMARK    5  A    between atoms: C_26  and  C_27
REMARK                            x       y       z     vdW  Elec       q    Type
REMARK                         _______ _______ _______ _____ _____    ______ ____
ROOT
ATOM      1  O   UNL     1       2.383   7.305  19.569  0.00  0.00    +0.000 OA
ATOM      2  C   UNL     1       2.745   7.571  18.427  0.00  0.00    +0.000 C 
ATOM      3  N   UNL     1       2.247   8.593  17.626  0.00  0.00    +0.000 N 
ATOM      4  H   UNL     1       2.474   8.538  16.636  0.00  0.00    +0.000 HD
ENDROOT
BRANCH   3   5
ATOM      5  C   UNL     1       1.254   9.525  17.994  0.00  0.00    +0.000 A 
ATOM      6  C   UNL     1       1.432  10.516  18.951  0.00  0.00    +0.000 A 
ATOM      7  C   UNL     1       0.354  11.314  19.362  0.00  0.00    +0.000 A 
ATOM      8  C   UNL     1      -0.932  11.153  18.830  0.00  0.00    +0.000 A 
ATOM      9  C   UNL     1      -1.093  10.195  17.823  0.00  0.00    +0.000 A 
ATOM     10  C   UNL     1       0.004   9.416  17.388  0.00  0.00    +0.000 A 
ATOM     11  C   UNL     1      -2.413   9.932  17.177  0.00  0.00    +0.000 C 
ATOM     12  C   UNL     1      -3.599  10.499  17.914  0.00  0.00    +0.000 C 
ATOM     13  C   UNL     1      -3.355  11.615  18.901  0.00  0.00    +0.000 C 
ATOM     14  O   UNL     1      -4.350  12.171  19.381  0.00  0.00    +0.000 OA
ATOM     15  N   UNL     1      -2.054  11.909  19.304  0.00  0.00    +0.000 N 
BRANCH  15  16
ATOM     16  C   UNL     1      -1.935  12.762  20.498  0.00  0.00    +0.000 C 
BRANCH  16  17
ATOM     17  C   UNL     1      -1.881  12.127  21.862  0.00  0.00    +0.000 C 
ATOM     18  C   UNL     1      -2.866  12.514  22.945  0.00  0.00    +0.000 C 
ATOM     19  C   UNL     1      -1.405  12.778  23.138  0.00  0.00    +0.000 C 
ENDBRANCH  16  17
ENDBRANCH  15  16
ENDBRANCH   3   5
BRANCH   2  20
ATOM     20  C   UNL     1       3.782   6.702  17.721  0.00  0.00    +0.000 C 
BRANCH  20  21
ATOM     21  N   UNL     1       3.979   5.454  18.409  0.00  0.00    +0.000 N 
ATOM     22  C   UNL     1       5.158   5.091  19.080  0.00  0.00    +0.000 A 
ATOM     23  O   UNL     1       6.186   5.739  19.137  0.00  0.00    +0.000 OA
ATOM     24  N   UNL     1       4.926   3.831  19.649  0.00  0.00    +0.000 N 
ATOM     25  C   UNL     1       3.647   3.410  19.301  0.00  0.00    +0.000 A 
ATOM     26  C   UNL     1       3.005   2.233  19.612  0.00  0.00    +0.000 A 
ATOM     27  C   UNL     1       1.714   2.067  19.101  0.00  0.00    +0.000 A 
ATOM     28  C   UNL     1       1.114   3.067  18.304  0.00  0.00    +0.000 A 
ATOM     29  C   UNL     1       1.788   4.259  18.005  0.00  0.00    +0.000 A 
ATOM     30  C   UNL     1       3.055   4.406  18.521  0.00  0.00    +0.000 A 
ATOM     31  H   UNL     1       5.602   3.324  20.198  0.00  0.00    +0.000 HD
ENDBRANCH  20  21
ENDBRANCH   2  20
TORSDOF 5
ENDMDL
