MODEL 1
REMARK VINA RESULT:      -9.7      0.000      0.000
REMARK  Name = 
REMARK  4 active torsions:
REMARK  status: ('A' for Active; 'I' for Inactive)
REMARK    1  A    between atoms: C_1  and  C_2
REMARK    2  A    between atoms: C_8  and  N_9
REMARK    3  A    between atoms: C_13  and  N_14
REMARK    4  A    between atoms: C_15  and  C_17
REMARK                            x       y       z     vdW  Elec       q    Type
REMARK                         _______ _______ _______ _____ _____    ______ ____
ROOT
ATOM      1  N   UNL     1       1.897   6.440  20.433  0.00  0.00    +0.000 N 
ATOM      2  C   UNL     1       1.769   7.684  19.850  0.00  0.00    +0.000 C 
ATOM      3  O   UNL     1       2.166   7.969  18.731  0.00  0.00    +0.000 OA
ATOM      4  H   UNL     1       1.807   6.418  21.445  0.00  0.00    +0.000 HD
ENDROOT
BRANCH   2   5
ATOM      5  C   UNL     1       1.085   8.733  20.734  0.00  0.00    +0.000 A 
ATOM      6  N   UNL     1       1.315   8.641  22.014  0.00  0.00    +0.000 NA
ATOM      7  N   UNL     1       0.716   9.551  22.838  0.00  0.00    +0.000 N 
ATOM      8  C   UNL     1      -0.130  10.564  22.450  0.00  0.00    +0.000 A 
ATOM      9  O   UNL     1      -0.631  11.343  23.263  0.00  0.00    +0.000 OA
ATOM     10  C   UNL     1      -0.404  10.665  21.005  0.00  0.00    +0.000 A 
ATOM     11  C   UNL     1      -1.258  11.667  20.524  0.00  0.00    +0.000 A 
ATOM     12  C   UNL     1      -1.505  11.770  19.155  0.00  0.00    +0.000 A 
ATOM     13  C   UNL     1      -0.907  10.867  18.280  0.00  0.00    +0.000 A 
ATOM     14  C   UNL     1      -0.071   9.856  18.765  0.00  0.00    +0.000 A 
ATOM     15  C   UNL     1       0.201   9.760  20.136  0.00  0.00    +0.000 A 
ATOM     16  H   UNL     1       0.922   9.482  23.830  0.00  0.00    +0.000 HD
ENDBRANCH   2   5
BRANCH   1  21
ATOM     17  N   UNL     1       4.701   4.465  18.842  0.00  0.00    +0.000 N 
ATOM     18  C   UNL     1       4.549   3.179  19.539  0.00  0.00    +0.000 C 
ATOM     19  C   UNL     1       3.063   2.871  19.737  0.00  0.00    +0.000 C 
ATOM     20  C   UNL     1       2.338   4.014  20.451  0.00  0.00    +0.000 C 
ATOM     21  C   UNL     1       2.550   5.339  19.725  0.00  0.00    +0.000 C 
ATOM     22  C   UNL     1       4.048   5.602  19.497  0.00  0.00    +0.000 C 
BRANCH  17  30
ATOM     23  C   UNL     1       7.576   5.530  18.740  0.00  0.00    +0.000 C 
ATOM     24  C   UNL     1       6.746   5.095  17.559  0.00  0.00    +0.000 A 
ATOM     25  C   UNL     1       7.373   5.205  16.299  0.00  0.00    +0.000 A 
ATOM     26  C   UNL     1       6.728   4.795  15.145  0.00  0.00    +0.000 A 
ATOM     27  F   UNL     1       7.354   4.900  13.965  0.00  0.00    +0.000 F 
ATOM     28  C   UNL     1       5.453   4.276  15.202  0.00  0.00    +0.000 A 
ATOM     29  C   UNL     1       4.808   4.182  16.440  0.00  0.00    +0.000 A 
ATOM     30  C   UNL     1       5.417   4.584  17.654  0.00  0.00    +0.000 A 
ENDBRANCH  17  30
ENDBRANCH   1  21
TORSDOF 3
ENDMDL
MODEL 2
REMARK VINA RESULT:      -9.2      0.732      1.514
REMARK  Name = 
REMARK  4 active torsions:
REMARK  status: ('A' for Active; 'I' for Inactive)
REMARK    1  A    between atoms: C_1  and  C_2
REMARK    2  A    between atoms: C_8  and  N_9
REMARK    3  A    between atoms: C_13  and  N_14
REMARK    4  A    between atoms: C_15  and  C_17
REMARK                            x       y       z     vdW  Elec       q    Type
REMARK                         _______ _______ _______ _____ _____    ______ ____
ROOT
ATOM      1  N   UNL     1       1.325   6.471  20.708  0.00  0.00    +0.000 N 
ATOM      2  C   UNL     1       1.519   7.743  20.210  0.00  0.00    +0.000 C 
ATOM      3  O   UNL     1       2.204   8.007  19.234  0.00  0.00    +0.000 OA
ATOM      4  H   UNL     1       0.999   6.420  21.669  0.00  0.00    +0.000 HD
ENDROOT
BRANCH   2   5
ATOM      5  C   UNL     1       0.808   8.849  20.997  0.00  0.00    +0.000 A 
ATOM      6  N   UNL     1       0.943   8.806  22.294  0.00  0.00    +0.000 NA
ATOM      7  N   UNL     1       0.316   9.769  23.033  0.00  0.00    +0.000 N 
ATOM      8  C   UNL     1      -0.467  10.789  22.542  0.00  0.00    +0.000 A 
ATOM      9  O   UNL     1      -0.999  11.616  23.283  0.00  0.00    +0.000 OA
ATOM     10  C   UNL     1      -0.633  10.834  21.078  0.00  0.00    +0.000 A 
ATOM     11  C   UNL     1      -1.417  11.839  20.494  0.00  0.00    +0.000 A 
ATOM     12  C   UNL     1      -1.561  11.889  19.108  0.00  0.00    +0.000 A 
ATOM     13  C   UNL     1      -0.931  10.932  18.317  0.00  0.00    +0.000 A 
ATOM     14  C   UNL     1      -0.166   9.919  18.904  0.00  0.00    +0.000 A 
ATOM     15  C   UNL     1       0.004   9.875  20.294  0.00  0.00    +0.000 A 
ATOM     16  H   UNL     1       0.447   9.737  24.040  0.00  0.00    +0.000 HD
ENDBRANCH   2   5
BRANCH   1  21
ATOM     17  N   UNL     1       4.109   4.271  19.403  0.00  0.00    +0.000 N 
ATOM     18  C   UNL     1       3.811   3.016  20.110  0.00  0.00    +0.000 C 
ATOM     19  C   UNL     1       2.296   2.815  20.186  0.00  0.00    +0.000 C 
ATOM     20  C   UNL     1       1.593   4.022  20.812  0.00  0.00    +0.000 C 
ATOM     21  C   UNL     1       1.957   5.311  20.080  0.00  0.00    +0.000 C 
ATOM     22  C   UNL     1       3.484   5.466  19.977  0.00  0.00    +0.000 C 
BRANCH  17  30
ATOM     23  C   UNL     1       3.108   3.553  16.593  0.00  0.00    +0.000 C 
ATOM     24  C   UNL     1       4.512   3.963  16.960  0.00  0.00    +0.000 A 
ATOM     25  C   UNL     1       5.434   4.007  15.891  0.00  0.00    +0.000 A 
ATOM     26  C   UNL     1       6.740   4.412  16.095  0.00  0.00    +0.000 A 
ATOM     27  F   UNL     1       7.588   4.455  15.059  0.00  0.00    +0.000 F 
ATOM     28  C   UNL     1       7.174   4.776  17.351  0.00  0.00    +0.000 A 
ATOM     29  C   UNL     1       6.279   4.717  18.426  0.00  0.00    +0.000 A 
ATOM     30  C   UNL     1       4.930   4.311  18.279  0.00  0.00    +0.000 A 
ENDBRANCH  17  30
ENDBRANCH   1  21
TORSDOF 3
ENDMDL
MODEL 3
REMARK VINA RESULT:      -9.0      1.027      1.087
REMARK  Name = 
REMARK  4 active torsions:
REMARK  status: ('A' for Active; 'I' for Inactive)
REMARK    1  A    between atoms: C_1  and  C_2
REMARK    2  A    between atoms: C_8  and  N_9
REMARK    3  A    between atoms: C_13  and  N_14
REMARK    4  A    between atoms: C_15  and  C_17
REMARK                            x       y       z     vdW  Elec       q    Type
REMARK                         _______ _______ _______ _____ _____    ______ ____
ROOT
ATOM      1  N   UNL     1       1.869   6.168  19.328  0.00  0.00    +0.000 N 
ATOM      2  C   UNL     1       2.046   7.519  19.108  0.00  0.00    +0.000 C 
ATOM      3  O   UNL     1       2.632   7.994  18.149  0.00  0.00    +0.000 OA
ATOM      4  H   UNL     1       1.643   5.903  20.283  0.00  0.00    +0.000 HD
ENDROOT
BRANCH   2   5
ATOM      5  C   UNL     1       1.451   8.421  20.195  0.00  0.00    +0.000 A 
ATOM      6  N   UNL     1       1.811   8.158  21.420  0.00  0.00    +0.000 NA
ATOM      7  N   UNL     1       1.296   8.933  22.419  0.00  0.00    +0.000 N 
ATOM      8  C   UNL     1       0.409   9.974  22.263  0.00  0.00    +0.000 A 
ATOM      9  O   UNL     1      -0.010  10.623  23.223  0.00  0.00    +0.000 OA
ATOM     10  C   UNL     1      -0.012  10.269  20.882  0.00  0.00    +0.000 A 
ATOM     11  C   UNL     1      -0.916  11.312  20.634  0.00  0.00    +0.000 A 
ATOM     12  C   UNL     1      -1.302  11.598  19.325  0.00  0.00    +0.000 A 
ATOM     13  C   UNL     1      -0.792  10.837  18.276  0.00  0.00    +0.000 A 
ATOM     14  C   UNL     1       0.094   9.785  18.529  0.00  0.00    +0.000 A 
ATOM     15  C   UNL     1       0.506   9.505  19.838  0.00  0.00    +0.000 A 
ATOM     16  H   UNL     1       1.602   8.731  23.366  0.00  0.00    +0.000 HD
ENDBRANCH   2   5
BRANCH   1  21
ATOM     17  N   UNL     1       4.454   4.094  17.508  0.00  0.00    +0.000 N 
ATOM     18  C   UNL     1       3.944   2.741  17.772  0.00  0.00    +0.000 C 
ATOM     19  C   UNL     1       2.415   2.747  17.722  0.00  0.00    +0.000 C 
ATOM     20  C   UNL     1       1.820   3.793  18.668  0.00  0.00    +0.000 C 
ATOM     21  C   UNL     1       2.401   5.176  18.393  0.00  0.00    +0.000 C 
ATOM     22  C   UNL     1       3.939   5.134  18.403  0.00  0.00    +0.000 C 
BRANCH  17  30
ATOM     23  C   UNL     1       7.387   4.822  18.043  0.00  0.00    +0.000 C 
ATOM     24  C   UNL     1       6.727   4.722  16.691  0.00  0.00    +0.000 A 
ATOM     25  C   UNL     1       7.559   5.000  15.584  0.00  0.00    +0.000 A 
ATOM     26  C   UNL     1       7.080   4.897  14.290  0.00  0.00    +0.000 A 
ATOM     27  F   UNL     1       7.897   5.155  13.261  0.00  0.00    +0.000 F 
ATOM     28  C   UNL     1       5.774   4.527  14.054  0.00  0.00    +0.000 A 
ATOM     29  C   UNL     1       4.929   4.270  15.140  0.00  0.00    +0.000 A 
ATOM     30  C   UNL     1       5.363   4.357  16.486  0.00  0.00    +0.000 A 
ENDBRANCH  17  30
ENDBRANCH   1  21
TORSDOF 3
ENDMDL
MODEL 4
REMARK VINA RESULT:      -8.8      1.665      2.177
REMARK  Name = 
REMARK  4 active torsions:
REMARK  status: ('A' for Active; 'I' for Inactive)
REMARK    1  A    between atoms: C_1  and  C_2
REMARK    2  A    between atoms: C_8  and  N_9
REMARK    3  A    between atoms: C_13  and  N_14
REMARK    4  A    between atoms: C_15  and  C_17
REMARK                            x       y       z     vdW  Elec       q    Type
REMARK                         _______ _______ _______ _____ _____    ______ ____
ROOT
ATOM      1  N   UNL     1       2.016   7.769  19.565  0.00  0.00    +0.000 N 
ATOM      2  C   UNL     1       1.702   8.763  18.661  0.00  0.00    +0.000 C 
ATOM      3  O   UNL     1       1.790   8.650  17.449  0.00  0.00    +0.000 OA
ATOM      4  H   UNL     1       2.188   8.079  20.518  0.00  0.00    +0.000 HD
ENDROOT
BRANCH   2   5
ATOM      5  C   UNL     1       1.231  10.075  19.299  0.00  0.00    +0.000 A 
ATOM      6  N   UNL     1       1.514  11.165  18.643  0.00  0.00    +0.000 NA
ATOM      7  N   UNL     1       1.120  12.357  19.183  0.00  0.00    +0.000 N 
ATOM      8  C   UNL     1       0.455  12.528  20.375  0.00  0.00    +0.000 A 
ATOM      9  O   UNL     1       0.139  13.643  20.791  0.00  0.00    +0.000 OA
ATOM     10  C   UNL     1       0.143  11.300  21.128  0.00  0.00    +0.000 A 
ATOM     11  C   UNL     1      -0.530  11.383  22.354  0.00  0.00    +0.000 A 
ATOM     12  C   UNL     1      -0.837  10.219  23.058  0.00  0.00    +0.000 A 
ATOM     13  C   UNL     1      -0.462   8.983  22.538  0.00  0.00    +0.000 A 
ATOM     14  C   UNL     1       0.228   8.905  21.324  0.00  0.00    +0.000 A 
ATOM     15  C   UNL     1       0.520  10.067  20.599  0.00  0.00    +0.000 A 
ATOM     16  H   UNL     1       1.328  13.197  18.650  0.00  0.00    +0.000 HD
ENDBRANCH   2   5
BRANCH   1  21
ATOM     17  N   UNL     1       4.510   5.123  18.528  0.00  0.00    +0.000 N 
ATOM     18  C   UNL     1       4.141   4.035  19.446  0.00  0.00    +0.000 C 
ATOM     19  C   UNL     1       2.620   3.999  19.618  0.00  0.00    +0.000 C 
ATOM     20  C   UNL     1       2.068   5.355  20.063  0.00  0.00    +0.000 C 
ATOM     21  C   UNL     1       2.504   6.466  19.113  0.00  0.00    +0.000 C 
ATOM     22  C   UNL     1       4.030   6.451  18.921  0.00  0.00    +0.000 C 
BRANCH  17  30
ATOM     23  C   UNL     1       7.569   5.361  18.482  0.00  0.00    +0.000 C 
ATOM     24  C   UNL     1       6.685   5.023  17.309  0.00  0.00    +0.000 A 
ATOM     25  C   UNL     1       7.353   4.806  16.084  0.00  0.00    +0.000 A 
ATOM     26  C   UNL     1       6.654   4.444  14.946  0.00  0.00    +0.000 A 
ATOM     27  F   UNL     1       7.317   4.233  13.802  0.00  0.00    +0.000 F 
ATOM     28  C   UNL     1       5.284   4.296  14.983  0.00  0.00    +0.000 A 
ATOM     29  C   UNL     1       4.603   4.530  16.183  0.00  0.00    +0.000 A 
ATOM     30  C   UNL     1       5.265   4.900  17.380  0.00  0.00    +0.000 A 
ENDBRANCH  17  30
ENDBRANCH   1  21
TORSDOF 3
ENDMDL
MODEL 5
REMARK VINA RESULT:      -8.6      0.912      1.016
REMARK  Name = 
REMARK  4 active torsions:
REMARK  status: ('A' for Active; 'I' for Inactive)
REMARK    1  A    between atoms: C_1  and  C_2
REMARK    2  A    between atoms: C_8  and  N_9
REMARK    3  A    between atoms: C_13  and  N_14
REMARK    4  A    between atoms: C_15  and  C_17
REMARK                            x       y       z     vdW  Elec       q    Type
REMARK                         _______ _______ _______ _____ _____    ______ ____
ROOT
ATOM      1  N   UNL     1       1.808   7.162  19.813  0.00  0.00    +0.000 N 
ATOM      2  C   UNL     1       1.596   8.282  19.035  0.00  0.00    +0.000 C 
ATOM      3  O   UNL     1       1.920   8.382  17.862  0.00  0.00    +0.000 OA
ATOM      4  H   UNL     1       1.773   7.311  20.818  0.00  0.00    +0.000 HD
ENDROOT
BRANCH   2   5
ATOM      5  C   UNL     1       0.915   9.444  19.767  0.00  0.00    +0.000 A 
ATOM      6  N   UNL     1       1.389   9.733  20.947  0.00  0.00    +0.000 NA
ATOM      7  N   UNL     1       0.804  10.757  21.637  0.00  0.00    +0.000 N 
ATOM      8  C   UNL     1      -0.261  11.518  21.212  0.00  0.00    +0.000 A 
ATOM      9  O   UNL     1      -0.731  12.424  21.902  0.00  0.00    +0.000 OA
ATOM     10  C   UNL     1      -0.809  11.187  19.885  0.00  0.00    +0.000 A 
ATOM     11  C   UNL     1      -1.897  11.911  19.376  0.00  0.00    +0.000 A 
ATOM     12  C   UNL     1      -2.404  11.605  18.114  0.00  0.00    +0.000 A 
ATOM     13  C   UNL     1      -1.831  10.575  17.374  0.00  0.00    +0.000 A 
ATOM     14  C   UNL     1      -0.758   9.841  17.892  0.00  0.00    +0.000 A 
ATOM     15  C   UNL     1      -0.227  10.156  19.149  0.00  0.00    +0.000 A 
ATOM     16  H   UNL     1       1.197  10.987  22.545  0.00  0.00    +0.000 HD
ENDBRANCH   2   5
BRANCH   1  21
ATOM     17  N   UNL     1       4.635   4.986  18.560  0.00  0.00    +0.000 N 
ATOM     18  C   UNL     1       4.449   3.796  19.405  0.00  0.00    +0.000 C 
ATOM     19  C   UNL     1       2.955   3.526  19.595  0.00  0.00    +0.000 C 
ATOM     20  C   UNL     1       2.222   4.754  20.141  0.00  0.00    +0.000 C 
ATOM     21  C   UNL     1       2.469   5.978  19.265  0.00  0.00    +0.000 C 
ATOM     22  C   UNL     1       3.976   6.200  19.051  0.00  0.00    +0.000 C 
BRANCH  17  30
ATOM     23  C   UNL     1       7.566   5.886  18.444  0.00  0.00    +0.000 C 
ATOM     24  C   UNL     1       6.742   5.384  17.285  0.00  0.00    +0.000 A 
ATOM     25  C   UNL     1       7.406   5.339  16.040  0.00  0.00    +0.000 A 
ATOM     26  C   UNL     1       6.769   4.854  14.911  0.00  0.00    +0.000 A 
ATOM     27  F   UNL     1       7.429   4.813  13.746  0.00  0.00    +0.000 F 
ATOM     28  C   UNL     1       5.466   4.410  14.978  0.00  0.00    +0.000 A 
ATOM     29  C   UNL     1       4.786   4.468  16.200  0.00  0.00    +0.000 A 
ATOM     30  C   UNL     1       5.386   4.953  17.389  0.00  0.00    +0.000 A 
ENDBRANCH  17  30
ENDBRANCH   1  21
TORSDOF 3
ENDMDL
MODEL 6
REMARK VINA RESULT:      -8.4      3.933      9.334
REMARK  Name = 
REMARK  4 active torsions:
REMARK  status: ('A' for Active; 'I' for Inactive)
REMARK    1  A    between atoms: C_1  and  C_2
REMARK    2  A    between atoms: C_8  and  N_9
REMARK    3  A    between atoms: C_13  and  N_14
REMARK    4  A    between atoms: C_15  and  C_17
REMARK                            x       y       z     vdW  Elec       q    Type
REMARK                         _______ _______ _______ _____ _____    ______ ____
ROOT
ATOM      1  N   UNL     1       1.146   9.047  19.097  0.00  0.00    +0.000 N 
ATOM      2  C   UNL     1       2.031   8.488  18.198  0.00  0.00    +0.000 C 
ATOM      3  O   UNL     1       2.296   8.958  17.103  0.00  0.00    +0.000 OA
ATOM      4  H   UNL     1       0.794   8.421  19.815  0.00  0.00    +0.000 HD
ENDROOT
BRANCH   2   5
ATOM      5  C   UNL     1       2.674   7.180  18.671  0.00  0.00    +0.000 A 
ATOM      6  N   UNL     1       2.247   6.710  19.810  0.00  0.00    +0.000 NA
ATOM      7  N   UNL     1       2.802   5.550  20.271  0.00  0.00    +0.000 N 
ATOM      8  C   UNL     1       3.792   4.821  19.653  0.00  0.00    +0.000 A 
ATOM      9  O   UNL     1       4.239   3.783  20.142  0.00  0.00    +0.000 OA
ATOM     10  C   UNL     1       4.288   5.354  18.372  0.00  0.00    +0.000 A 
ATOM     11  C   UNL     1       5.298   4.676  17.676  0.00  0.00    +0.000 A 
ATOM     12  C   UNL     1       5.756   5.174  16.457  0.00  0.00    +0.000 A 
ATOM     13  C   UNL     1       5.211   6.349  15.946  0.00  0.00    +0.000 A 
ATOM     14  C   UNL     1       4.217   7.034  16.652  0.00  0.00    +0.000 A 
ATOM     15  C   UNL     1       3.734   6.529  17.866  0.00  0.00    +0.000 A 
ATOM     16  H   UNL     1       2.444   5.184  21.148  0.00  0.00    +0.000 HD
ENDBRANCH   2   5
BRANCH   1  21
ATOM     17  N   UNL     1      -1.592  11.651  19.234  0.00  0.00    +0.000 N 
ATOM     18  C   UNL     1      -0.803  12.851  19.549  0.00  0.00    +0.000 C 
ATOM     19  C   UNL     1       0.530  12.804  18.799  0.00  0.00    +0.000 C 
ATOM     20  C   UNL     1       1.295  11.509  19.081  0.00  0.00    +0.000 C 
ATOM     21  C   UNL     1       0.433  10.286  18.782  0.00  0.00    +0.000 C 
ATOM     22  C   UNL     1      -0.918  10.379  19.510  0.00  0.00    +0.000 C 
BRANCH  17  30
ATOM     23  C   UNL     1      -2.308  10.690  16.409  0.00  0.00    +0.000 C 
ATOM     24  C   UNL     1      -3.253  11.315  17.403  0.00  0.00    +0.000 A 
ATOM     25  C   UNL     1      -4.587  11.465  16.964  0.00  0.00    +0.000 A 
ATOM     26  C   UNL     1      -5.558  11.984  17.802  0.00  0.00    +0.000 A 
ATOM     27  F   UNL     1      -6.817  12.103  17.362  0.00  0.00    +0.000 F 
ATOM     28  C   UNL     1      -5.240  12.373  19.085  0.00  0.00    +0.000 A 
ATOM     29  C   UNL     1      -3.919  12.253  19.529  0.00  0.00    +0.000 A 
ATOM     30  C   UNL     1      -2.883  11.727  18.718  0.00  0.00    +0.000 A 
ENDBRANCH  17  30
ENDBRANCH   1  21
TORSDOF 3
ENDMDL
MODEL 7
REMARK VINA RESULT:      -8.3      3.298      8.516
REMARK  Name = 
REMARK  4 active torsions:
REMARK  status: ('A' for Active; 'I' for Inactive)
REMARK    1  A    between atoms: C_1  and  C_2
REMARK    2  A    between atoms: C_8  and  N_9
REMARK    3  A    between atoms: C_13  and  N_14
REMARK    4  A    between atoms: C_15  and  C_17
REMARK                            x       y       z     vdW  Elec       q    Type
REMARK                         _______ _______ _______ _____ _____    ______ ____
ROOT
ATOM      1  N   UNL     1       1.714   7.438  20.491  0.00  0.00    +0.000 N 
ATOM      2  C   UNL     1       2.319   7.344  19.255  0.00  0.00    +0.000 C 
ATOM      3  O   UNL     1       2.560   8.294  18.528  0.00  0.00    +0.000 OA
ATOM      4  H   UNL     1       1.305   6.579  20.848  0.00  0.00    +0.000 HD
ENDROOT
BRANCH   2   5
ATOM      5  C   UNL     1       2.668   5.914  18.826  0.00  0.00    +0.000 A 
ATOM      6  N   UNL     1       2.071   4.957  19.480  0.00  0.00    +0.000 NA
ATOM      7  N   UNL     1       2.362   3.668  19.135  0.00  0.00    +0.000 N 
ATOM      8  C   UNL     1       3.247   3.269  18.159  0.00  0.00    +0.000 A 
ATOM      9  O   UNL     1       3.453   2.080  17.914  0.00  0.00    +0.000 OA
ATOM     10  C   UNL     1       3.935   4.346  17.425  0.00  0.00    +0.000 A 
ATOM     11  C   UNL     1       4.855   4.028  16.416  0.00  0.00    +0.000 A 
ATOM     12  C   UNL     1       5.494   5.048  15.713  0.00  0.00    +0.000 A 
ATOM     13  C   UNL     1       5.218   6.376  16.027  0.00  0.00    +0.000 A 
ATOM     14  C   UNL     1       4.315   6.690  17.048  0.00  0.00    +0.000 A 
ATOM     15  C   UNL     1       3.651   5.672  17.744  0.00  0.00    +0.000 A 
ATOM     16  H   UNL     1       1.873   2.933  19.638  0.00  0.00    +0.000 HD
ENDBRANCH   2   5
BRANCH   1  21
ATOM     17  N   UNL     1       0.022  10.817  20.590  0.00  0.00    +0.000 N 
ATOM     18  C   UNL     1      -0.762  10.687  21.827  0.00  0.00    +0.000 C 
ATOM     19  C   UNL     1       0.046   9.915  22.872  0.00  0.00    +0.000 C 
ATOM     20  C   UNL     1       0.524   8.564  22.335  0.00  0.00    +0.000 C 
ATOM     21  C   UNL     1       1.299   8.733  21.031  0.00  0.00    +0.000 C 
ATOM     22  C   UNL     1       0.484   9.551  20.015  0.00  0.00    +0.000 C 
BRANCH  17  30
ATOM     23  C   UNL     1      -1.803  12.106  18.487  0.00  0.00    +0.000 C 
ATOM     24  C   UNL     1      -0.513  12.678  19.016  0.00  0.00    +0.000 A 
ATOM     25  C   UNL     1      -0.128  13.923  18.472  0.00  0.00    +0.000 A 
ATOM     26  C   UNL     1       1.013  14.571  18.910  0.00  0.00    +0.000 A 
ATOM     27  F   UNL     1       1.344  15.757  18.383  0.00  0.00    +0.000 F 
ATOM     28  C   UNL     1       1.806  14.008  19.887  0.00  0.00    +0.000 A 
ATOM     29  C   UNL     1       1.452  12.764  20.421  0.00  0.00    +0.000 A 
ATOM     30  C   UNL     1       0.296  12.055  20.013  0.00  0.00    +0.000 A 
ENDBRANCH  17  30
ENDBRANCH   1  21
TORSDOF 3
ENDMDL
MODEL 8
REMARK VINA RESULT:      -8.2      3.873      9.379
REMARK  Name = 
REMARK  4 active torsions:
REMARK  status: ('A' for Active; 'I' for Inactive)
REMARK    1  A    between atoms: C_1  and  C_2
REMARK    2  A    between atoms: C_8  and  N_9
REMARK    3  A    between atoms: C_13  and  N_14
REMARK    4  A    between atoms: C_15  and  C_17
REMARK                            x       y       z     vdW  Elec       q    Type
REMARK                         _______ _______ _______ _____ _____    ______ ____
ROOT
ATOM      1  N   UNL     1       1.238   9.056  19.158  0.00  0.00    +0.000 N 
ATOM      2  C   UNL     1       2.083   8.479  18.232  0.00  0.00    +0.000 C 
ATOM      3  O   UNL     1       2.329   8.947  17.132  0.00  0.00    +0.000 OA
ATOM      4  H   UNL     1       0.890   8.436  19.883  0.00  0.00    +0.000 HD
ENDROOT
BRANCH   2   5
ATOM      5  C   UNL     1       2.705   7.152  18.682  0.00  0.00    +0.000 A 
ATOM      6  N   UNL     1       2.275   6.673  19.816  0.00  0.00    +0.000 NA
ATOM      7  N   UNL     1       2.812   5.497  20.257  0.00  0.00    +0.000 N 
ATOM      8  C   UNL     1       3.786   4.760  19.622  0.00  0.00    +0.000 A 
ATOM      9  O   UNL     1       4.217   3.707  20.094  0.00  0.00    +0.000 OA
ATOM     10  C   UNL     1       4.284   5.303  18.346  0.00  0.00    +0.000 A 
ATOM     11  C   UNL     1       5.279   4.617  17.635  0.00  0.00    +0.000 A 
ATOM     12  C   UNL     1       5.739   5.125  16.421  0.00  0.00    +0.000 A 
ATOM     13  C   UNL     1       5.211   6.317  15.931  0.00  0.00    +0.000 A 
ATOM     14  C   UNL     1       4.234   7.009  16.653  0.00  0.00    +0.000 A 
ATOM     15  C   UNL     1       3.749   6.495  17.862  0.00  0.00    +0.000 A 
ATOM     16  H   UNL     1       2.452   5.124  21.131  0.00  0.00    +0.000 HD
ENDBRANCH   2   5
BRANCH   1  21
ATOM     17  N   UNL     1      -1.438  11.720  19.366  0.00  0.00    +0.000 N 
ATOM     18  C   UNL     1      -0.617  12.898  19.682  0.00  0.00    +0.000 C 
ATOM     19  C   UNL     1       0.703  12.829  18.909  0.00  0.00    +0.000 C 
ATOM     20  C   UNL     1       1.442  11.514  19.165  0.00  0.00    +0.000 C 
ATOM     21  C   UNL     1       0.548  10.314  18.867  0.00  0.00    +0.000 C 
ATOM     22  C   UNL     1      -0.789  10.430  19.618  0.00  0.00    +0.000 C 
BRANCH  17  30
ATOM     23  C   UNL     1      -3.768  12.792  21.050  0.00  0.00    +0.000 C 
ATOM     24  C   UNL     1      -3.850  12.301  19.627  0.00  0.00    +0.000 A 
ATOM     25  C   UNL     1      -5.133  12.346  19.039  0.00  0.00    +0.000 A 
ATOM     26  C   UNL     1      -5.328  11.964  17.724  0.00  0.00    +0.000 A 
ATOM     27  F   UNL     1      -6.555  12.029  17.191  0.00  0.00    +0.000 F 
ATOM     28  C   UNL     1      -4.269  11.525  16.958  0.00  0.00    +0.000 A 
ATOM     29  C   UNL     1      -2.994  11.453  17.531  0.00  0.00    +0.000 A 
ATOM     30  C   UNL     1      -2.734  11.831  18.872  0.00  0.00    +0.000 A 
ENDBRANCH  17  30
ENDBRANCH   1  21
TORSDOF 3
ENDMDL
MODEL 9
REMARK VINA RESULT:      -8.2      1.758      2.615
REMARK  Name = 
REMARK  4 active torsions:
REMARK  status: ('A' for Active; 'I' for Inactive)
REMARK    1  A    between atoms: C_1  and  C_2
REMARK    2  A    between atoms: C_8  and  N_9
REMARK    3  A    between atoms: C_13  and  N_14
REMARK    4  A    between atoms: C_15  and  C_17
REMARK                            x       y       z     vdW  Elec       q    Type
REMARK                         _______ _______ _______ _____ _____    ______ ____
ROOT
ATOM      1  N   UNL     1       1.835   7.956  19.887  0.00  0.00    +0.000 N 
ATOM      2  C   UNL     1       1.487   8.879  18.923  0.00  0.00    +0.000 C 
ATOM      3  O   UNL     1       1.527   8.673  17.720  0.00  0.00    +0.000 OA
ATOM      4  H   UNL     1       2.045   8.337  20.805  0.00  0.00    +0.000 HD
ENDROOT
BRANCH   2   5
ATOM      5  C   UNL     1       1.046  10.239  19.475  0.00  0.00    +0.000 A 
ATOM      6  N   UNL     1       1.361  11.280  18.755  0.00  0.00    +0.000 NA
ATOM      7  N   UNL     1       0.994  12.512  19.218  0.00  0.00    +0.000 N 
ATOM      8  C   UNL     1       0.326  12.772  20.393  0.00  0.00    +0.000 A 
ATOM      9  O   UNL     1       0.036  13.919  20.736  0.00  0.00    +0.000 OA
ATOM     10  C   UNL     1      -0.021  11.601  21.217  0.00  0.00    +0.000 A 
ATOM     11  C   UNL     1      -0.700  11.776  22.431  0.00  0.00    +0.000 A 
ATOM     12  C   UNL     1      -1.040  10.666  23.202  0.00  0.00    +0.000 A 
ATOM     13  C   UNL     1      -0.693   9.391  22.762  0.00  0.00    +0.000 A 
ATOM     14  C   UNL     1       0.002   9.221  21.560  0.00  0.00    +0.000 A 
ATOM     15  C   UNL     1       0.327  10.329  20.767  0.00  0.00    +0.000 A 
ATOM     16  H   UNL     1       1.226  13.312  18.636  0.00  0.00    +0.000 HD
ENDBRANCH   2   5
BRANCH   1  21
ATOM     17  N   UNL     1       4.273   5.231  18.928  0.00  0.00    +0.000 N 
ATOM     18  C   UNL     1       3.965   4.224  19.955  0.00  0.00    +0.000 C 
ATOM     19  C   UNL     1       2.459   4.204  20.222  0.00  0.00    +0.000 C 
ATOM     20  C   UNL     1       1.928   5.593  20.584  0.00  0.00    +0.000 C 
ATOM     21  C   UNL     1       2.300   6.619  19.518  0.00  0.00    +0.000 C 
ATOM     22  C   UNL     1       3.812   6.587  19.235  0.00  0.00    +0.000 C 
BRANCH  17  30
ATOM     23  C   UNL     1       3.063   3.466  16.730  0.00  0.00    +0.000 C 
ATOM     24  C   UNL     1       4.442   4.075  16.723  0.00  0.00    +0.000 A 
ATOM     25  C   UNL     1       5.231   3.785  15.589  0.00  0.00    +0.000 A 
ATOM     26  C   UNL     1       6.498   4.324  15.447  0.00  0.00    +0.000 A 
ATOM     27  F   UNL     1       7.218   4.041  14.354  0.00  0.00    +0.000 F 
ATOM     28  C   UNL     1       7.020   5.152  16.417  0.00  0.00    +0.000 A 
ATOM     29  C   UNL     1       6.260   5.431  17.559  0.00  0.00    +0.000 A 
ATOM     30  C   UNL     1       4.957   4.911  17.759  0.00  0.00    +0.000 A 
ENDBRANCH  17  30
ENDBRANCH   1  21
TORSDOF 3
ENDMDL
