MODEL 1
REMARK VINA RESULT:      -9.0      0.000      0.000
REMARK  Name = 
REMARK  7 active torsions:
REMARK  status: ('A' for Active; 'I' for Inactive)
REMARK    1  A    between atoms: C_1  and  C_2
REMARK    2  A    between atoms: C_4  and  C_5
REMARK    3  A    between atoms: C_8  and  C_9
REMARK    4  A    between atoms: C_10  and  C_11
REMARK    5  A    between atoms: N_13  and  C_14
REMARK    6  A    between atoms: N_17  and  C_18
REMARK    7  A    between atoms: C_18  and  C_19
REMARK                            x       y       z     vdW  Elec       q    Type
REMARK                         _______ _______ _______ _____ _____    ______ ____
ROOT
ATOM      1  C   UNL     1       1.074   9.682  18.912  0.00  0.00    +0.000 C 
ATOM      2  O   UNL     1       1.940  10.143  18.174  0.00  0.00    +0.000 OA
ATOM      3  N   UNL     1       1.181   8.441  19.513  0.00  0.00    +0.000 N 
ATOM      4  H   UNL     1       0.439   8.180  20.160  0.00  0.00    +0.000 HD
ENDROOT
BRANCH   1  14
ATOM      5  C   UNL     1      -2.955   9.828  15.218  0.00  0.00    +0.000 C 
ATOM      6  C   UNL     1      -2.667  10.330  16.610  0.00  0.00    +0.000 A 
ATOM      7  C   UNL     1      -3.733  11.132  17.286  0.00  0.00    +0.000 A 
ATOM      8  C   UNL     1      -3.450  11.588  18.518  0.00  0.00    +0.000 A 
ATOM      9  C   UNL     1      -4.418  12.398  19.324  0.00  0.00    +0.000 C 
ATOM     10  N   UNL     1      -2.200  11.296  19.083  0.00  0.00    +0.000 N 
ATOM     11  N   UNL     1      -1.727  11.680  20.291  0.00  0.00    +0.000 NA
ATOM     12  C   UNL     1      -0.499  11.153  20.369  0.00  0.00    +0.000 A 
ATOM     13  C   UNL     1       0.313  11.407  21.589  0.00  0.00    +0.000 C 
ATOM     14  C   UNL     1      -0.156  10.404  19.209  0.00  0.00    +0.000 A 
ATOM     15  C   UNL     1      -1.264  10.526  18.387  0.00  0.00    +0.000 A 
ATOM     16  N   UNL     1      -1.510  10.038  17.129  0.00  0.00    +0.000 NA
ENDBRANCH   1  14
BRANCH   3  17
ATOM     17  C   UNL     1       2.303   7.544  19.310  0.00  0.00    +0.000 C 
ATOM     18  C   UNL     1       2.129   6.212  20.035  0.00  0.00    +0.000 C 
ATOM     19  C   UNL     1       3.397   5.371  19.859  0.00  0.00    +0.000 C 
ATOM     20  N   UNL     1       3.736   5.126  18.444  0.00  0.00    +0.000 NA
ATOM     21  C   UNL     1       3.774   6.377  17.659  0.00  0.00    +0.000 C 
ATOM     22  C   UNL     1       2.525   7.243  17.829  0.00  0.00    +0.000 C 
BRANCH  20  23
ATOM     23  C   UNL     1       5.052   4.455  18.325  0.00  0.00    +0.000 C 
BRANCH  23  24
ATOM     24  C   UNL     1       5.697   4.559  16.957  0.00  0.00    +0.000 A 
ATOM     25  C   UNL     1       7.017   5.032  16.826  0.00  0.00    +0.000 A 
ATOM     26  C   UNL     1       7.606   5.156  15.565  0.00  0.00    +0.000 A 
ATOM     27  C   UNL     1       6.881   4.806  14.432  0.00  0.00    +0.000 A 
ATOM     28  F   UNL     1       7.448   4.932  13.224  0.00  0.00    +0.000 F 
ATOM     29  C   UNL     1       5.578   4.336  14.549  0.00  0.00    +0.000 A 
ATOM     30  F   UNL     1       4.881   4.003  13.453  0.00  0.00    +0.000 F 
ATOM     31  C   UNL     1       4.983   4.211  15.801  0.00  0.00    +0.000 A 
ENDBRANCH  23  24
ENDBRANCH  20  23
ENDBRANCH   3  17
TORSDOF 4
ENDMDL
MODEL 2
REMARK VINA RESULT:      -8.5      2.915      3.401
REMARK  Name = 
REMARK  7 active torsions:
REMARK  status: ('A' for Active; 'I' for Inactive)
REMARK    1  A    between atoms: C_1  and  C_2
REMARK    2  A    between atoms: C_4  and  C_5
REMARK    3  A    between atoms: C_8  and  C_9
REMARK    4  A    between atoms: C_10  and  C_11
REMARK    5  A    between atoms: N_13  and  C_14
REMARK    6  A    between atoms: N_17  and  C_18
REMARK    7  A    between atoms: C_18  and  C_19
REMARK                            x       y       z     vdW  Elec       q    Type
REMARK                         _______ _______ _______ _____ _____    ______ ____
ROOT
ATOM      1  C   UNL     1       1.080   9.960  21.493  0.00  0.00    +0.000 C 
ATOM      2  O   UNL     1       1.613   9.590  22.535  0.00  0.00    +0.000 OA
ATOM      3  N   UNL     1       1.144   9.235  20.317  0.00  0.00    +0.000 N 
ATOM      4  H   UNL     1       0.611   9.596  19.527  0.00  0.00    +0.000 HD
ENDROOT
BRANCH   1  14
ATOM      5  C   UNL     1       2.681  13.822  17.968  0.00  0.00    +0.000 C 
ATOM      6  C   UNL     1       1.592  13.587  18.983  0.00  0.00    +0.000 A 
ATOM      7  C   UNL     1       0.587  14.678  19.178  0.00  0.00    +0.000 A 
ATOM      8  C   UNL     1      -0.364  14.459  20.102  0.00  0.00    +0.000 A 
ATOM      9  C   UNL     1      -1.443  15.452  20.405  0.00  0.00    +0.000 C 
ATOM     10  N   UNL     1      -0.357  13.251  20.815  0.00  0.00    +0.000 N 
ATOM     11  N   UNL     1      -1.211  12.859  21.789  0.00  0.00    +0.000 NA
ATOM     12  C   UNL     1      -0.794  11.640  22.149  0.00  0.00    +0.000 A 
ATOM     13  C   UNL     1      -1.522  10.924  23.231  0.00  0.00    +0.000 C 
ATOM     14  C   UNL     1       0.339  11.212  21.403  0.00  0.00    +0.000 A 
ATOM     15  C   UNL     1       0.612  12.276  20.561  0.00  0.00    +0.000 A 
ATOM     16  N   UNL     1       1.599  12.455  19.626  0.00  0.00    +0.000 NA
ENDBRANCH   1  14
BRANCH   3  17
ATOM     17  C   UNL     1       1.871   7.987  20.181  0.00  0.00    +0.000 C 
ATOM     18  C   UNL     1       1.073   6.784  20.677  0.00  0.00    +0.000 C 
ATOM     19  C   UNL     1       1.947   5.530  20.600  0.00  0.00    +0.000 C 
ATOM     20  N   UNL     1       2.454   5.263  19.239  0.00  0.00    +0.000 NA
ATOM     21  C   UNL     1       3.111   6.448  18.651  0.00  0.00    +0.000 C 
ATOM     22  C   UNL     1       2.264   7.719  18.730  0.00  0.00    +0.000 C 
BRANCH  20  23
ATOM     23  C   UNL     1       3.424   4.142  19.248  0.00  0.00    +0.000 C 
BRANCH  23  24
ATOM     24  C   UNL     1       4.522   4.243  18.208  0.00  0.00    +0.000 A 
ATOM     25  C   UNL     1       4.254   3.952  16.857  0.00  0.00    +0.000 A 
ATOM     26  C   UNL     1       5.269   4.017  15.900  0.00  0.00    +0.000 A 
ATOM     27  C   UNL     1       6.555   4.374  16.287  0.00  0.00    +0.000 A 
ATOM     28  F   UNL     1       7.528   4.429  15.366  0.00  0.00    +0.000 F 
ATOM     29  C   UNL     1       6.832   4.666  17.618  0.00  0.00    +0.000 A 
ATOM     30  F   UNL     1       8.075   5.007  17.987  0.00  0.00    +0.000 F 
ATOM     31  C   UNL     1       5.827   4.602  18.578  0.00  0.00    +0.000 A 
ENDBRANCH  23  24
ENDBRANCH  20  23
ENDBRANCH   3  17
TORSDOF 4
ENDMDL
MODEL 3
REMARK VINA RESULT:      -8.5      2.792      2.999
REMARK  Name = 
REMARK  7 active torsions:
REMARK  status: ('A' for Active; 'I' for Inactive)
REMARK    1  A    between atoms: C_1  and  C_2
REMARK    2  A    between atoms: C_4  and  C_5
REMARK    3  A    between atoms: C_8  and  C_9
REMARK    4  A    between atoms: C_10  and  C_11
REMARK    5  A    between atoms: N_13  and  C_14
REMARK    6  A    between atoms: N_17  and  C_18
REMARK    7  A    between atoms: C_18  and  C_19
REMARK                            x       y       z     vdW  Elec       q    Type
REMARK                         _______ _______ _______ _____ _____    ______ ____
ROOT
ATOM      1  C   UNL     1       1.165   9.787  21.449  0.00  0.00    +0.000 C 
ATOM      2  O   UNL     1       1.699   9.400  22.485  0.00  0.00    +0.000 OA
ATOM      3  N   UNL     1       1.259   9.100  20.252  0.00  0.00    +0.000 N 
ATOM      4  H   UNL     1       0.723   9.470  19.469  0.00  0.00    +0.000 HD
ENDROOT
BRANCH   1  14
ATOM      5  C   UNL     1       2.576  13.721  17.923  0.00  0.00    +0.000 C 
ATOM      6  C   UNL     1       1.519  13.449  18.963  0.00  0.00    +0.000 A 
ATOM      7  C   UNL     1       0.492  14.511  19.194  0.00  0.00    +0.000 A 
ATOM      8  C   UNL     1      -0.429  14.259  20.140  0.00  0.00    +0.000 A 
ATOM      9  C   UNL     1      -1.525  15.222  20.479  0.00  0.00    +0.000 C 
ATOM     10  N   UNL     1      -0.373  13.045  20.840  0.00  0.00    +0.000 N 
ATOM     11  N   UNL     1      -1.192  12.623  21.831  0.00  0.00    +0.000 NA
ATOM     12  C   UNL     1      -0.735  11.411  22.169  0.00  0.00    +0.000 A 
ATOM     13  C   UNL     1      -1.416  10.668  23.262  0.00  0.00    +0.000 C 
ATOM     14  C   UNL     1       0.390  11.020  21.391  0.00  0.00    +0.000 A 
ATOM     15  C   UNL     1       0.613  12.099  20.552  0.00  0.00    +0.000 A 
ATOM     16  N   UNL     1       1.572  12.311  19.594  0.00  0.00    +0.000 NA
ENDBRANCH   1  14
BRANCH   3  17
ATOM     17  C   UNL     1       2.021   7.878  20.085  0.00  0.00    +0.000 C 
ATOM     18  C   UNL     1       1.265   6.642  20.566  0.00  0.00    +0.000 C 
ATOM     19  C   UNL     1       2.176   5.416  20.456  0.00  0.00    +0.000 C 
ATOM     20  N   UNL     1       2.677   5.190  19.086  0.00  0.00    +0.000 NA
ATOM     21  C   UNL     1       3.292   6.406  18.514  0.00  0.00    +0.000 C 
ATOM     22  C   UNL     1       2.407   7.649  18.625  0.00  0.00    +0.000 C 
BRANCH  20  23
ATOM     23  C   UNL     1       3.680   4.099  19.064  0.00  0.00    +0.000 C 
BRANCH  23  24
ATOM     24  C   UNL     1       4.741   4.233  17.989  0.00  0.00    +0.000 A 
ATOM     25  C   UNL     1       6.074   4.523  18.336  0.00  0.00    +0.000 A 
ATOM     26  C   UNL     1       7.050   4.675  17.348  0.00  0.00    +0.000 A 
ATOM     27  C   UNL     1       6.698   4.536  16.010  0.00  0.00    +0.000 A 
ATOM     28  F   UNL     1       7.637   4.688  15.065  0.00  0.00    +0.000 F 
ATOM     29  C   UNL     1       5.385   4.248  15.655  0.00  0.00    +0.000 A 
ATOM     30  F   UNL     1       5.051   4.118  14.363  0.00  0.00    +0.000 F 
ATOM     31  C   UNL     1       4.407   4.097  16.634  0.00  0.00    +0.000 A 
ENDBRANCH  23  24
ENDBRANCH  20  23
ENDBRANCH   3  17
TORSDOF 4
ENDMDL
MODEL 4
REMARK VINA RESULT:      -8.4      5.170     10.432
REMARK  Name = 
REMARK  7 active torsions:
REMARK  status: ('A' for Active; 'I' for Inactive)
REMARK    1  A    between atoms: C_1  and  C_2
REMARK    2  A    between atoms: C_4  and  C_5
REMARK    3  A    between atoms: C_8  and  C_9
REMARK    4  A    between atoms: C_10  and  C_11
REMARK    5  A    between atoms: N_13  and  C_14
REMARK    6  A    between atoms: N_17  and  C_18
REMARK    7  A    between atoms: C_18  and  C_19
REMARK                            x       y       z     vdW  Elec       q    Type
REMARK                         _______ _______ _______ _____ _____    ______ ____
ROOT
ATOM      1  C   UNL     1       2.813   7.252  18.606  0.00  0.00    +0.000 C 
ATOM      2  O   UNL     1       2.978   8.216  17.864  0.00  0.00    +0.000 OA
ATOM      3  N   UNL     1       2.184   7.347  19.834  0.00  0.00    +0.000 N 
ATOM      4  H   UNL     1       2.038   6.477  20.343  0.00  0.00    +0.000 HD
ENDROOT
BRANCH   1  14
ATOM      5  C   UNL     1       1.084   2.930  21.475  0.00  0.00    +0.000 C 
ATOM      6  C   UNL     1       1.973   3.233  20.296  0.00  0.00    +0.000 A 
ATOM      7  C   UNL     1       2.649   2.077  19.630  0.00  0.00    +0.000 A 
ATOM      8  C   UNL     1       3.454   2.369  18.594  0.00  0.00    +0.000 A 
ATOM      9  C   UNL     1       4.193   1.320  17.822  0.00  0.00    +0.000 C 
ATOM     10  N   UNL     1       3.612   3.709  18.209  0.00  0.00    +0.000 N 
ATOM     11  N   UNL     1       4.386   4.198  17.214  0.00  0.00    +0.000 NA
ATOM     12  C   UNL     1       4.196   5.523  17.243  0.00  0.00    +0.000 A 
ATOM     13  C   UNL     1       4.931   6.374  16.269  0.00  0.00    +0.000 C 
ATOM     14  C   UNL     1       3.280   5.917  18.258  0.00  0.00    +0.000 A 
ATOM     15  C   UNL     1       2.931   4.729  18.878  0.00  0.00    +0.000 A 
ATOM     16  N   UNL     1       2.098   4.478  19.938  0.00  0.00    +0.000 NA
ENDBRANCH   1  14
BRANCH   3  17
ATOM     17  C   UNL     1       1.688   8.593  20.389  0.00  0.00    +0.000 C 
ATOM     18  C   UNL     1       0.927   9.431  19.364  0.00  0.00    +0.000 C 
ATOM     19  C   UNL     1       0.534  10.769  19.997  0.00  0.00    +0.000 C 
ATOM     20  N   UNL     1      -0.283  10.613  21.216  0.00  0.00    +0.000 NA
ATOM     21  C   UNL     1       0.341   9.690  22.186  0.00  0.00    +0.000 C 
ATOM     22  C   UNL     1       0.758   8.351  21.576  0.00  0.00    +0.000 C 
BRANCH  20  23
ATOM     23  C   UNL     1      -0.496  11.921  21.879  0.00  0.00    +0.000 C 
BRANCH  23  24
ATOM     24  C   UNL     1      -1.943  12.247  22.193  0.00  0.00    +0.000 A 
ATOM     25  C   UNL     1      -2.792  12.755  21.192  0.00  0.00    +0.000 A 
ATOM     26  C   UNL     1      -4.119  13.083  21.483  0.00  0.00    +0.000 A 
ATOM     27  C   UNL     1      -4.602  12.904  22.774  0.00  0.00    +0.000 A 
ATOM     28  F   UNL     1      -5.874  13.226  23.050  0.00  0.00    +0.000 F 
ATOM     29  C   UNL     1      -3.773  12.402  23.771  0.00  0.00    +0.000 A 
ATOM     30  F   UNL     1      -4.244  12.234  25.015  0.00  0.00    +0.000 F 
ATOM     31  C   UNL     1      -2.450  12.074  23.489  0.00  0.00    +0.000 A 
ENDBRANCH  23  24
ENDBRANCH  20  23
ENDBRANCH   3  17
TORSDOF 4
ENDMDL
MODEL 5
REMARK VINA RESULT:      -8.4      2.876      3.587
REMARK  Name = 
REMARK  7 active torsions:
REMARK  status: ('A' for Active; 'I' for Inactive)
REMARK    1  A    between atoms: C_1  and  C_2
REMARK    2  A    between atoms: C_4  and  C_5
REMARK    3  A    between atoms: C_8  and  C_9
REMARK    4  A    between atoms: C_10  and  C_11
REMARK    5  A    between atoms: N_13  and  C_14
REMARK    6  A    between atoms: N_17  and  C_18
REMARK    7  A    between atoms: C_18  and  C_19
REMARK                            x       y       z     vdW  Elec       q    Type
REMARK                         _______ _______ _______ _____ _____    ______ ____
ROOT
ATOM      1  C   UNL     1      -0.374  11.982  20.133  0.00  0.00    +0.000 C 
ATOM      2  O   UNL     1       0.547  12.652  19.675  0.00  0.00    +0.000 OA
ATOM      3  N   UNL     1      -0.339  10.601  20.201  0.00  0.00    +0.000 N 
ATOM      4  H   UNL     1      -1.126  10.145  20.660  0.00  0.00    +0.000 HD
ENDROOT
BRANCH   1  14
ATOM      5  C   UNL     1      -5.065  11.319  17.401  0.00  0.00    +0.000 C 
ATOM      6  C   UNL     1      -4.563  11.984  18.658  0.00  0.00    +0.000 A 
ATOM      7  C   UNL     1      -5.560  12.726  19.488  0.00  0.00    +0.000 A 
ATOM      8  C   UNL     1      -5.089  13.330  20.593  0.00  0.00    +0.000 A 
ATOM      9  C   UNL     1      -5.966  14.104  21.529  0.00  0.00    +0.000 C 
ATOM     10  N   UNL     1      -3.722  13.235  20.893  0.00  0.00    +0.000 N 
ATOM     11  N   UNL     1      -3.063  13.785  21.939  0.00  0.00    +0.000 NA
ATOM     12  C   UNL     1      -1.789  13.407  21.787  0.00  0.00    +0.000 A 
ATOM     13  C   UNL     1      -0.781  13.868  22.778  0.00  0.00    +0.000 C 
ATOM     14  C   UNL     1      -1.599  12.590  20.637  0.00  0.00    +0.000 A 
ATOM     15  C   UNL     1      -2.859  12.508  20.069  0.00  0.00    +0.000 A 
ATOM     16  N   UNL     1      -3.295  11.874  18.933  0.00  0.00    +0.000 NA
ENDBRANCH   1  14
BRANCH   3  17
ATOM     17  C   UNL     1       0.767   9.800  19.710  0.00  0.00    +0.000 C 
ATOM     18  C   UNL     1       0.823   8.418  20.354  0.00  0.00    +0.000 C 
ATOM     19  C   UNL     1       2.074   7.682  19.864  0.00  0.00    +0.000 C 
ATOM     20  N   UNL     1       2.128   7.549  18.395  0.00  0.00    +0.000 NA
ATOM     21  C   UNL     1       1.931   8.846  17.714  0.00  0.00    +0.000 C 
ATOM     22  C   UNL     1       0.695   9.608  18.196  0.00  0.00    +0.000 C 
BRANCH  20  23
ATOM     23  C   UNL     1       3.428   6.983  17.963  0.00  0.00    +0.000 C 
BRANCH  23  24
ATOM     24  C   UNL     1       3.610   5.508  18.264  0.00  0.00    +0.000 A 
ATOM     25  C   UNL     1       4.688   5.071  19.058  0.00  0.00    +0.000 A 
ATOM     26  C   UNL     1       4.876   3.710  19.314  0.00  0.00    +0.000 A 
ATOM     27  C   UNL     1       3.989   2.783  18.781  0.00  0.00    +0.000 A 
ATOM     28  F   UNL     1       4.177   1.478  19.026  0.00  0.00    +0.000 F 
ATOM     29  C   UNL     1       2.920   3.203  17.998  0.00  0.00    +0.000 A 
ATOM     30  F   UNL     1       2.068   2.304  17.484  0.00  0.00    +0.000 F 
ATOM     31  C   UNL     1       2.726   4.556  17.736  0.00  0.00    +0.000 A 
ENDBRANCH  23  24
ENDBRANCH  20  23
ENDBRANCH   3  17
TORSDOF 4
ENDMDL
MODEL 6
REMARK VINA RESULT:      -8.4      3.895      5.686
REMARK  Name = 
REMARK  7 active torsions:
REMARK  status: ('A' for Active; 'I' for Inactive)
REMARK    1  A    between atoms: C_1  and  C_2
REMARK    2  A    between atoms: C_4  and  C_5
REMARK    3  A    between atoms: C_8  and  C_9
REMARK    4  A    between atoms: C_10  and  C_11
REMARK    5  A    between atoms: N_13  and  C_14
REMARK    6  A    between atoms: N_17  and  C_18
REMARK    7  A    between atoms: C_18  and  C_19
REMARK                            x       y       z     vdW  Elec       q    Type
REMARK                         _______ _______ _______ _____ _____    ______ ____
ROOT
ATOM      1  C   UNL     1      -1.062  13.039  21.881  0.00  0.00    +0.000 C 
ATOM      2  O   UNL     1      -0.215  13.592  21.186  0.00  0.00    +0.000 OA
ATOM      3  N   UNL     1      -1.045  11.682  22.149  0.00  0.00    +0.000 N 
ATOM      4  H   UNL     1      -1.755  11.333  22.791  0.00  0.00    +0.000 HD
ENDROOT
BRANCH   1  14
ATOM      5  C   UNL     1      -6.195  11.846  20.423  0.00  0.00    +0.000 C 
ATOM      6  C   UNL     1      -5.463  12.775  21.358  0.00  0.00    +0.000 A 
ATOM      7  C   UNL     1      -6.289  13.706  22.187  0.00  0.00    +0.000 A 
ATOM      8  C   UNL     1      -5.617  14.541  23.000  0.00  0.00    +0.000 A 
ATOM      9  C   UNL     1      -6.303  15.525  23.896  0.00  0.00    +0.000 C 
ATOM     10  N   UNL     1      -4.215  14.493  23.019  0.00  0.00    +0.000 N 
ATOM     11  N   UNL     1      -3.370  15.258  23.748  0.00  0.00    +0.000 NA
ATOM     12  C   UNL     1      -2.144  14.832  23.423  0.00  0.00    +0.000 A 
ATOM     13  C   UNL     1      -0.967  15.492  24.048  0.00  0.00    +0.000 C 
ATOM     14  C   UNL     1      -2.173  13.769  22.478  0.00  0.00    +0.000 A 
ATOM     15  C   UNL     1      -3.521  13.580  22.221  0.00  0.00    +0.000 A 
ATOM     16  N   UNL     1      -4.163  12.708  21.380  0.00  0.00    +0.000 NA
ENDBRANCH   1  14
BRANCH   3  17
ATOM     17  C   UNL     1      -0.053  10.769  21.612  0.00  0.00    +0.000 C 
ATOM     18  C   UNL     1       0.195   9.569  22.523  0.00  0.00    +0.000 C 
ATOM     19  C   UNL     1       1.326   8.718  21.940  0.00  0.00    +0.000 C 
ATOM     20  N   UNL     1       1.049   8.251  20.567  0.00  0.00    +0.000 NA
ATOM     21  C   UNL     1       0.659   9.361  19.674  0.00  0.00    +0.000 C 
ATOM     22  C   UNL     1      -0.460  10.236  20.240  0.00  0.00    +0.000 C 
BRANCH  20  23
ATOM     23  C   UNL     1       2.236   7.576  19.990  0.00  0.00    +0.000 C 
BRANCH  23  24
ATOM     24  C   UNL     1       2.021   6.124  19.613  0.00  0.00    +0.000 A 
ATOM     25  C   UNL     1       2.283   5.681  18.302  0.00  0.00    +0.000 A 
ATOM     26  C   UNL     1       2.059   4.350  17.943  0.00  0.00    +0.000 A 
ATOM     27  C   UNL     1       1.575   3.456  18.890  0.00  0.00    +0.000 A 
ATOM     28  F   UNL     1       1.357   2.180  18.539  0.00  0.00    +0.000 F 
ATOM     29  C   UNL     1       1.314   3.880  20.188  0.00  0.00    +0.000 A 
ATOM     30  F   UNL     1       0.844   3.014  21.097  0.00  0.00    +0.000 F 
ATOM     31  C   UNL     1       1.532   5.205  20.554  0.00  0.00    +0.000 A 
ENDBRANCH  23  24
ENDBRANCH  20  23
ENDBRANCH   3  17
TORSDOF 4
ENDMDL
MODEL 7
REMARK VINA RESULT:      -8.4      2.680      3.971
REMARK  Name = 
REMARK  7 active torsions:
REMARK  status: ('A' for Active; 'I' for Inactive)
REMARK    1  A    between atoms: C_1  and  C_2
REMARK    2  A    between atoms: C_4  and  C_5
REMARK    3  A    between atoms: C_8  and  C_9
REMARK    4  A    between atoms: C_10  and  C_11
REMARK    5  A    between atoms: N_13  and  C_14
REMARK    6  A    between atoms: N_17  and  C_18
REMARK    7  A    between atoms: C_18  and  C_19
REMARK                            x       y       z     vdW  Elec       q    Type
REMARK                         _______ _______ _______ _____ _____    ______ ____
ROOT
ATOM      1  C   UNL     1      -0.509  12.136  21.084  0.00  0.00    +0.000 C 
ATOM      2  O   UNL     1       0.586  12.534  21.470  0.00  0.00    +0.000 OA
ATOM      3  N   UNL     1      -0.667  11.000  20.311  0.00  0.00    +0.000 N 
ATOM      4  H   UNL     1      -1.623  10.719  20.100  0.00  0.00    +0.000 HD
ENDROOT
BRANCH   1  14
ATOM      5  C   UNL     1      -4.837  11.654  17.776  0.00  0.00    +0.000 C 
ATOM      6  C   UNL     1      -4.459  12.338  19.065  0.00  0.00    +0.000 A 
ATOM      7  C   UNL     1      -5.504  13.176  19.731  0.00  0.00    +0.000 A 
ATOM      8  C   UNL     1      -5.142  13.795  20.868  0.00  0.00    +0.000 A 
ATOM      9  C   UNL     1      -6.079  14.660  21.652  0.00  0.00    +0.000 C 
ATOM     10  N   UNL     1      -3.835  13.627  21.350  0.00  0.00    +0.000 N 
ATOM     11  N   UNL     1      -3.283  14.178  22.455  0.00  0.00    +0.000 NA
ATOM     12  C   UNL     1      -2.028  13.715  22.486  0.00  0.00    +0.000 A 
ATOM     13  C   UNL     1      -1.130  14.153  23.588  0.00  0.00    +0.000 C 
ATOM     14  C   UNL     1      -1.746  12.840  21.400  0.00  0.00    +0.000 A 
ATOM     15  C   UNL     1      -2.923  12.813  20.672  0.00  0.00    +0.000 A 
ATOM     16  N   UNL     1      -3.249  12.160  19.511  0.00  0.00    +0.000 NA
ENDBRANCH   1  14
BRANCH   3  17
ATOM     17  C   UNL     1       0.439  10.183  19.848  0.00  0.00    +0.000 C 
ATOM     18  C   UNL     1       0.578   8.882  20.633  0.00  0.00    +0.000 C 
ATOM     19  C   UNL     1       1.826   8.134  20.156  0.00  0.00    +0.000 C 
ATOM     20  N   UNL     1       1.807   7.842  18.709  0.00  0.00    +0.000 NA
ATOM     21  C   UNL     1       1.528   9.049  17.905  0.00  0.00    +0.000 C 
ATOM     22  C   UNL     1       0.294   9.823  18.371  0.00  0.00    +0.000 C 
BRANCH  20  23
ATOM     23  C   UNL     1       3.101   7.270  18.269  0.00  0.00    +0.000 C 
BRANCH  23  24
ATOM     24  C   UNL     1       3.087   5.773  18.031  0.00  0.00    +0.000 A 
ATOM     25  C   UNL     1       4.196   5.134  17.445  0.00  0.00    +0.000 A 
ATOM     26  C   UNL     1       4.176   3.759  17.198  0.00  0.00    +0.000 A 
ATOM     27  C   UNL     1       3.051   3.018  17.537  0.00  0.00    +0.000 A 
ATOM     28  F   UNL     1       3.035   1.699  17.293  0.00  0.00    +0.000 F 
ATOM     29  C   UNL     1       1.951   3.637  18.119  0.00  0.00    +0.000 A 
ATOM     30  F   UNL     1       0.867   2.917  18.441  0.00  0.00    +0.000 F 
ATOM     31  C   UNL     1       1.962   5.007  18.366  0.00  0.00    +0.000 A 
ENDBRANCH  23  24
ENDBRANCH  20  23
ENDBRANCH   3  17
TORSDOF 4
ENDMDL
MODEL 8
REMARK VINA RESULT:      -8.3      0.870      1.350
REMARK  Name = 
REMARK  7 active torsions:
REMARK  status: ('A' for Active; 'I' for Inactive)
REMARK    1  A    between atoms: C_1  and  C_2
REMARK    2  A    between atoms: C_4  and  C_5
REMARK    3  A    between atoms: C_8  and  C_9
REMARK    4  A    between atoms: C_10  and  C_11
REMARK    5  A    between atoms: N_13  and  C_14
REMARK    6  A    between atoms: N_17  and  C_18
REMARK    7  A    between atoms: C_18  and  C_19
REMARK                            x       y       z     vdW  Elec       q    Type
REMARK                         _______ _______ _______ _____ _____    ______ ____
ROOT
ATOM      1  C   UNL     1       0.958   9.528  19.038  0.00  0.00    +0.000 C 
ATOM      2  O   UNL     1       1.811   9.875  18.226  0.00  0.00    +0.000 OA
ATOM      3  N   UNL     1       1.026   8.336  19.736  0.00  0.00    +0.000 N 
ATOM      4  H   UNL     1       0.303   8.174  20.436  0.00  0.00    +0.000 HD
ENDROOT
BRANCH   1  14
ATOM      5  C   UNL     1      -3.045   9.959  15.338  0.00  0.00    +0.000 C 
ATOM      6  C   UNL     1      -2.720  10.446  16.727  0.00  0.00    +0.000 A 
ATOM      7  C   UNL     1      -3.723  11.332  17.396  0.00  0.00    +0.000 A 
ATOM      8  C   UNL     1      -3.406  11.774  18.626  0.00  0.00    +0.000 A 
ATOM      9  C   UNL     1      -4.310  12.660  19.425  0.00  0.00    +0.000 C 
ATOM     10  N   UNL     1      -2.182  11.390  19.194  0.00  0.00    +0.000 N 
ATOM     11  N   UNL     1      -1.682  11.744  20.400  0.00  0.00    +0.000 NA
ATOM     12  C   UNL     1      -0.499  11.125  20.484  0.00  0.00    +0.000 A 
ATOM     13  C   UNL     1       0.330  11.324  21.702  0.00  0.00    +0.000 C 
ATOM     14  C   UNL     1      -0.213  10.345  19.329  0.00  0.00    +0.000 A 
ATOM     15  C   UNL     1      -1.308  10.546  18.505  0.00  0.00    +0.000 A 
ATOM     16  N   UNL     1      -1.589  10.069  17.250  0.00  0.00    +0.000 NA
ENDBRANCH   1  14
BRANCH   3  17
ATOM     17  C   UNL     1       2.084   7.360  19.559  0.00  0.00    +0.000 C 
ATOM     18  C   UNL     1       1.909   6.134  20.452  0.00  0.00    +0.000 C 
ATOM     19  C   UNL     1       3.117   5.209  20.284  0.00  0.00    +0.000 C 
ATOM     20  N   UNL     1       3.326   4.780  18.887  0.00  0.00    +0.000 NA
ATOM     21  C   UNL     1       3.357   5.926  17.955  0.00  0.00    +0.000 C 
ATOM     22  C   UNL     1       2.168   6.875  18.113  0.00  0.00    +0.000 C 
BRANCH  20  23
ATOM     23  C   UNL     1       4.595   4.027  18.750  0.00  0.00    +0.000 C 
BRANCH  23  24
ATOM     24  C   UNL     1       5.411   4.374  17.521  0.00  0.00    +0.000 A 
ATOM     25  C   UNL     1       5.292   3.608  16.346  0.00  0.00    +0.000 A 
ATOM     26  C   UNL     1       6.063   3.907  15.220  0.00  0.00    +0.000 A 
ATOM     27  C   UNL     1       6.954   4.973  15.262  0.00  0.00    +0.000 A 
ATOM     28  F   UNL     1       7.695   5.253  14.180  0.00  0.00    +0.000 F 
ATOM     29  C   UNL     1       7.079   5.739  16.415  0.00  0.00    +0.000 A 
ATOM     30  F   UNL     1       7.942   6.764  16.452  0.00  0.00    +0.000 F 
ATOM     31  C   UNL     1       6.316   5.446  17.543  0.00  0.00    +0.000 A 
ENDBRANCH  23  24
ENDBRANCH  20  23
ENDBRANCH   3  17
TORSDOF 4
ENDMDL
MODEL 9
REMARK VINA RESULT:      -8.3      5.179     10.472
REMARK  Name = 
REMARK  7 active torsions:
REMARK  status: ('A' for Active; 'I' for Inactive)
REMARK    1  A    between atoms: C_1  and  C_2
REMARK    2  A    between atoms: C_4  and  C_5
REMARK    3  A    between atoms: C_8  and  C_9
REMARK    4  A    between atoms: C_10  and  C_11
REMARK    5  A    between atoms: N_13  and  C_14
REMARK    6  A    between atoms: N_17  and  C_18
REMARK    7  A    between atoms: C_18  and  C_19
REMARK                            x       y       z     vdW  Elec       q    Type
REMARK                         _______ _______ _______ _____ _____    ______ ____
ROOT
ATOM      1  C   UNL     1       2.562   6.312  19.688  0.00  0.00    +0.000 C 
ATOM      2  O   UNL     1       2.371   5.834  20.802  0.00  0.00    +0.000 OA
ATOM      3  N   UNL     1       2.260   7.624  19.370  0.00  0.00    +0.000 N 
ATOM      4  H   UNL     1       2.519   7.940  18.437  0.00  0.00    +0.000 HD
ENDROOT
BRANCH   1  14
ATOM      5  C   UNL     1       7.386   7.697  17.517  0.00  0.00    +0.000 C 
ATOM      6  C   UNL     1       6.324   6.641  17.351  0.00  0.00    +0.000 A 
ATOM      7  C   UNL     1       6.544   5.604  16.296  0.00  0.00    +0.000 A 
ATOM      8  C   UNL     1       5.576   4.683  16.149  0.00  0.00    +0.000 A 
ATOM      9  C   UNL     1       5.656   3.578  15.141  0.00  0.00    +0.000 C 
ATOM     10  N   UNL     1       4.442   4.748  16.972  0.00  0.00    +0.000 N 
ATOM     11  N   UNL     1       3.364   3.931  16.962  0.00  0.00    +0.000 NA
ATOM     12  C   UNL     1       2.563   4.398  17.928  0.00  0.00    +0.000 A 
ATOM     13  C   UNL     1       1.261   3.720  18.168  0.00  0.00    +0.000 C 
ATOM     14  C   UNL     1       3.117   5.527  18.592  0.00  0.00    +0.000 A 
ATOM     15  C   UNL     1       4.322   5.743  17.946  0.00  0.00    +0.000 A 
ATOM     16  N   UNL     1       5.285   6.702  18.133  0.00  0.00    +0.000 NA
ENDBRANCH   1  14
BRANCH   3  17
ATOM     17  C   UNL     1       1.657   8.558  20.302  0.00  0.00    +0.000 C 
ATOM     18  C   UNL     1       1.251   9.871  19.638  0.00  0.00    +0.000 C 
ATOM     19  C   UNL     1       0.726  10.836  20.705  0.00  0.00    +0.000 C 
ATOM     20  N   UNL     1      -0.414  10.290  21.468  0.00  0.00    +0.000 NA
ATOM     21  C   UNL     1      -0.124   8.948  22.012  0.00  0.00    +0.000 C 
ATOM     22  C   UNL     1       0.416   7.968  20.969  0.00  0.00    +0.000 C 
BRANCH  20  23
ATOM     23  C   UNL     1      -0.776  11.187  22.591  0.00  0.00    +0.000 C 
BRANCH  23  24
ATOM     24  C   UNL     1      -2.070  11.953  22.402  0.00  0.00    +0.000 A 
ATOM     25  C   UNL     1      -2.347  12.593  21.180  0.00  0.00    +0.000 A 
ATOM     26  C   UNL     1      -3.526  13.324  21.011  0.00  0.00    +0.000 A 
ATOM     27  C   UNL     1      -4.432  13.416  22.060  0.00  0.00    +0.000 A 
ATOM     28  F   UNL     1      -5.560  14.123  21.894  0.00  0.00    +0.000 F 
ATOM     29  C   UNL     1      -4.171  12.786  23.271  0.00  0.00    +0.000 A 
ATOM     30  F   UNL     1      -5.047  12.881  24.282  0.00  0.00    +0.000 F 
ATOM     31  C   UNL     1      -2.998  12.058  23.449  0.00  0.00    +0.000 A 
ENDBRANCH  23  24
ENDBRANCH  20  23
ENDBRANCH   3  17
TORSDOF 4
ENDMDL
