MODEL 1
REMARK VINA RESULT:      -8.9      0.000      0.000
REMARK  Name = 
REMARK  4 active torsions:
REMARK  status: ('A' for Active; 'I' for Inactive)
REMARK    1  A    between atoms: C_2  and  C_15
REMARK    2  A    between atoms: N_3  and  C_4
REMARK    3  A    between atoms: C_6  and  C_7
REMARK    4  A    between atoms: N_17  and  C_18
REMARK                            x       y       z     vdW  Elec       q    Type
REMARK                         _______ _______ _______ _____ _____    ______ ____
ROOT
ATOM      1  O   UNL     1       5.393   3.785  17.792  0.00  0.00    +0.000 OA
ATOM      2  C   UNL     1       4.659   4.720  17.477  0.00  0.00    +0.000 C 
ATOM      3  N   UNL     1       4.739   5.392  16.271  0.00  0.00    +0.000 N 
ATOM      4  H   UNL     1       4.228   6.273  16.214  0.00  0.00    +0.000 HD
ENDROOT
BRANCH   3   5
ATOM      5  C   UNL     1       5.633   5.114  15.252  0.00  0.00    +0.000 A 
ATOM      6  C   UNL     1       5.373   4.342  14.182  0.00  0.00    +0.000 A 
ATOM      7  C   UNL     1       6.374   4.031  13.174  0.00  0.00    +0.000 A 
ATOM      8  C   UNL     1       7.610   4.539  13.319  0.00  0.00    +0.000 A 
ATOM      9  N   UNL     1       7.912   5.348  14.385  0.00  0.00    +0.000 N 
ATOM     10  C   UNL     1       7.015   5.707  15.367  0.00  0.00    +0.000 A 
ATOM     11  O   UNL     1       7.323   6.440  16.302  0.00  0.00    +0.000 OA
ATOM     12  H   UNL     1       8.850   5.721  14.488  0.00  0.00    +0.000 HD
BRANCH   7  13
ATOM     13  C   UNL     1       5.998   3.150  12.011  0.00  0.00    +0.000 C 
ATOM     14  F   UNL     1       4.943   3.620  11.293  0.00  0.00    +0.000 F 
ATOM     15  F   UNL     1       7.029   3.016  11.136  0.00  0.00    +0.000 F 
ATOM     16  F   UNL     1       5.671   1.897  12.420  0.00  0.00    +0.000 F 
ENDBRANCH   7  13
ENDBRANCH   3   5
BRANCH   2  17
ATOM     17  C   UNL     1       3.672   5.246  18.431  0.00  0.00    +0.000 A 
ATOM     18  N   UNL     1       3.412   6.563  18.638  0.00  0.00    +0.000 NA
ATOM     19  N   UNL     1       2.401   6.589  19.581  0.00  0.00    +0.000 N 
ATOM     20  C   UNL     1       2.062   5.318  19.938  0.00  0.00    +0.000 A 
ATOM     21  C   UNL     1       2.828   4.457  19.220  0.00  0.00    +0.000 A 
ATOM     22  C   UNL     1       2.453   3.052  19.448  0.00  0.00    +0.000 C 
ATOM     23  C   UNL     1       1.043   3.220  20.111  0.00  0.00    +0.000 C 
ATOM     24  C   UNL     1       0.987   4.667  20.710  0.00  0.00    +0.000 C 
BRANCH  19  25
ATOM     25  C   UNL     1       1.788   7.788  20.023  0.00  0.00    +0.000 A 
ATOM     26  C   UNL     1       1.514   8.811  19.110  0.00  0.00    +0.000 A 
ATOM     27  C   UNL     1       0.795   9.937  19.528  0.00  0.00    +0.000 A 
ATOM     28  C   UNL     1       0.392  10.063  20.859  0.00  0.00    +0.000 A 
ATOM     29  C   UNL     1       0.710   9.070  21.781  0.00  0.00    +0.000 A 
ATOM     30  C   UNL     1       1.400   7.932  21.364  0.00  0.00    +0.000 A 
ENDBRANCH  19  25
ENDBRANCH   2  17
TORSDOF 4
ENDMDL
MODEL 2
REMARK VINA RESULT:      -8.8      0.170      1.136
REMARK  Name = 
REMARK  4 active torsions:
REMARK  status: ('A' for Active; 'I' for Inactive)
REMARK    1  A    between atoms: C_2  and  C_15
REMARK    2  A    between atoms: N_3  and  C_4
REMARK    3  A    between atoms: C_6  and  C_7
REMARK    4  A    between atoms: N_17  and  C_18
REMARK                            x       y       z     vdW  Elec       q    Type
REMARK                         _______ _______ _______ _____ _____    ______ ____
ROOT
ATOM      1  O   UNL     1       5.668   4.084  17.927  0.00  0.00    +0.000 OA
ATOM      2  C   UNL     1       4.787   4.848  17.536  0.00  0.00    +0.000 C 
ATOM      3  N   UNL     1       4.734   5.378  16.260  0.00  0.00    +0.000 N 
ATOM      4  H   UNL     1       4.087   6.154  16.123  0.00  0.00    +0.000 HD
ENDROOT
BRANCH   3   5
ATOM      5  C   UNL     1       5.643   5.128  15.246  0.00  0.00    +0.000 A 
ATOM      6  C   UNL     1       5.423   4.326  14.188  0.00  0.00    +0.000 A 
ATOM      7  C   UNL     1       6.439   4.049  13.186  0.00  0.00    +0.000 A 
ATOM      8  C   UNL     1       7.648   4.619  13.324  0.00  0.00    +0.000 A 
ATOM      9  N   UNL     1       7.909   5.459  14.377  0.00  0.00    +0.000 N 
ATOM     10  C   UNL     1       6.994   5.790  15.353  0.00  0.00    +0.000 A 
ATOM     11  O   UNL     1       7.264   6.552  16.276  0.00  0.00    +0.000 OA
ATOM     12  H   UNL     1       8.827   5.879  14.475  0.00  0.00    +0.000 HD
BRANCH   7  13
ATOM     13  C   UNL     1       6.109   3.132  12.038  0.00  0.00    +0.000 C 
ATOM     14  F   UNL     1       5.499   1.978  12.422  0.00  0.00    +0.000 F 
ATOM     15  F   UNL     1       5.272   3.730  11.149  0.00  0.00    +0.000 F 
ATOM     16  F   UNL     1       7.222   2.779  11.345  0.00  0.00    +0.000 F 
ENDBRANCH   7  13
ENDBRANCH   3   5
BRANCH   2  17
ATOM     17  C   UNL     1       3.746   5.319  18.461  0.00  0.00    +0.000 A 
ATOM     18  N   UNL     1       3.441   6.621  18.694  0.00  0.00    +0.000 NA
ATOM     19  N   UNL     1       2.391   6.592  19.593  0.00  0.00    +0.000 N 
ATOM     20  C   UNL     1       2.071   5.303  19.897  0.00  0.00    +0.000 A 
ATOM     21  C   UNL     1       2.891   4.484  19.190  0.00  0.00    +0.000 A 
ATOM     22  C   UNL     1       2.545   3.064  19.360  0.00  0.00    +0.000 C 
ATOM     23  C   UNL     1       1.104   3.175  19.966  0.00  0.00    +0.000 C 
ATOM     24  C   UNL     1       0.982   4.601  20.603  0.00  0.00    +0.000 C 
BRANCH  19  25
ATOM     25  C   UNL     1       1.726   7.762  20.042  0.00  0.00    +0.000 A 
ATOM     26  C   UNL     1       1.356   7.884  21.384  0.00  0.00    +0.000 A 
ATOM     27  C   UNL     1       0.816   9.090  21.846  0.00  0.00    +0.000 A 
ATOM     28  C   UNL     1       0.604  10.152  20.964  0.00  0.00    +0.000 A 
ATOM     29  C   UNL     1       0.923  10.013  19.616  0.00  0.00    +0.000 A 
ATOM     30  C   UNL     1       1.489   8.824  19.156  0.00  0.00    +0.000 A 
ENDBRANCH  19  25
ENDBRANCH   2  17
TORSDOF 4
ENDMDL
MODEL 3
REMARK VINA RESULT:      -8.7      5.222      8.483
REMARK  Name = 
REMARK  4 active torsions:
REMARK  status: ('A' for Active; 'I' for Inactive)
REMARK    1  A    between atoms: C_2  and  C_15
REMARK    2  A    between atoms: N_3  and  C_4
REMARK    3  A    between atoms: C_6  and  C_7
REMARK    4  A    between atoms: N_17  and  C_18
REMARK                            x       y       z     vdW  Elec       q    Type
REMARK                         _______ _______ _______ _____ _____    ______ ____
ROOT
ATOM      1  O   UNL     1       1.460   8.600  20.503  0.00  0.00    +0.000 OA
ATOM      2  C   UNL     1       1.704   8.274  19.342  0.00  0.00    +0.000 C 
ATOM      3  N   UNL     1       1.236   8.955  18.233  0.00  0.00    +0.000 N 
ATOM      4  H   UNL     1       1.326   8.473  17.340  0.00  0.00    +0.000 HD
ENDROOT
BRANCH   3   5
ATOM      5  C   UNL     1       0.445  10.091  18.261  0.00  0.00    +0.000 A 
ATOM      6  C   UNL     1      -0.898  10.101  18.192  0.00  0.00    +0.000 A 
ATOM      7  C   UNL     1      -1.674  11.330  18.160  0.00  0.00    +0.000 A 
ATOM      8  C   UNL     1      -1.020  12.504  18.203  0.00  0.00    +0.000 A 
ATOM      9  N   UNL     1       0.348  12.538  18.295  0.00  0.00    +0.000 N 
ATOM     10  C   UNL     1       1.152  11.420  18.354  0.00  0.00    +0.000 A 
ATOM     11  O   UNL     1       2.374  11.493  18.443  0.00  0.00    +0.000 OA
ATOM     12  H   UNL     1       0.832  13.429  18.320  0.00  0.00    +0.000 HD
BRANCH   7  13
ATOM     13  C   UNL     1      -3.176  11.250  18.073  0.00  0.00    +0.000 C 
ATOM     14  F   UNL     1      -3.650   9.975  18.048  0.00  0.00    +0.000 F 
ATOM     15  F   UNL     1      -3.768  11.859  19.133  0.00  0.00    +0.000 F 
ATOM     16  F   UNL     1      -3.645  11.868  16.958  0.00  0.00    +0.000 F 
ENDBRANCH   7  13
ENDBRANCH   3   5
BRANCH   2  17
ATOM     17  C   UNL     1       2.469   7.051  19.058  0.00  0.00    +0.000 A 
ATOM     18  N   UNL     1       3.505   6.964  18.185  0.00  0.00    +0.000 NA
ATOM     19  N   UNL     1       3.940   5.654  18.266  0.00  0.00    +0.000 N 
ATOM     20  C   UNL     1       3.181   4.965  19.164  0.00  0.00    +0.000 A 
ATOM     21  C   UNL     1       2.265   5.819  19.689  0.00  0.00    +0.000 A 
ATOM     22  C   UNL     1       1.472   5.197  20.761  0.00  0.00    +0.000 C 
ATOM     23  C   UNL     1       2.346   3.938  21.092  0.00  0.00    +0.000 C 
ATOM     24  C   UNL     1       3.232   3.651  19.832  0.00  0.00    +0.000 C 
BRANCH  19  25
ATOM     25  C   UNL     1       5.065   5.168  17.554  0.00  0.00    +0.000 A 
ATOM     26  C   UNL     1       4.935   4.786  16.216  0.00  0.00    +0.000 A 
ATOM     27  C   UNL     1       6.073   4.428  15.484  0.00  0.00    +0.000 A 
ATOM     28  C   UNL     1       7.328   4.408  16.096  0.00  0.00    +0.000 A 
ATOM     29  C   UNL     1       7.453   4.738  17.443  0.00  0.00    +0.000 A 
ATOM     30  C   UNL     1       6.326   5.124  18.169  0.00  0.00    +0.000 A 
ENDBRANCH  19  25
ENDBRANCH   2  17
TORSDOF 4
ENDMDL
MODEL 4
REMARK VINA RESULT:      -8.7      5.242      8.537
REMARK  Name = 
REMARK  4 active torsions:
REMARK  status: ('A' for Active; 'I' for Inactive)
REMARK    1  A    between atoms: C_2  and  C_15
REMARK    2  A    between atoms: N_3  and  C_4
REMARK    3  A    between atoms: C_6  and  C_7
REMARK    4  A    between atoms: N_17  and  C_18
REMARK                            x       y       z     vdW  Elec       q    Type
REMARK                         _______ _______ _______ _____ _____    ______ ____
ROOT
ATOM      1  O   UNL     1       1.374   8.594  20.460  0.00  0.00    +0.000 OA
ATOM      2  C   UNL     1       1.675   8.334  19.296  0.00  0.00    +0.000 C 
ATOM      3  N   UNL     1       1.238   9.061  18.203  0.00  0.00    +0.000 N 
ATOM      4  H   UNL     1       1.377   8.627  17.291  0.00  0.00    +0.000 HD
ENDROOT
BRANCH   3   5
ATOM      5  C   UNL     1       0.419  10.176  18.254  0.00  0.00    +0.000 A 
ATOM      6  C   UNL     1      -0.923  10.156  18.164  0.00  0.00    +0.000 A 
ATOM      7  C   UNL     1      -1.729  11.366  18.158  0.00  0.00    +0.000 A 
ATOM      8  C   UNL     1      -1.104  12.553  18.249  0.00  0.00    +0.000 A 
ATOM      9  N   UNL     1       0.261  12.618  18.363  0.00  0.00    +0.000 N 
ATOM     10  C   UNL     1       1.091  11.518  18.399  0.00  0.00    +0.000 A 
ATOM     11  O   UNL     1       2.309  11.618  18.510  0.00  0.00    +0.000 OA
ATOM     12  H   UNL     1       0.722  13.519  18.424  0.00  0.00    +0.000 HD
BRANCH   7  13
ATOM     13  C   UNL     1      -3.226  11.252  18.046  0.00  0.00    +0.000 C 
ATOM     14  F   UNL     1      -3.894  11.831  19.080  0.00  0.00    +0.000 F 
ATOM     15  F   UNL     1      -3.686  11.845  16.913  0.00  0.00    +0.000 F 
ATOM     16  F   UNL     1      -3.626   9.955  17.994  0.00  0.00    +0.000 F 
ENDBRANCH   7  13
ENDBRANCH   3   5
BRANCH   2  17
ATOM     17  C   UNL     1       2.481   7.144  18.983  0.00  0.00    +0.000 A 
ATOM     18  N   UNL     1       3.510   7.110  18.097  0.00  0.00    +0.000 NA
ATOM     19  N   UNL     1       3.993   5.816  18.153  0.00  0.00    +0.000 N 
ATOM     20  C   UNL     1       3.271   5.085  19.049  0.00  0.00    +0.000 A 
ATOM     21  C   UNL     1       2.330   5.896  19.597  0.00  0.00    +0.000 A 
ATOM     22  C   UNL     1       1.573   5.229  20.669  0.00  0.00    +0.000 C 
ATOM     23  C   UNL     1       2.497   3.999  20.970  0.00  0.00    +0.000 C 
ATOM     24  C   UNL     1       3.378   3.764  19.695  0.00  0.00    +0.000 C 
BRANCH  19  25
ATOM     25  C   UNL     1       5.127   5.383  17.421  0.00  0.00    +0.000 A 
ATOM     26  C   UNL     1       6.357   5.223  18.066  0.00  0.00    +0.000 A 
ATOM     27  C   UNL     1       7.438   4.675  17.367  0.00  0.00    +0.000 A 
ATOM     28  C   UNL     1       7.307   4.332  16.020  0.00  0.00    +0.000 A 
ATOM     29  C   UNL     1       6.099   4.539  15.361  0.00  0.00    +0.000 A 
ATOM     30  C   UNL     1       5.009   5.057  16.061  0.00  0.00    +0.000 A 
ENDBRANCH  19  25
ENDBRANCH   2  17
TORSDOF 4
ENDMDL
MODEL 5
REMARK VINA RESULT:      -8.3      4.986      8.466
REMARK  Name = 
REMARK  4 active torsions:
REMARK  status: ('A' for Active; 'I' for Inactive)
REMARK    1  A    between atoms: C_2  and  C_15
REMARK    2  A    between atoms: N_3  and  C_4
REMARK    3  A    between atoms: C_6  and  C_7
REMARK    4  A    between atoms: N_17  and  C_18
REMARK                            x       y       z     vdW  Elec       q    Type
REMARK                         _______ _______ _______ _____ _____    ______ ____
ROOT
ATOM      1  O   UNL     1       0.558   6.823  21.159  0.00  0.00    +0.000 OA
ATOM      2  C   UNL     1       1.465   7.085  20.370  0.00  0.00    +0.000 C 
ATOM      3  N   UNL     1       1.664   8.333  19.808  0.00  0.00    +0.000 N 
ATOM      4  H   UNL     1       2.306   8.371  19.017  0.00  0.00    +0.000 HD
ENDROOT
BRANCH   3   5
ATOM      5  C   UNL     1       0.892   9.456  20.049  0.00  0.00    +0.000 A 
ATOM      6  C   UNL     1       0.078  10.044  19.154  0.00  0.00    +0.000 A 
ATOM      7  C   UNL     1      -0.660  11.263  19.443  0.00  0.00    +0.000 A 
ATOM      8  C   UNL     1      -0.523  11.822  20.658  0.00  0.00    +0.000 A 
ATOM      9  N   UNL     1       0.281  11.244  21.608  0.00  0.00    +0.000 N 
ATOM     10  C   UNL     1       0.993  10.080  21.418  0.00  0.00    +0.000 A 
ATOM     11  O   UNL     1       1.696   9.590  22.297  0.00  0.00    +0.000 OA
ATOM     12  H   UNL     1       0.382  11.678  22.519  0.00  0.00    +0.000 HD
BRANCH   7  13
ATOM     13  C   UNL     1      -1.543  11.859  18.379  0.00  0.00    +0.000 C 
ATOM     14  F   UNL     1      -1.031  12.988  17.819  0.00  0.00    +0.000 F 
ATOM     15  F   UNL     1      -1.750  10.986  17.359  0.00  0.00    +0.000 F 
ATOM     16  F   UNL     1      -2.768  12.181  18.869  0.00  0.00    +0.000 F 
ENDBRANCH   7  13
ENDBRANCH   3   5
BRANCH   2  17
ATOM     17  C   UNL     1       2.374   6.028  19.904  0.00  0.00    +0.000 A 
ATOM     18  N   UNL     1       3.396   6.209  19.028  0.00  0.00    +0.000 NA
ATOM     19  N   UNL     1       3.995   4.968  18.910  0.00  0.00    +0.000 N 
ATOM     20  C   UNL     1       3.348   4.059  19.692  0.00  0.00    +0.000 A 
ATOM     21  C   UNL     1       2.340   4.699  20.340  0.00  0.00    +0.000 A 
ATOM     22  C   UNL     1       1.654   3.825  21.304  0.00  0.00    +0.000 C 
ATOM     23  C   UNL     1       2.687   2.654  21.441  0.00  0.00    +0.000 C 
ATOM     24  C   UNL     1       3.578   2.677  20.152  0.00  0.00    +0.000 C 
BRANCH  19  25
ATOM     25  C   UNL     1       5.160   4.744  18.133  0.00  0.00    +0.000 A 
ATOM     26  C   UNL     1       5.046   4.285  16.817  0.00  0.00    +0.000 A 
ATOM     27  C   UNL     1       6.190   4.188  16.017  0.00  0.00    +0.000 A 
ATOM     28  C   UNL     1       7.446   4.503  16.539  0.00  0.00    +0.000 A 
ATOM     29  C   UNL     1       7.568   4.910  17.865  0.00  0.00    +0.000 A 
ATOM     30  C   UNL     1       6.428   5.037  18.659  0.00  0.00    +0.000 A 
ENDBRANCH  19  25
ENDBRANCH   2  17
TORSDOF 4
ENDMDL
MODEL 6
REMARK VINA RESULT:      -8.2      5.702      9.017
REMARK  Name = 
REMARK  4 active torsions:
REMARK  status: ('A' for Active; 'I' for Inactive)
REMARK    1  A    between atoms: C_2  and  C_15
REMARK    2  A    between atoms: N_3  and  C_4
REMARK    3  A    between atoms: C_6  and  C_7
REMARK    4  A    between atoms: N_17  and  C_18
REMARK                            x       y       z     vdW  Elec       q    Type
REMARK                         _______ _______ _______ _____ _____    ______ ____
ROOT
ATOM      1  O   UNL     1       1.492   7.612  21.462  0.00  0.00    +0.000 OA
ATOM      2  C   UNL     1       1.830   7.678  20.282  0.00  0.00    +0.000 C 
ATOM      3  N   UNL     1       1.619   8.783  19.478  0.00  0.00    +0.000 N 
ATOM      4  H   UNL     1       1.748   8.641  18.477  0.00  0.00    +0.000 HD
ENDROOT
BRANCH   3   5
ATOM      5  C   UNL     1       1.014   9.963  19.875  0.00  0.00    +0.000 A 
ATOM      6  C   UNL     1       0.225  10.104  20.956  0.00  0.00    +0.000 A 
ATOM      7  C   UNL     1      -0.438  11.354  21.288  0.00  0.00    +0.000 A 
ATOM      8  C   UNL     1      -0.251  12.413  20.482  0.00  0.00    +0.000 A 
ATOM      9  N   UNL     1       0.562  12.319  19.381  0.00  0.00    +0.000 N 
ATOM     10  C   UNL     1       1.242  11.179  19.012  0.00  0.00    +0.000 A 
ATOM     11  O   UNL     1       1.966  11.137  18.022  0.00  0.00    +0.000 OA
ATOM     12  H   UNL     1       0.691  13.123  18.775  0.00  0.00    +0.000 HD
BRANCH   7  13
ATOM     13  C   UNL     1      -1.311  11.421  22.514  0.00  0.00    +0.000 C 
ATOM     14  F   UNL     1      -1.314  10.272  23.241  0.00  0.00    +0.000 F 
ATOM     15  F   UNL     1      -0.909  12.408  23.357  0.00  0.00    +0.000 F 
ATOM     16  F   UNL     1      -2.603  11.688  22.192  0.00  0.00    +0.000 F 
ENDBRANCH   7  13
ENDBRANCH   3   5
BRANCH   2  17
ATOM     17  C   UNL     1       2.430   6.514  19.613  0.00  0.00    +0.000 A 
ATOM     18  N   UNL     1       3.520   6.555  18.805  0.00  0.00    +0.000 NA
ATOM     19  N   UNL     1       3.746   5.242  18.435  0.00  0.00    +0.000 N 
ATOM     20  C   UNL     1       2.813   4.428  19.003  0.00  0.00    +0.000 A 
ATOM     21  C   UNL     1       1.987   5.195  19.761  0.00  0.00    +0.000 A 
ATOM     22  C   UNL     1       1.013   4.390  20.515  0.00  0.00    +0.000 C 
ATOM     23  C   UNL     1       1.655   2.964  20.412  0.00  0.00    +0.000 C 
ATOM     24  C   UNL     1       2.605   2.977  19.166  0.00  0.00    +0.000 C 
BRANCH  19  25
ATOM     25  C   UNL     1       4.850   4.843  17.639  0.00  0.00    +0.000 A 
ATOM     26  C   UNL     1       4.641   4.358  16.345  0.00  0.00    +0.000 A 
ATOM     27  C   UNL     1       5.740   4.087  15.522  0.00  0.00    +0.000 A 
ATOM     28  C   UNL     1       7.040   4.254  16.002  0.00  0.00    +0.000 A 
ATOM     29  C   UNL     1       7.251   4.686  17.308  0.00  0.00    +0.000 A 
ATOM     30  C   UNL     1       6.160   4.987  18.124  0.00  0.00    +0.000 A 
ENDBRANCH  19  25
ENDBRANCH   2  17
TORSDOF 4
ENDMDL
MODEL 7
REMARK VINA RESULT:      -8.2      5.169      8.622
REMARK  Name = 
REMARK  4 active torsions:
REMARK  status: ('A' for Active; 'I' for Inactive)
REMARK    1  A    between atoms: C_2  and  C_15
REMARK    2  A    between atoms: N_3  and  C_4
REMARK    3  A    between atoms: C_6  and  C_7
REMARK    4  A    between atoms: N_17  and  C_18
REMARK                            x       y       z     vdW  Elec       q    Type
REMARK                         _______ _______ _______ _____ _____    ______ ____
ROOT
ATOM      1  O   UNL     1       0.533   6.817  21.257  0.00  0.00    +0.000 OA
ATOM      2  C   UNL     1       1.398   7.133  20.442  0.00  0.00    +0.000 C 
ATOM      3  N   UNL     1       1.524   8.399  19.900  0.00  0.00    +0.000 N 
ATOM      4  H   UNL     1       2.134   8.481  19.088  0.00  0.00    +0.000 HD
ENDROOT
BRANCH   3   5
ATOM      5  C   UNL     1       0.716   9.485  20.194  0.00  0.00    +0.000 A 
ATOM      6  C   UNL     1      -0.210  10.007  19.370  0.00  0.00    +0.000 A 
ATOM      7  C   UNL     1      -0.985  11.190  19.707  0.00  0.00    +0.000 A 
ATOM      8  C   UNL     1      -0.767  11.783  20.893  0.00  0.00    +0.000 A 
ATOM      9  N   UNL     1       0.153  11.271  21.772  0.00  0.00    +0.000 N 
ATOM     10  C   UNL     1       0.909  10.143  21.537  0.00  0.00    +0.000 A 
ATOM     11  O   UNL     1       1.718   9.712  22.353  0.00  0.00    +0.000 OA
ATOM     12  H   UNL     1       0.314  11.730  22.662  0.00  0.00    +0.000 HD
BRANCH   7  13
ATOM     13  C   UNL     1      -1.996  11.713  18.720  0.00  0.00    +0.000 C 
ATOM     14  F   UNL     1      -2.982  12.454  19.295  0.00  0.00    +0.000 F 
ATOM     15  F   UNL     1      -1.413  12.508  17.786  0.00  0.00    +0.000 F 
ATOM     16  F   UNL     1      -2.604  10.703  18.045  0.00  0.00    +0.000 F 
ENDBRANCH   7  13
ENDBRANCH   3   5
BRANCH   2  17
ATOM     17  C   UNL     1       2.332   6.125  19.919  0.00  0.00    +0.000 A 
ATOM     18  N   UNL     1       3.333   6.373  19.036  0.00  0.00    +0.000 NA
ATOM     19  N   UNL     1       3.969   5.158  18.859  0.00  0.00    +0.000 N 
ATOM     20  C   UNL     1       3.364   4.199  19.615  0.00  0.00    +0.000 A 
ATOM     21  C   UNL     1       2.348   4.780  20.303  0.00  0.00    +0.000 A 
ATOM     22  C   UNL     1       1.705   3.847  21.243  0.00  0.00    +0.000 C 
ATOM     23  C   UNL     1       2.777   2.706  21.316  0.00  0.00    +0.000 C 
ATOM     24  C   UNL     1       3.646   2.808  20.016  0.00  0.00    +0.000 C 
BRANCH  19  25
ATOM     25  C   UNL     1       5.127   5.003  18.055  0.00  0.00    +0.000 A 
ATOM     26  C   UNL     1       6.396   5.149  18.622  0.00  0.00    +0.000 A 
ATOM     27  C   UNL     1       7.533   4.870  17.855  0.00  0.00    +0.000 A 
ATOM     28  C   UNL     1       7.406   4.492  16.517  0.00  0.00    +0.000 A 
ATOM     29  C   UNL     1       6.145   4.396  15.936  0.00  0.00    +0.000 A 
ATOM     30  C   UNL     1       5.007   4.644  16.704  0.00  0.00    +0.000 A 
ENDBRANCH  19  25
ENDBRANCH   2  17
TORSDOF 4
ENDMDL
MODEL 8
REMARK VINA RESULT:      -8.2      5.324      8.775
REMARK  Name = 
REMARK  4 active torsions:
REMARK  status: ('A' for Active; 'I' for Inactive)
REMARK    1  A    between atoms: C_2  and  C_15
REMARK    2  A    between atoms: N_3  and  C_4
REMARK    3  A    between atoms: C_6  and  C_7
REMARK    4  A    between atoms: N_17  and  C_18
REMARK                            x       y       z     vdW  Elec       q    Type
REMARK                         _______ _______ _______ _____ _____    ______ ____
ROOT
ATOM      1  O   UNL     1       1.637   6.178  20.707  0.00  0.00    +0.000 OA
ATOM      2  C   UNL     1       2.122   6.567  19.646  0.00  0.00    +0.000 C 
ATOM      3  N   UNL     1       2.041   7.871  19.192  0.00  0.00    +0.000 N 
ATOM      4  H   UNL     1       2.290   8.022  18.215  0.00  0.00    +0.000 HD
ENDROOT
BRANCH   3   5
ATOM      5  C   UNL     1       1.421   8.917  19.855  0.00  0.00    +0.000 A 
ATOM      6  C   UNL     1       0.877   8.843  21.083  0.00  0.00    +0.000 A 
ATOM      7  C   UNL     1       0.181   9.958  21.703  0.00  0.00    +0.000 A 
ATOM      8  C   UNL     1       0.080  11.111  21.020  0.00  0.00    +0.000 A 
ATOM      9  N   UNL     1       0.638  11.236  19.773  0.00  0.00    +0.000 N 
ATOM     10  C   UNL     1       1.333  10.236  19.129  0.00  0.00    +0.000 A 
ATOM     11  O   UNL     1       1.825  10.390  18.015  0.00  0.00    +0.000 OA
ATOM     12  H   UNL     1       0.551  12.109  19.264  0.00  0.00    +0.000 HD
BRANCH   7  13
ATOM     13  C   UNL     1      -0.406   9.784  23.079  0.00  0.00    +0.000 C 
ATOM     14  F   UNL     1       0.524   9.524  24.038  0.00  0.00    +0.000 F 
ATOM     15  F   UNL     1      -1.069  10.900  23.481  0.00  0.00    +0.000 F 
ATOM     16  F   UNL     1      -1.305   8.766  23.114  0.00  0.00    +0.000 F 
ENDBRANCH   7  13
ENDBRANCH   3   5
BRANCH   2  17
ATOM     17  C   UNL     1       2.770   5.617  18.731  0.00  0.00    +0.000 A 
ATOM     18  N   UNL     1       3.755   5.930  17.850  0.00  0.00    +0.000 NA
ATOM     19  N   UNL     1       4.083   4.737  17.234  0.00  0.00    +0.000 N 
ATOM     20  C   UNL     1       3.312   3.728  17.728  0.00  0.00    +0.000 A 
ATOM     21  C   UNL     1       2.494   4.246  18.680  0.00  0.00    +0.000 A 
ATOM     22  C   UNL     1       1.703   3.209  19.360  0.00  0.00    +0.000 C 
ATOM     23  C   UNL     1       2.484   1.914  18.950  0.00  0.00    +0.000 C 
ATOM     24  C   UNL     1       3.285   2.255  17.647  0.00  0.00    +0.000 C 
BRANCH  19  25
ATOM     25  C   UNL     1       5.132   4.620  16.286  0.00  0.00    +0.000 A 
ATOM     26  C   UNL     1       4.856   4.177  14.990  0.00  0.00    +0.000 A 
ATOM     27  C   UNL     1       5.871   4.185  14.026  0.00  0.00    +0.000 A 
ATOM     28  C   UNL     1       7.163   4.590  14.365  0.00  0.00    +0.000 A 
ATOM     29  C   UNL     1       7.452   4.982  15.668  0.00  0.00    +0.000 A 
ATOM     30  C   UNL     1       6.438   5.004  16.626  0.00  0.00    +0.000 A 
ENDBRANCH  19  25
ENDBRANCH   2  17
TORSDOF 4
ENDMDL
MODEL 9
REMARK VINA RESULT:      -8.2      1.141      1.559
REMARK  Name = 
REMARK  4 active torsions:
REMARK  status: ('A' for Active; 'I' for Inactive)
REMARK    1  A    between atoms: C_2  and  C_15
REMARK    2  A    between atoms: N_3  and  C_4
REMARK    3  A    between atoms: C_6  and  C_7
REMARK    4  A    between atoms: N_17  and  C_18
REMARK                            x       y       z     vdW  Elec       q    Type
REMARK                         _______ _______ _______ _____ _____    ______ ____
ROOT
ATOM      1  O   UNL     1       4.154   7.648  16.003  0.00  0.00    +0.000 OA
ATOM      2  C   UNL     1       4.137   6.743  16.836  0.00  0.00    +0.000 C 
ATOM      3  N   UNL     1       4.804   5.541  16.685  0.00  0.00    +0.000 N 
ATOM      4  H   UNL     1       4.544   4.799  17.334  0.00  0.00    +0.000 HD
ENDROOT
BRANCH   3   5
ATOM      5  C   UNL     1       5.583   5.184  15.598  0.00  0.00    +0.000 A 
ATOM      6  C   UNL     1       5.144   4.516  14.516  0.00  0.00    +0.000 A 
ATOM      7  C   UNL     1       6.023   4.110  13.431  0.00  0.00    +0.000 A 
ATOM      8  C   UNL     1       7.329   4.418  13.515  0.00  0.00    +0.000 A 
ATOM      9  N   UNL     1       7.815   5.116  14.591  0.00  0.00    +0.000 N 
ATOM     10  C   UNL     1       7.043   5.556  15.645  0.00  0.00    +0.000 A 
ATOM     11  O   UNL     1       7.516   6.185  16.588  0.00  0.00    +0.000 OA
ATOM     12  H   UNL     1       8.803   5.338  14.648  0.00  0.00    +0.000 HD
BRANCH   7  13
ATOM     13  C   UNL     1       5.448   3.358  12.260  0.00  0.00    +0.000 C 
ATOM     14  F   UNL     1       5.842   2.057  12.205  0.00  0.00    +0.000 F 
ATOM     15  F   UNL     1       4.090   3.345  12.296  0.00  0.00    +0.000 F 
ATOM     16  F   UNL     1       5.800   3.928  11.079  0.00  0.00    +0.000 F 
ENDBRANCH   7  13
ENDBRANCH   3   5
BRANCH   2  17
ATOM     17  C   UNL     1       3.313   6.862  18.048  0.00  0.00    +0.000 A 
ATOM     18  N   UNL     1       2.788   8.021  18.524  0.00  0.00    +0.000 NA
ATOM     19  N   UNL     1       2.066   7.658  19.646  0.00  0.00    +0.000 N 
ATOM     20  C   UNL     1       2.157   6.313  19.845  0.00  0.00    +0.000 A 
ATOM     21  C   UNL     1       2.916   5.786  18.850  0.00  0.00    +0.000 A 
ATOM     22  C   UNL     1       2.974   4.317  18.909  0.00  0.00    +0.000 C 
ATOM     23  C   UNL     1       1.774   4.006  19.868  0.00  0.00    +0.000 C 
ATOM     24  C   UNL     1       1.503   5.305  20.701  0.00  0.00    +0.000 C 
BRANCH  19  25
ATOM     25  C   UNL     1       1.297   8.579  20.401  0.00  0.00    +0.000 A 
ATOM     26  C   UNL     1       0.531   9.550  19.749  0.00  0.00    +0.000 A 
ATOM     27  C   UNL     1      -0.322  10.372  20.493  0.00  0.00    +0.000 A 
ATOM     28  C   UNL     1      -0.377  10.258  21.884  0.00  0.00    +0.000 A 
ATOM     29  C   UNL     1       0.425   9.328  22.539  0.00  0.00    +0.000 A 
ATOM     30  C   UNL     1       1.255   8.485  21.800  0.00  0.00    +0.000 A 
ENDBRANCH  19  25
ENDBRANCH   2  17
TORSDOF 4
ENDMDL
