MODEL 1
REMARK VINA RESULT:      -8.2      0.000      0.000
REMARK  Name = 
REMARK  7 active torsions:
REMARK  status: ('A' for Active; 'I' for Inactive)
REMARK    1  A    between atoms: C_1  and  C_2
REMARK    2  A    between atoms: C_2  and  C_3
REMARK    3  A    between atoms: C_3  and  C_4
REMARK    4  A    between atoms: C_4  and  C_5
REMARK    5  A    between atoms: N_14  and  C_15
REMARK    6  A    between atoms: C_15  and  C_16
REMARK    7  A    between atoms: C_23  and  C_24
REMARK                            x       y       z     vdW  Elec       q    Type
REMARK                         _______ _______ _______ _____ _____    ______ ____
ROOT
ATOM      1  C   UNL     1      -0.691  10.693  19.174  0.00  0.00    +0.000 C 
ATOM      2  N   UNL     1       0.347  10.846  18.163  0.00  0.00    +0.000 N 
ATOM      3  C   UNL     1       1.354   9.915  18.277  0.00  0.00    +0.000 C 
ATOM      4  O   UNL     1       2.344   9.923  17.563  0.00  0.00    +0.000 OA
ATOM      5  N   UNL     1       1.076   9.076  19.306  0.00  0.00    +0.000 N 
ATOM      6  C   UNL     1      -0.033   9.533  19.976  0.00  0.00    +0.000 C 
ATOM      7  O   UNL     1      -0.430   9.078  21.049  0.00  0.00    +0.000 OA
ATOM      8  H   UNL     1       0.364  11.554  17.463  0.00  0.00    +0.000 HD
ENDROOT
BRANCH   1   9
ATOM      9  C   UNL     1      -0.879  11.954  20.032  0.00  0.00    +0.000 A 
ATOM     10  C   UNL     1      -2.136  12.593  20.075  0.00  0.00    +0.000 A 
ATOM     11  C   UNL     1      -2.366  13.708  20.888  0.00  0.00    +0.000 A 
ATOM     12  C   UNL     1      -1.346  14.220  21.679  0.00  0.00    +0.000 A 
ATOM     13  C   UNL     1      -0.087  13.627  21.639  0.00  0.00    +0.000 A 
ATOM     14  C   UNL     1       0.146  12.511  20.823  0.00  0.00    +0.000 A 
ENDBRANCH   1   9
BRANCH   1  15
ATOM     15  C   UNL     1      -2.004  10.233  18.497  0.00  0.00    +0.000 C 
BRANCH  15  17
ATOM     16  C   UNL     1      -2.722  10.889  16.155  0.00  0.00    +0.000 C 
ATOM     17  C   UNL     1      -1.876   9.943  16.992  0.00  0.00    +0.000 C 
ENDBRANCH  15  17
ENDBRANCH   1  15
BRANCH   5  18
ATOM     18  C   UNL     1       2.107   8.217  19.881  0.00  0.00    +0.000 C 
BRANCH  18  19
ATOM     19  C   UNL     1       2.076   6.764  19.451  0.00  0.00    +0.000 A 
ATOM     20  C   UNL     1       1.767   5.830  20.370  0.00  0.00    +0.000 A 
ATOM     21  C   UNL     1       1.626   4.399  20.075  0.00  0.00    +0.000 A 
ATOM     22  O   UNL     1       1.049   3.654  20.856  0.00  0.00    +0.000 OA
ATOM     23  O   UNL     1       2.140   3.953  18.882  0.00  0.00    +0.000 OA
ATOM     24  C   UNL     1       2.992   4.837  18.215  0.00  0.00    +0.000 A 
ATOM     25  C   UNL     1       4.115   4.250  17.640  0.00  0.00    +0.000 A 
ATOM     26  C   UNL     1       5.102   5.068  17.107  0.00  0.00    +0.000 A 
ATOM     27  C   UNL     1       6.454   4.495  16.802  0.00  0.00    +0.000 C 
ATOM     28  C   UNL     1       4.822   6.431  16.932  0.00  0.00    +0.000 A 
ATOM     29  C   UNL     1       3.680   7.011  17.511  0.00  0.00    +0.000 A 
ATOM     30  C   UNL     1       2.825   6.229  18.288  0.00  0.00    +0.000 A 
ENDBRANCH  18  19
ENDBRANCH   5  18
TORSDOF 5
ENDMDL
MODEL 2
REMARK VINA RESULT:      -7.9      1.871      8.150
REMARK  Name = 
REMARK  7 active torsions:
REMARK  status: ('A' for Active; 'I' for Inactive)
REMARK    1  A    between atoms: C_1  and  C_2
REMARK    2  A    between atoms: C_2  and  C_3
REMARK    3  A    between atoms: C_3  and  C_4
REMARK    4  A    between atoms: C_4  and  C_5
REMARK    5  A    between atoms: N_14  and  C_15
REMARK    6  A    between atoms: C_15  and  C_16
REMARK    7  A    between atoms: C_23  and  C_24
REMARK                            x       y       z     vdW  Elec       q    Type
REMARK                         _______ _______ _______ _____ _____    ______ ____
ROOT
ATOM      1  C   UNL     1       2.901   6.311  18.567  0.00  0.00    +0.000 C 
ATOM      2  N   UNL     1       2.502   6.379  19.967  0.00  0.00    +0.000 N 
ATOM      3  C   UNL     1       1.853   7.548  20.289  0.00  0.00    +0.000 C 
ATOM      4  O   UNL     1       1.503   7.818  21.427  0.00  0.00    +0.000 OA
ATOM      5  N   UNL     1       1.736   8.317  19.177  0.00  0.00    +0.000 N 
ATOM      6  C   UNL     1       2.438   7.737  18.149  0.00  0.00    +0.000 C 
ATOM      7  O   UNL     1       2.654   8.279  17.065  0.00  0.00    +0.000 OA
ATOM      8  H   UNL     1       2.686   5.676  20.649  0.00  0.00    +0.000 HD
ENDROOT
BRANCH   1   9
ATOM      9  C   UNL     1       4.415   6.120  18.385  0.00  0.00    +0.000 A 
ATOM     10  C   UNL     1       5.060   6.661  17.254  0.00  0.00    +0.000 A 
ATOM     11  C   UNL     1       6.444   6.562  17.079  0.00  0.00    +0.000 A 
ATOM     12  C   UNL     1       7.224   5.913  18.028  0.00  0.00    +0.000 A 
ATOM     13  C   UNL     1       6.613   5.346  19.143  0.00  0.00    +0.000 A 
ATOM     14  C   UNL     1       5.225   5.443  19.318  0.00  0.00    +0.000 A 
ENDBRANCH   1   9
BRANCH   1  15
ATOM     15  C   UNL     1       2.072   5.219  17.850  0.00  0.00    +0.000 C 
BRANCH  15  17
ATOM     16  C   UNL     1       2.209   2.719  18.248  0.00  0.00    +0.000 C 
ATOM     17  C   UNL     1       1.655   4.042  18.748  0.00  0.00    +0.000 C 
ENDBRANCH  15  17
ENDBRANCH   1  15
BRANCH   5  18
ATOM     18  C   UNL     1       1.410   9.737  19.271  0.00  0.00    +0.000 C 
BRANCH  18  19
ATOM     19  C   UNL     1      -0.046  10.099  19.054  0.00  0.00    +0.000 A 
ATOM     20  C   UNL     1      -0.536  10.059  17.800  0.00  0.00    +0.000 A 
ATOM     21  C   UNL     1      -1.940  10.309  17.456  0.00  0.00    +0.000 A 
ATOM     22  O   UNL     1      -2.391   9.958  16.373  0.00  0.00    +0.000 OA
ATOM     23  O   UNL     1      -2.718  10.919  18.410  0.00  0.00    +0.000 OA
ATOM     24  C   UNL     1      -2.032  11.497  19.480  0.00  0.00    +0.000 A 
ATOM     25  C   UNL     1      -2.518  12.735  19.890  0.00  0.00    +0.000 A 
ATOM     26  C   UNL     1      -1.798  13.461  20.829  0.00  0.00    +0.000 A 
ATOM     27  C   UNL     1      -2.100  14.916  21.030  0.00  0.00    +0.000 C 
ATOM     28  C   UNL     1      -0.758  12.822  21.519  0.00  0.00    +0.000 A 
ATOM     29  C   UNL     1      -0.281  11.568  21.099  0.00  0.00    +0.000 A 
ATOM     30  C   UNL     1      -0.831  10.960  19.971  0.00  0.00    +0.000 A 
ENDBRANCH  18  19
ENDBRANCH   5  18
TORSDOF 5
ENDMDL
MODEL 3
REMARK VINA RESULT:      -7.9      1.029      1.325
REMARK  Name = 
REMARK  7 active torsions:
REMARK  status: ('A' for Active; 'I' for Inactive)
REMARK    1  A    between atoms: C_1  and  C_2
REMARK    2  A    between atoms: C_2  and  C_3
REMARK    3  A    between atoms: C_3  and  C_4
REMARK    4  A    between atoms: C_4  and  C_5
REMARK    5  A    between atoms: N_14  and  C_15
REMARK    6  A    between atoms: C_15  and  C_16
REMARK    7  A    between atoms: C_23  and  C_24
REMARK                            x       y       z     vdW  Elec       q    Type
REMARK                         _______ _______ _______ _____ _____    ______ ____
ROOT
ATOM      1  C   UNL     1      -0.104  10.461  19.498  0.00  0.00    +0.000 C 
ATOM      2  N   UNL     1       0.752  10.546  18.321  0.00  0.00    +0.000 N 
ATOM      3  C   UNL     1       1.651   9.510  18.230  0.00  0.00    +0.000 C 
ATOM      4  O   UNL     1       2.496   9.442  17.351  0.00  0.00    +0.000 OA
ATOM      5  N   UNL     1       1.465   8.660  19.272  0.00  0.00    +0.000 N 
ATOM      6  C   UNL     1       0.550   9.204  20.141  0.00  0.00    +0.000 C 
ATOM      7  O   UNL     1       0.298   8.748  21.256  0.00  0.00    +0.000 OA
ATOM      8  H   UNL     1       0.725  11.278  17.646  0.00  0.00    +0.000 HD
ENDROOT
BRANCH   1   9
ATOM      9  C   UNL     1       0.005  11.697  20.405  0.00  0.00    +0.000 A 
ATOM     10  C   UNL     1       1.100  12.576  20.265  0.00  0.00    +0.000 A 
ATOM     11  C   UNL     1       1.208  13.742  21.030  0.00  0.00    +0.000 A 
ATOM     12  C   UNL     1       0.227  14.063  21.960  0.00  0.00    +0.000 A 
ATOM     13  C   UNL     1      -0.852  13.202  22.139  0.00  0.00    +0.000 A 
ATOM     14  C   UNL     1      -0.960  12.031  21.375  0.00  0.00    +0.000 A 
ENDBRANCH   1   9
BRANCH   1  15
ATOM     15  C   UNL     1      -1.558  10.173  19.056  0.00  0.00    +0.000 C 
BRANCH  15  17
ATOM     16  C   UNL     1      -3.467  11.570  18.142  0.00  0.00    +0.000 C 
ATOM     17  C   UNL     1      -2.059  11.055  17.899  0.00  0.00    +0.000 C 
ENDBRANCH  15  17
ENDBRANCH   1  15
BRANCH   5  18
ATOM     18  C   UNL     1       2.477   7.673  19.633  0.00  0.00    +0.000 C 
BRANCH  18  19
ATOM     19  C   UNL     1       2.396   6.344  18.907  0.00  0.00    +0.000 A 
ATOM     20  C   UNL     1       1.925   5.276  19.577  0.00  0.00    +0.000 A 
ATOM     21  C   UNL     1       1.721   3.952  18.978  0.00  0.00    +0.000 A 
ATOM     22  O   UNL     1       1.012   3.119  19.528  0.00  0.00    +0.000 OA
ATOM     23  O   UNL     1       2.333   3.711  17.772  0.00  0.00    +0.000 OA
ATOM     24  C   UNL     1       3.311   4.632  17.388  0.00  0.00    +0.000 A 
ATOM     25  C   UNL     1       4.448   4.074  16.811  0.00  0.00    +0.000 A 
ATOM     26  C   UNL     1       5.541   4.891  16.557  0.00  0.00    +0.000 A 
ATOM     27  C   UNL     1       6.877   4.274  16.268  0.00  0.00    +0.000 C 
ATOM     28  C   UNL     1       5.375   6.281  16.645  0.00  0.00    +0.000 A 
ATOM     29  C   UNL     1       4.218   6.832  17.222  0.00  0.00    +0.000 A 
ATOM     30  C   UNL     1       3.232   5.990  17.734  0.00  0.00    +0.000 A 
ENDBRANCH  18  19
ENDBRANCH   5  18
TORSDOF 5
ENDMDL
MODEL 4
REMARK VINA RESULT:      -7.8      3.310      7.825
REMARK  Name = 
REMARK  7 active torsions:
REMARK  status: ('A' for Active; 'I' for Inactive)
REMARK    1  A    between atoms: C_1  and  C_2
REMARK    2  A    between atoms: C_2  and  C_3
REMARK    3  A    between atoms: C_3  and  C_4
REMARK    4  A    between atoms: C_4  and  C_5
REMARK    5  A    between atoms: N_14  and  C_15
REMARK    6  A    between atoms: C_15  and  C_16
REMARK    7  A    between atoms: C_23  and  C_24
REMARK                            x       y       z     vdW  Elec       q    Type
REMARK                         _______ _______ _______ _____ _____    ______ ____
ROOT
ATOM      1  C   UNL     1       6.189   5.047  16.419  0.00  0.00    +0.000 C 
ATOM      2  N   UNL     1       6.043   3.716  16.997  0.00  0.00    +0.000 N 
ATOM      3  C   UNL     1       4.733   3.369  17.231  0.00  0.00    +0.000 C 
ATOM      4  O   UNL     1       4.413   2.323  17.773  0.00  0.00    +0.000 OA
ATOM      5  N   UNL     1       3.921   4.375  16.820  0.00  0.00    +0.000 N 
ATOM      6  C   UNL     1       4.688   5.455  16.454  0.00  0.00    +0.000 C 
ATOM      7  O   UNL     1       4.235   6.570  16.195  0.00  0.00    +0.000 OA
ATOM      8  H   UNL     1       6.796   3.108  17.229  0.00  0.00    +0.000 HD
ENDROOT
BRANCH   1   9
ATOM      9  C   UNL     1       7.060   5.978  17.277  0.00  0.00    +0.000 A 
ATOM     10  C   UNL     1       7.293   7.304  16.857  0.00  0.00    +0.000 A 
ATOM     11  C   UNL     1       8.030   8.203  17.635  0.00  0.00    +0.000 A 
ATOM     12  C   UNL     1       8.562   7.800  18.855  0.00  0.00    +0.000 A 
ATOM     13  C   UNL     1       8.371   6.490  19.283  0.00  0.00    +0.000 A 
ATOM     14  C   UNL     1       7.634   5.587  18.503  0.00  0.00    +0.000 A 
ENDBRANCH   1   9
BRANCH   1  15
ATOM     15  C   UNL     1       6.702   4.921  14.966  0.00  0.00    +0.000 C 
BRANCH  15  17
ATOM     16  C   UNL     1       6.435   3.723  12.747  0.00  0.00    +0.000 C 
ATOM     17  C   UNL     1       5.736   4.203  14.008  0.00  0.00    +0.000 C 
ENDBRANCH  15  17
ENDBRANCH   1  15
BRANCH   5  18
ATOM     18  C   UNL     1       2.527   4.445  17.248  0.00  0.00    +0.000 C 
BRANCH  18  19
ATOM     19  C   UNL     1       2.299   4.660  18.732  0.00  0.00    +0.000 A 
ATOM     20  C   UNL     1       1.576   3.747  19.407  0.00  0.00    +0.000 A 
ATOM     21  C   UNL     1       1.343   3.789  20.855  0.00  0.00    +0.000 A 
ATOM     22  O   UNL     1       0.958   2.794  21.456  0.00  0.00    +0.000 OA
ATOM     23  O   UNL     1       1.605   4.975  21.497  0.00  0.00    +0.000 OA
ATOM     24  C   UNL     1       1.781   6.089  20.673  0.00  0.00    +0.000 A 
ATOM     25  C   UNL     1       1.183   7.259  21.131  0.00  0.00    +0.000 A 
ATOM     26  C   UNL     1       1.158   8.370  20.299  0.00  0.00    +0.000 A 
ATOM     27  C   UNL     1       0.237   9.511  20.614  0.00  0.00    +0.000 C 
ATOM     28  C   UNL     1       1.954   8.362  19.144  0.00  0.00    +0.000 A 
ATOM     29  C   UNL     1       2.559   7.175  18.696  0.00  0.00    +0.000 A 
ATOM     30  C   UNL     1       2.350   5.986  19.394  0.00  0.00    +0.000 A 
ENDBRANCH  18  19
ENDBRANCH   5  18
TORSDOF 5
ENDMDL
MODEL 5
REMARK VINA RESULT:      -7.2      2.944      8.748
REMARK  Name = 
REMARK  7 active torsions:
REMARK  status: ('A' for Active; 'I' for Inactive)
REMARK    1  A    between atoms: C_1  and  C_2
REMARK    2  A    between atoms: C_2  and  C_3
REMARK    3  A    between atoms: C_3  and  C_4
REMARK    4  A    between atoms: C_4  and  C_5
REMARK    5  A    between atoms: N_14  and  C_15
REMARK    6  A    between atoms: C_15  and  C_16
REMARK    7  A    between atoms: C_23  and  C_24
REMARK                            x       y       z     vdW  Elec       q    Type
REMARK                         _______ _______ _______ _____ _____    ______ ____
ROOT
ATOM      1  C   UNL     1       6.314   5.073  15.749  0.00  0.00    +0.000 C 
ATOM      2  N   UNL     1       5.936   6.479  15.805  0.00  0.00    +0.000 N 
ATOM      3  C   UNL     1       4.749   6.694  16.465  0.00  0.00    +0.000 C 
ATOM      4  O   UNL     1       4.234   7.797  16.557  0.00  0.00    +0.000 OA
ATOM      5  N   UNL     1       4.265   5.510  16.917  0.00  0.00    +0.000 N 
ATOM      6  C   UNL     1       5.043   4.488  16.430  0.00  0.00    +0.000 C 
ATOM      7  O   UNL     1       4.761   3.294  16.531  0.00  0.00    +0.000 OA
ATOM      8  H   UNL     1       6.453   7.227  15.399  0.00  0.00    +0.000 HD
ENDROOT
BRANCH   1   9
ATOM      9  C   UNL     1       6.487   4.558  14.311  0.00  0.00    +0.000 A 
ATOM     10  C   UNL     1       5.534   3.673  13.764  0.00  0.00    +0.000 A 
ATOM     11  C   UNL     1       5.621   3.227  12.441  0.00  0.00    +0.000 A 
ATOM     12  C   UNL     1       6.665   3.649  11.627  0.00  0.00    +0.000 A 
ATOM     13  C   UNL     1       7.635   4.501  12.147  0.00  0.00    +0.000 A 
ATOM     14  C   UNL     1       7.550   4.948  13.473  0.00  0.00    +0.000 A 
ENDBRANCH   1   9
BRANCH   1  15
ATOM     15  C   UNL     1       7.573   4.844  16.619  0.00  0.00    +0.000 C 
BRANCH  15  17
ATOM     16  C   UNL     1       7.789   6.137  18.789  0.00  0.00    +0.000 C 
ATOM     17  C   UNL     1       7.310   4.852  18.134  0.00  0.00    +0.000 C 
ENDBRANCH  15  17
ENDBRANCH   1  15
BRANCH   5  18
ATOM     18  C   UNL     1       2.875   5.374  17.343  0.00  0.00    +0.000 C 
BRANCH  18  19
ATOM     19  C   UNL     1       2.614   5.563  18.824  0.00  0.00    +0.000 A 
ATOM     20  C   UNL     1       2.115   4.527  19.525  0.00  0.00    +0.000 A 
ATOM     21  C   UNL     1       1.887   4.547  20.974  0.00  0.00    +0.000 A 
ATOM     22  O   UNL     1       1.735   3.504  21.597  0.00  0.00    +0.000 OA
ATOM     23  O   UNL     1       1.883   5.775  21.590  0.00  0.00    +0.000 OA
ATOM     24  C   UNL     1       1.804   6.883  20.743  0.00  0.00    +0.000 A 
ATOM     25  C   UNL     1       0.964   7.901  21.185  0.00  0.00    +0.000 A 
ATOM     26  C   UNL     1       0.690   8.962  20.332  0.00  0.00    +0.000 A 
ATOM     27  C   UNL     1      -0.459   9.877  20.634  0.00  0.00    +0.000 C 
ATOM     28  C   UNL     1       1.461   9.106  19.169  0.00  0.00    +0.000 A 
ATOM     29  C   UNL     1       2.311   8.073  18.738  0.00  0.00    +0.000 A 
ATOM     30  C   UNL     1       2.375   6.881  19.460  0.00  0.00    +0.000 A 
ENDBRANCH  18  19
ENDBRANCH   5  18
TORSDOF 5
ENDMDL
MODEL 6
REMARK VINA RESULT:      -7.2      1.314      3.118
REMARK  Name = 
REMARK  7 active torsions:
REMARK  status: ('A' for Active; 'I' for Inactive)
REMARK    1  A    between atoms: C_1  and  C_2
REMARK    2  A    between atoms: C_2  and  C_3
REMARK    3  A    between atoms: C_3  and  C_4
REMARK    4  A    between atoms: C_4  and  C_5
REMARK    5  A    between atoms: N_14  and  C_15
REMARK    6  A    between atoms: C_15  and  C_16
REMARK    7  A    between atoms: C_23  and  C_24
REMARK                            x       y       z     vdW  Elec       q    Type
REMARK                         _______ _______ _______ _____ _____    ______ ____
ROOT
ATOM      1  C   UNL     1      -0.533  10.645  19.634  0.00  0.00    +0.000 C 
ATOM      2  N   UNL     1      -0.921   9.934  20.845  0.00  0.00    +0.000 N 
ATOM      3  C   UNL     1       0.065   9.105  21.326  0.00  0.00    +0.000 C 
ATOM      4  O   UNL     1      -0.097   8.377  22.293  0.00  0.00    +0.000 OA
ATOM      5  N   UNL     1       1.163   9.206  20.535  0.00  0.00    +0.000 N 
ATOM      6  C   UNL     1       0.862   9.982  19.441  0.00  0.00    +0.000 C 
ATOM      7  O   UNL     1       1.601  10.120  18.467  0.00  0.00    +0.000 OA
ATOM      8  H   UNL     1      -1.810  10.005  21.290  0.00  0.00    +0.000 HD
ENDROOT
BRANCH   1   9
ATOM      9  C   UNL     1      -1.472  10.366  18.450  0.00  0.00    +0.000 A 
ATOM     10  C   UNL     1      -2.799  10.844  18.480  0.00  0.00    +0.000 A 
ATOM     11  C   UNL     1      -3.669  10.664  17.400  0.00  0.00    +0.000 A 
ATOM     12  C   UNL     1      -3.241   9.996  16.259  0.00  0.00    +0.000 A 
ATOM     13  C   UNL     1      -1.945   9.489  16.211  0.00  0.00    +0.000 A 
ATOM     14  C   UNL     1      -1.072   9.667  17.294  0.00  0.00    +0.000 A 
ENDBRANCH   1   9
BRANCH   1  15
ATOM     15  C   UNL     1      -0.398  12.154  19.945  0.00  0.00    +0.000 C 
BRANCH  15  17
ATOM     16  C   UNL     1       1.181  13.595  18.580  0.00  0.00    +0.000 C 
ATOM     17  C   UNL     1      -0.232  13.048  18.704  0.00  0.00    +0.000 C 
ENDBRANCH  15  17
ENDBRANCH   1  15
BRANCH   5  18
ATOM     18  C   UNL     1       2.227   8.208  20.586  0.00  0.00    +0.000 C 
BRANCH  18  19
ATOM     19  C   UNL     1       1.957   6.912  19.848  0.00  0.00    +0.000 A 
ATOM     20  C   UNL     1       1.609   5.827  20.565  0.00  0.00    +0.000 A 
ATOM     21  C   UNL     1       1.245   4.533  19.977  0.00  0.00    +0.000 A 
ATOM     22  O   UNL     1       0.646   3.693  20.635  0.00  0.00    +0.000 OA
ATOM     23  O   UNL     1       1.581   4.328  18.661  0.00  0.00    +0.000 OA
ATOM     24  C   UNL     1       2.481   5.244  18.110  0.00  0.00    +0.000 A 
ATOM     25  C   UNL     1       3.454   4.687  17.286  0.00  0.00    +0.000 A 
ATOM     26  C   UNL     1       4.491   5.493  16.834  0.00  0.00    +0.000 A 
ATOM     27  C   UNL     1       5.717   4.861  16.246  0.00  0.00    +0.000 C 
ATOM     28  C   UNL     1       4.386   6.881  17.003  0.00  0.00    +0.000 A 
ATOM     29  C   UNL     1       3.393   7.431  17.832  0.00  0.00    +0.000 A 
ATOM     30  C   UNL     1       2.515   6.588  18.513  0.00  0.00    +0.000 A 
ENDBRANCH  18  19
ENDBRANCH   5  18
TORSDOF 5
ENDMDL
MODEL 7
REMARK VINA RESULT:      -7.1      1.128      3.214
REMARK  Name = 
REMARK  7 active torsions:
REMARK  status: ('A' for Active; 'I' for Inactive)
REMARK    1  A    between atoms: C_1  and  C_2
REMARK    2  A    between atoms: C_2  and  C_3
REMARK    3  A    between atoms: C_3  and  C_4
REMARK    4  A    between atoms: C_4  and  C_5
REMARK    5  A    between atoms: N_14  and  C_15
REMARK    6  A    between atoms: C_15  and  C_16
REMARK    7  A    between atoms: C_23  and  C_24
REMARK                            x       y       z     vdW  Elec       q    Type
REMARK                         _______ _______ _______ _____ _____    ______ ____
ROOT
ATOM      1  C   UNL     1      -0.735  10.701  19.782  0.00  0.00    +0.000 C 
ATOM      2  N   UNL     1      -1.184   9.812  20.846  0.00  0.00    +0.000 N 
ATOM      3  C   UNL     1      -0.193   8.978  21.308  0.00  0.00    +0.000 C 
ATOM      4  O   UNL     1      -0.393   8.117  22.150  0.00  0.00    +0.000 OA
ATOM      5  N   UNL     1       0.962   9.243  20.647  0.00  0.00    +0.000 N 
ATOM      6  C   UNL     1       0.711  10.144  19.640  0.00  0.00    +0.000 C 
ATOM      7  O   UNL     1       1.523  10.452  18.768  0.00  0.00    +0.000 OA
ATOM      8  H   UNL     1      -2.111   9.775  21.208  0.00  0.00    +0.000 HD
ENDROOT
BRANCH   1   9
ATOM      9  C   UNL     1      -1.546  10.538  18.486  0.00  0.00    +0.000 A 
ATOM     10  C   UNL     1      -2.658  11.371  18.245  0.00  0.00    +0.000 A 
ATOM     11  C   UNL     1      -3.388  11.296  17.054  0.00  0.00    +0.000 A 
ATOM     12  C   UNL     1      -3.029  10.383  16.070  0.00  0.00    +0.000 A 
ATOM     13  C   UNL     1      -1.952   9.529  16.290  0.00  0.00    +0.000 A 
ATOM     14  C   UNL     1      -1.221   9.602  17.484  0.00  0.00    +0.000 A 
ENDBRANCH   1   9
BRANCH   1  15
ATOM     15  C   UNL     1      -0.727  12.159  20.300  0.00  0.00    +0.000 C 
BRANCH  15  17
ATOM     16  C   UNL     1      -2.429  13.582  21.526  0.00  0.00    +0.000 C 
ATOM     17  C   UNL     1      -1.509  12.376  21.606  0.00  0.00    +0.000 C 
ENDBRANCH  15  17
ENDBRANCH   1  15
BRANCH   5  18
ATOM     18  C   UNL     1       2.080   8.304  20.670  0.00  0.00    +0.000 C 
BRANCH  18  19
ATOM     19  C   UNL     1       1.871   7.006  19.915  0.00  0.00    +0.000 A 
ATOM     20  C   UNL     1       1.573   5.897  20.618  0.00  0.00    +0.000 A 
ATOM     21  C   UNL     1       1.271   4.595  20.013  0.00  0.00    +0.000 A 
ATOM     22  O   UNL     1       0.711   3.720  20.660  0.00  0.00    +0.000 OA
ATOM     23  O   UNL     1       1.617   4.423  18.695  0.00  0.00    +0.000 OA
ATOM     24  C   UNL     1       2.474   5.386  18.157  0.00  0.00    +0.000 A 
ATOM     25  C   UNL     1       3.473   4.886  17.328  0.00  0.00    +0.000 A 
ATOM     26  C   UNL     1       4.472   5.744  16.887  0.00  0.00    +0.000 A 
ATOM     27  C   UNL     1       5.727   5.178  16.293  0.00  0.00    +0.000 C 
ATOM     28  C   UNL     1       4.302   7.124  17.074  0.00  0.00    +0.000 A 
ATOM     29  C   UNL     1       3.284   7.617  17.908  0.00  0.00    +0.000 A 
ATOM     30  C   UNL     1       2.445   6.725  18.577  0.00  0.00    +0.000 A 
ENDBRANCH  18  19
ENDBRANCH   5  18
TORSDOF 5
ENDMDL
MODEL 8
REMARK VINA RESULT:      -7.0      3.591      6.120
REMARK  Name = 
REMARK  7 active torsions:
REMARK  status: ('A' for Active; 'I' for Inactive)
REMARK    1  A    between atoms: C_1  and  C_2
REMARK    2  A    between atoms: C_2  and  C_3
REMARK    3  A    between atoms: C_3  and  C_4
REMARK    4  A    between atoms: C_4  and  C_5
REMARK    5  A    between atoms: N_14  and  C_15
REMARK    6  A    between atoms: C_15  and  C_16
REMARK    7  A    between atoms: C_23  and  C_24
REMARK                            x       y       z     vdW  Elec       q    Type
REMARK                         _______ _______ _______ _____ _____    ______ ____
ROOT
ATOM      1  C   UNL     1       0.942  15.492  19.932  0.00  0.00    +0.000 C 
ATOM      2  N   UNL     1       0.011  15.672  21.038  0.00  0.00    +0.000 N 
ATOM      3  C   UNL     1      -0.764  14.562  21.279  0.00  0.00    +0.000 C 
ATOM      4  O   UNL     1      -1.648  14.543  22.121  0.00  0.00    +0.000 OA
ATOM      5  N   UNL     1      -0.415  13.574  20.417  0.00  0.00    +0.000 N 
ATOM      6  C   UNL     1       0.482  14.069  19.501  0.00  0.00    +0.000 C 
ATOM      7  O   UNL     1       0.854  13.461  18.498  0.00  0.00    +0.000 OA
ATOM      8  H   UNL     1      -0.090  16.508  21.570  0.00  0.00    +0.000 HD
ENDROOT
BRANCH   1   9
ATOM      9  C   UNL     1       0.745  16.526  18.811  0.00  0.00    +0.000 A 
ATOM     10  C   UNL     1       1.858  16.978  18.071  0.00  0.00    +0.000 A 
ATOM     11  C   UNL     1       1.716  17.873  17.005  0.00  0.00    +0.000 A 
ATOM     12  C   UNL     1       0.458  18.346  16.651  0.00  0.00    +0.000 A 
ATOM     13  C   UNL     1      -0.655  17.938  17.380  0.00  0.00    +0.000 A 
ATOM     14  C   UNL     1      -0.514  17.043  18.450  0.00  0.00    +0.000 A 
ENDBRANCH   1   9
BRANCH   1  15
ATOM     15  C   UNL     1       2.390  15.472  20.476  0.00  0.00    +0.000 C 
BRANCH  15  17
ATOM     16  C   UNL     1       3.362  17.638  21.369  0.00  0.00    +0.000 C 
ATOM     17  C   UNL     1       2.618  16.358  21.713  0.00  0.00    +0.000 C 
ENDBRANCH  15  17
ENDBRANCH   1  15
BRANCH   5  18
ATOM     18  C   UNL     1      -1.280  12.419  20.200  0.00  0.00    +0.000 C 
BRANCH  18  19
ATOM     19  C   UNL     1      -0.760  11.094  20.721  0.00  0.00    +0.000 A 
ATOM     20  C   UNL     1      -0.283  11.043  21.980  0.00  0.00    +0.000 A 
ATOM     21  C   UNL     1       0.179   9.814  22.636  0.00  0.00    +0.000 A 
ATOM     22  O   UNL     1       0.301   9.764  23.853  0.00  0.00    +0.000 OA
ATOM     23  O   UNL     1       0.433   8.732  21.829  0.00  0.00    +0.000 OA
ATOM     24  C   UNL     1       0.508   8.996  20.459  0.00  0.00    +0.000 A 
ATOM     25  C   UNL     1       1.527   8.327  19.788  0.00  0.00    +0.000 A 
ATOM     26  C   UNL     1       1.787   8.656  18.464  0.00  0.00    +0.000 A 
ATOM     27  C   UNL     1       3.073   8.216  17.830  0.00  0.00    +0.000 C 
ATOM     28  C   UNL     1       0.860   9.452  17.775  0.00  0.00    +0.000 A 
ATOM     29  C   UNL     1      -0.169  10.116  18.465  0.00  0.00    +0.000 A 
ATOM     30  C   UNL     1      -0.260  10.001  19.852  0.00  0.00    +0.000 A 
ENDBRANCH  18  19
ENDBRANCH   5  18
TORSDOF 5
ENDMDL
MODEL 9
REMARK VINA RESULT:      -7.0      3.000      8.390
REMARK  Name = 
REMARK  7 active torsions:
REMARK  status: ('A' for Active; 'I' for Inactive)
REMARK    1  A    between atoms: C_1  and  C_2
REMARK    2  A    between atoms: C_2  and  C_3
REMARK    3  A    between atoms: C_3  and  C_4
REMARK    4  A    between atoms: C_4  and  C_5
REMARK    5  A    between atoms: N_14  and  C_15
REMARK    6  A    between atoms: C_15  and  C_16
REMARK    7  A    between atoms: C_23  and  C_24
REMARK                            x       y       z     vdW  Elec       q    Type
REMARK                         _______ _______ _______ _____ _____    ______ ____
ROOT
ATOM      1  C   UNL     1       0.524   9.647  20.572  0.00  0.00    +0.000 C 
ATOM      2  N   UNL     1       1.154  10.879  21.030  0.00  0.00    +0.000 N 
ATOM      3  C   UNL     1       0.436  12.006  20.706  0.00  0.00    +0.000 C 
ATOM      4  O   UNL     1       0.835  13.135  20.946  0.00  0.00    +0.000 OA
ATOM      5  N   UNL     1      -0.702  11.645  20.061  0.00  0.00    +0.000 N 
ATOM      6  C   UNL     1      -0.674  10.293  19.817  0.00  0.00    +0.000 C 
ATOM      7  O   UNL     1      -1.485   9.701  19.106  0.00  0.00    +0.000 OA
ATOM      8  H   UNL     1       2.024  10.931  21.512  0.00  0.00    +0.000 HD
ENDROOT
BRANCH   1   9
ATOM      9  C   UNL     1       1.424   8.829  19.633  0.00  0.00    +0.000 A 
ATOM     10  C   UNL     1       1.926   7.579  20.055  0.00  0.00    +0.000 A 
ATOM     11  C   UNL     1       2.700   6.776  19.211  0.00  0.00    +0.000 A 
ATOM     12  C   UNL     1       3.000   7.200  17.922  0.00  0.00    +0.000 A 
ATOM     13  C   UNL     1       2.541   8.439  17.487  0.00  0.00    +0.000 A 
ATOM     14  C   UNL     1       1.767   9.247  18.332  0.00  0.00    +0.000 A 
ENDBRANCH   1   9
BRANCH   1  15
ATOM     15  C   UNL     1       0.041   8.831  21.795  0.00  0.00    +0.000 C 
BRANCH  15  17
ATOM     16  C   UNL     1      -1.202  10.402  23.350  0.00  0.00    +0.000 C 
ATOM     17  C   UNL     1       0.070   9.602  23.126  0.00  0.00    +0.000 C 
ENDBRANCH  15  17
ENDBRANCH   1  15
BRANCH   5  18
ATOM     18  C   UNL     1      -1.481  12.617  19.301  0.00  0.00    +0.000 C 
BRANCH  18  19
ATOM     19  C   UNL     1      -2.834  12.981  19.879  0.00  0.00    +0.000 A 
ATOM     20  C   UNL     1      -2.902  13.334  21.176  0.00  0.00    +0.000 A 
ATOM     21  C   UNL     1      -4.129  13.783  21.844  0.00  0.00    +0.000 A 
ATOM     22  O   UNL     1      -4.077  14.380  22.911  0.00  0.00    +0.000 OA
ATOM     23  O   UNL     1      -5.318  13.529  21.205  0.00  0.00    +0.000 OA
ATOM     24  C   UNL     1      -5.259  12.623  20.143  0.00  0.00    +0.000 A 
ATOM     25  C   UNL     1      -6.316  11.720  20.082  0.00  0.00    +0.000 A 
ATOM     26  C   UNL     1      -6.256  10.677  19.168  0.00  0.00    +0.000 A 
ATOM     27  C   UNL     1      -7.190   9.512  19.311  0.00  0.00    +0.000 C 
ATOM     28  C   UNL     1      -5.271  10.714  18.171  0.00  0.00    +0.000 A 
ATOM     29  C   UNL     1      -4.213  11.636  18.239  0.00  0.00    +0.000 A 
ATOM     30  C   UNL     1      -4.126  12.511  19.322  0.00  0.00    +0.000 A 
ENDBRANCH  18  19
ENDBRANCH   5  18
TORSDOF 5
ENDMDL
