MODEL 1
REMARK VINA RESULT:      -8.4      0.000      0.000
REMARK  Name = 
REMARK  6 active torsions:
REMARK  status: ('A' for Active; 'I' for Inactive)
REMARK    1  A    between atoms: C_2  and  C_7
REMARK    2  A    between atoms: N_3  and  C_4
REMARK    3  A    between atoms: C_11  and  N_12
REMARK    4  A    between atoms: C_13  and  C_15
REMARK    5  A    between atoms: N_18  and  C_19
REMARK    6  A    between atoms: C_25  and  C_26
REMARK                            x       y       z     vdW  Elec       q    Type
REMARK                         _______ _______ _______ _____ _____    ______ ____
ROOT
ATOM      1  N   UNL     1       1.396   6.805  20.940  0.00  0.00    +0.000 N 
ATOM      2  C   UNL     1       1.381   8.129  20.523  0.00  0.00    +0.000 C 
ATOM      3  O   UNL     1       1.789   8.558  19.454  0.00  0.00    +0.000 OA
ATOM      4  H   UNL     1       0.968   6.584  21.829  0.00  0.00    +0.000 HD
ENDROOT
BRANCH   1   9
ATOM      5  C   UNL     1       3.930   4.748  19.150  0.00  0.00    +0.000 A 
ATOM      6  C   UNL     1       3.222   3.565  18.917  0.00  0.00    +0.000 A 
ATOM      7  C   UNL     1       1.889   3.471  19.299  0.00  0.00    +0.000 A 
ATOM      8  C   UNL     1       1.270   4.541  19.949  0.00  0.00    +0.000 A 
ATOM      9  C   UNL     1       1.971   5.714  20.239  0.00  0.00    +0.000 A 
ATOM     10  C   UNL     1       3.305   5.819  19.817  0.00  0.00    +0.000 A 
BRANCH   5  12
ATOM     11  O   UNL     1       6.138   3.945  18.986  0.00  0.00    +0.000 OA
ATOM     12  C   UNL     1       5.366   4.873  18.758  0.00  0.00    +0.000 C 
ATOM     13  N   UNL     1       5.736   6.067  18.171  0.00  0.00    +0.000 N 
ATOM     14  H   UNL     1       5.087   6.843  18.164  0.00  0.00    +0.000 HD
BRANCH  13  15
ATOM     15  C   UNL     1       7.059   6.306  17.676  0.00  0.00    +0.000 C 
ATOM     16  C   UNL     1       8.120   6.899  18.565  0.00  0.00    +0.000 C 
ATOM     17  C   UNL     1       7.540   7.713  17.447  0.00  0.00    +0.000 C 
ENDBRANCH  13  15
ENDBRANCH   5  12
ENDBRANCH   1   9
BRANCH   2  18
ATOM     18  C   UNL     1       0.827   9.056  21.497  0.00  0.00    +0.000 A 
ATOM     19  C   UNL     1       1.002   9.109  22.885  0.00  0.00    +0.000 A 
ATOM     20  N   UNL     1       0.385  10.150  23.435  0.00  0.00    +0.000 NA
ATOM     21  N   UNL     1      -0.316  10.732  22.419  0.00  0.00    +0.000 N 
ATOM     22  C   UNL     1      -0.027  10.120  21.214  0.00  0.00    +0.000 A 
BRANCH  21  23
ATOM     23  C   UNL     1      -1.147  11.852  22.725  0.00  0.00    +0.000 A 
ATOM     24  C   UNL     1      -2.438  11.611  23.227  0.00  0.00    +0.000 A 
ATOM     25  C   UNL     1      -3.261  12.675  23.606  0.00  0.00    +0.000 A 
ATOM     26  C   UNL     1      -2.817  13.986  23.462  0.00  0.00    +0.000 A 
ATOM     27  C   UNL     1      -1.559  14.236  22.920  0.00  0.00    +0.000 A 
ATOM     28  C   UNL     1      -0.729  13.175  22.544  0.00  0.00    +0.000 A 
ENDBRANCH  21  23
BRANCH  22  29
ATOM     29  C   UNL     1      -0.462  10.649  19.909  0.00  0.00    +0.000 C 
ATOM     30  F   UNL     1      -1.543  11.462  19.998  0.00  0.00    +0.000 F 
ATOM     31  F   UNL     1       0.511  11.365  19.292  0.00  0.00    +0.000 F 
ATOM     32  F   UNL     1      -0.834   9.658  19.060  0.00  0.00    +0.000 F 
ENDBRANCH  22  29
ENDBRANCH   2  18
TORSDOF 6
ENDMDL
MODEL 2
REMARK VINA RESULT:      -8.4      3.411      4.524
REMARK  Name = 
REMARK  6 active torsions:
REMARK  status: ('A' for Active; 'I' for Inactive)
REMARK    1  A    between atoms: C_2  and  C_7
REMARK    2  A    between atoms: N_3  and  C_4
REMARK    3  A    between atoms: C_11  and  N_12
REMARK    4  A    between atoms: C_13  and  C_15
REMARK    5  A    between atoms: N_18  and  C_19
REMARK    6  A    between atoms: C_25  and  C_26
REMARK                            x       y       z     vdW  Elec       q    Type
REMARK                         _______ _______ _______ _____ _____    ______ ____
ROOT
ATOM      1  N   UNL     1       4.090   7.311  17.883  0.00  0.00    +0.000 N 
ATOM      2  C   UNL     1       2.811   7.090  18.374  0.00  0.00    +0.000 C 
ATOM      3  O   UNL     1       2.325   6.008  18.672  0.00  0.00    +0.000 OA
ATOM      4  H   UNL     1       4.381   8.269  17.736  0.00  0.00    +0.000 HD
ENDROOT
BRANCH   1   9
ATOM      5  C   UNL     1       6.242   5.091  15.811  0.00  0.00    +0.000 A 
ATOM      6  C   UNL     1       6.977   4.414  16.790  0.00  0.00    +0.000 A 
ATOM      7  C   UNL     1       6.717   4.650  18.135  0.00  0.00    +0.000 A 
ATOM      8  C   UNL     1       5.753   5.589  18.508  0.00  0.00    +0.000 A 
ATOM      9  C   UNL     1       5.043   6.315  17.549  0.00  0.00    +0.000 A 
ATOM     10  C   UNL     1       5.280   6.046  16.193  0.00  0.00    +0.000 A 
BRANCH   5  12
ATOM     11  O   UNL     1       7.460   5.424  13.823  0.00  0.00    +0.000 OA
ATOM     12  C   UNL     1       6.507   4.864  14.359  0.00  0.00    +0.000 C 
ATOM     13  N   UNL     1       5.622   4.034  13.701  0.00  0.00    +0.000 N 
ATOM     14  H   UNL     1       4.772   3.740  14.165  0.00  0.00    +0.000 HD
BRANCH  13  15
ATOM     15  C   UNL     1       5.787   3.664  12.327  0.00  0.00    +0.000 C 
ATOM     16  C   UNL     1       4.606   3.234  11.496  0.00  0.00    +0.000 C 
ATOM     17  C   UNL     1       5.639   2.227  11.906  0.00  0.00    +0.000 C 
ENDBRANCH  13  15
ENDBRANCH   5  12
ENDBRANCH   1   9
BRANCH   2  18
ATOM     18  C   UNL     1       2.008   8.293  18.517  0.00  0.00    +0.000 A 
ATOM     19  C   UNL     1       1.706   9.287  17.577  0.00  0.00    +0.000 A 
ATOM     20  N   UNL     1       0.879  10.208  18.060  0.00  0.00    +0.000 NA
ATOM     21  N   UNL     1       0.721   9.896  19.379  0.00  0.00    +0.000 N 
ATOM     22  C   UNL     1       1.356   8.704  19.677  0.00  0.00    +0.000 A 
BRANCH  21  23
ATOM     23  C   UNL     1      -0.072  10.763  20.190  0.00  0.00    +0.000 A 
ATOM     24  C   UNL     1      -1.295  11.228  19.677  0.00  0.00    +0.000 A 
ATOM     25  C   UNL     1      -2.137  12.021  20.462  0.00  0.00    +0.000 A 
ATOM     26  C   UNL     1      -1.756  12.380  21.752  0.00  0.00    +0.000 A 
ATOM     27  C   UNL     1      -0.523  11.964  22.250  0.00  0.00    +0.000 A 
ATOM     28  C   UNL     1       0.320  11.166  21.472  0.00  0.00    +0.000 A 
ENDBRANCH  21  23
BRANCH  22  29
ATOM     29  C   UNL     1       1.196   7.998  20.961  0.00  0.00    +0.000 C 
ATOM     30  F   UNL     1       1.601   6.705  20.912  0.00  0.00    +0.000 F 
ATOM     31  F   UNL     1       1.894   8.585  21.964  0.00  0.00    +0.000 F 
ATOM     32  F   UNL     1      -0.103   7.946  21.351  0.00  0.00    +0.000 F 
ENDBRANCH  22  29
ENDBRANCH   2  18
TORSDOF 6
ENDMDL
MODEL 3
REMARK VINA RESULT:      -8.2      1.445      1.863
REMARK  Name = 
REMARK  6 active torsions:
REMARK  status: ('A' for Active; 'I' for Inactive)
REMARK    1  A    between atoms: C_2  and  C_7
REMARK    2  A    between atoms: N_3  and  C_4
REMARK    3  A    between atoms: C_11  and  N_12
REMARK    4  A    between atoms: C_13  and  C_15
REMARK    5  A    between atoms: N_18  and  C_19
REMARK    6  A    between atoms: C_25  and  C_26
REMARK                            x       y       z     vdW  Elec       q    Type
REMARK                         _______ _______ _______ _____ _____    ______ ____
ROOT
ATOM      1  N   UNL     1       1.471   7.080  20.930  0.00  0.00    +0.000 N 
ATOM      2  C   UNL     1       1.242   8.378  20.494  0.00  0.00    +0.000 C 
ATOM      3  O   UNL     1       1.479   8.823  19.381  0.00  0.00    +0.000 OA
ATOM      4  H   UNL     1       1.169   6.835  21.864  0.00  0.00    +0.000 HD
ENDROOT
BRANCH   1   9
ATOM      5  C   UNL     1       3.633   5.425  18.392  0.00  0.00    +0.000 A 
ATOM      6  C   UNL     1       3.477   4.075  18.724  0.00  0.00    +0.000 A 
ATOM      7  C   UNL     1       2.611   3.711  19.749  0.00  0.00    +0.000 A 
ATOM      8  C   UNL     1       1.928   4.693  20.470  0.00  0.00    +0.000 A 
ATOM      9  C   UNL     1       2.107   6.050  20.192  0.00  0.00    +0.000 A 
ATOM     10  C   UNL     1       2.951   6.411  19.131  0.00  0.00    +0.000 A 
BRANCH   5  12
ATOM     11  O   UNL     1       5.118   6.938  17.369  0.00  0.00    +0.000 OA
ATOM     12  C   UNL     1       4.563   5.845  17.301  0.00  0.00    +0.000 C 
ATOM     13  N   UNL     1       4.718   4.957  16.257  0.00  0.00    +0.000 N 
ATOM     14  H   UNL     1       4.107   4.152  16.190  0.00  0.00    +0.000 HD
BRANCH  13  15
ATOM     15  C   UNL     1       5.630   5.186  15.177  0.00  0.00    +0.000 C 
ATOM     16  C   UNL     1       6.141   4.042  14.341  0.00  0.00    +0.000 C 
ATOM     17  C   UNL     1       7.065   4.747  15.289  0.00  0.00    +0.000 C 
ENDBRANCH  13  15
ENDBRANCH   5  12
ENDBRANCH   1   9
BRANCH   2  18
ATOM     18  C   UNL     1       0.677   9.258  21.505  0.00  0.00    +0.000 A 
ATOM     19  C   UNL     1       0.860   9.263  22.894  0.00  0.00    +0.000 A 
ATOM     20  N   UNL     1       0.226  10.270  23.485  0.00  0.00    +0.000 NA
ATOM     21  N   UNL     1      -0.493  10.876  22.496  0.00  0.00    +0.000 N 
ATOM     22  C   UNL     1      -0.200  10.314  21.267  0.00  0.00    +0.000 A 
BRANCH  21  23
ATOM     23  C   UNL     1      -1.345  11.966  22.848  0.00  0.00    +0.000 A 
ATOM     24  C   UNL     1      -0.829  13.272  22.770  0.00  0.00    +0.000 A 
ATOM     25  C   UNL     1      -1.646  14.373  23.035  0.00  0.00    +0.000 A 
ATOM     26  C   UNL     1      -2.974  14.184  23.408  0.00  0.00    +0.000 A 
ATOM     27  C   UNL     1      -3.480  12.892  23.536  0.00  0.00    +0.000 A 
ATOM     28  C   UNL     1      -2.668  11.787  23.266  0.00  0.00    +0.000 A 
ENDBRANCH  21  23
BRANCH  22  29
ATOM     29  C   UNL     1      -0.654  10.882  19.986  0.00  0.00    +0.000 C 
ATOM     30  F   UNL     1      -1.657  11.783  20.128  0.00  0.00    +0.000 F 
ATOM     31  F   UNL     1       0.343  11.515  19.319  0.00  0.00    +0.000 F 
ATOM     32  F   UNL     1      -1.151   9.929  19.157  0.00  0.00    +0.000 F 
ENDBRANCH  22  29
ENDBRANCH   2  18
TORSDOF 6
ENDMDL
MODEL 4
REMARK VINA RESULT:      -8.2      0.584      1.274
REMARK  Name = 
REMARK  6 active torsions:
REMARK  status: ('A' for Active; 'I' for Inactive)
REMARK    1  A    between atoms: C_2  and  C_7
REMARK    2  A    between atoms: N_3  and  C_4
REMARK    3  A    between atoms: C_11  and  N_12
REMARK    4  A    between atoms: C_13  and  C_15
REMARK    5  A    between atoms: N_18  and  C_19
REMARK    6  A    between atoms: C_25  and  C_26
REMARK                            x       y       z     vdW  Elec       q    Type
REMARK                         _______ _______ _______ _____ _____    ______ ____
ROOT
ATOM      1  N   UNL     1       1.489   6.602  20.807  0.00  0.00    +0.000 N 
ATOM      2  C   UNL     1       1.520   7.919  20.368  0.00  0.00    +0.000 C 
ATOM      3  O   UNL     1       1.944   8.316  19.292  0.00  0.00    +0.000 OA
ATOM      4  H   UNL     1       1.051   6.412  21.699  0.00  0.00    +0.000 HD
ENDROOT
BRANCH   1   9
ATOM      5  C   UNL     1       3.826   4.546  18.766  0.00  0.00    +0.000 A 
ATOM      6  C   UNL     1       3.216   3.288  18.818  0.00  0.00    +0.000 A 
ATOM      7  C   UNL     1       2.002   3.136  19.478  0.00  0.00    +0.000 A 
ATOM      8  C   UNL     1       1.412   4.227  20.120  0.00  0.00    +0.000 A 
ATOM      9  C   UNL     1       2.028   5.481  20.127  0.00  0.00    +0.000 A 
ATOM     10  C   UNL     1       3.233   5.639  19.426  0.00  0.00    +0.000 A 
BRANCH   5  12
ATOM     11  O   UNL     1       5.339   4.169  17.002  0.00  0.00    +0.000 OA
ATOM     12  C   UNL     1       5.135   4.736  18.072  0.00  0.00    +0.000 C 
ATOM     13  N   UNL     1       6.054   5.541  18.714  0.00  0.00    +0.000 N 
ATOM     14  H   UNL     1       5.878   5.841  19.665  0.00  0.00    +0.000 HD
BRANCH  13  15
ATOM     15  C   UNL     1       7.322   5.876  18.138  0.00  0.00    +0.000 C 
ATOM     16  C   UNL     1       8.164   6.983  18.716  0.00  0.00    +0.000 C 
ATOM     17  C   UNL     1       7.497   7.167  17.385  0.00  0.00    +0.000 C 
ENDBRANCH  13  15
ENDBRANCH   5  12
ENDBRANCH   1   9
BRANCH   2  18
ATOM     18  C   UNL     1       0.996   8.881  21.324  0.00  0.00    +0.000 A 
ATOM     19  C   UNL     1       1.202   8.975  22.706  0.00  0.00    +0.000 A 
ATOM     20  N   UNL     1       0.606  10.038  23.236  0.00  0.00    +0.000 NA
ATOM     21  N   UNL     1      -0.112  10.596  22.218  0.00  0.00    +0.000 N 
ATOM     22  C   UNL     1       0.145   9.943  21.027  0.00  0.00    +0.000 A 
BRANCH  21  23
ATOM     23  C   UNL     1      -0.927  11.732  22.507  0.00  0.00    +0.000 A 
ATOM     24  C   UNL     1      -0.427  13.010  22.203  0.00  0.00    +0.000 A 
ATOM     25  C   UNL     1      -1.216  14.146  22.401  0.00  0.00    +0.000 A 
ATOM     26  C   UNL     1      -2.498  14.021  22.931  0.00  0.00    +0.000 A 
ATOM     27  C   UNL     1      -2.983  12.763  23.281  0.00  0.00    +0.000 A 
ATOM     28  C   UNL     1      -2.199  11.623  23.079  0.00  0.00    +0.000 A 
ENDBRANCH  21  23
BRANCH  22  29
ATOM     29  C   UNL     1      -0.314  10.436  19.716  0.00  0.00    +0.000 C 
ATOM     30  F   UNL     1      -0.446   9.452  18.793  0.00  0.00    +0.000 F 
ATOM     31  F   UNL     1      -1.515  11.060  19.791  0.00  0.00    +0.000 F 
ATOM     32  F   UNL     1       0.564  11.316  19.171  0.00  0.00    +0.000 F 
ENDBRANCH  22  29
ENDBRANCH   2  18
TORSDOF 6
ENDMDL
MODEL 5
REMARK VINA RESULT:      -8.2      1.029      1.461
REMARK  Name = 
REMARK  6 active torsions:
REMARK  status: ('A' for Active; 'I' for Inactive)
REMARK    1  A    between atoms: C_2  and  C_7
REMARK    2  A    between atoms: N_3  and  C_4
REMARK    3  A    between atoms: C_11  and  N_12
REMARK    4  A    between atoms: C_13  and  C_15
REMARK    5  A    between atoms: N_18  and  C_19
REMARK    6  A    between atoms: C_25  and  C_26
REMARK                            x       y       z     vdW  Elec       q    Type
REMARK                         _______ _______ _______ _____ _____    ______ ____
ROOT
ATOM      1  N   UNL     1       1.299   6.603  21.044  0.00  0.00    +0.000 N 
ATOM      2  C   UNL     1       1.416   7.908  20.586  0.00  0.00    +0.000 C 
ATOM      3  O   UNL     1       1.913   8.264  19.528  0.00  0.00    +0.000 OA
ATOM      4  H   UNL     1       0.808   6.450  21.916  0.00  0.00    +0.000 HD
ENDROOT
BRANCH   1   9
ATOM      5  C   UNL     1       3.611   4.417  19.113  0.00  0.00    +0.000 A 
ATOM      6  C   UNL     1       2.967   3.178  19.198  0.00  0.00    +0.000 A 
ATOM      7  C   UNL     1       1.740   3.080  19.844  0.00  0.00    +0.000 A 
ATOM      8  C   UNL     1       1.170   4.207  20.439  0.00  0.00    +0.000 A 
ATOM      9  C   UNL     1       1.818   5.444  20.412  0.00  0.00    +0.000 A 
ATOM     10  C   UNL     1       3.037   5.547  19.726  0.00  0.00    +0.000 A 
BRANCH   5  12
ATOM     11  O   UNL     1       5.955   4.213  19.028  0.00  0.00    +0.000 OA
ATOM     12  C   UNL     1       4.935   4.548  18.433  0.00  0.00    +0.000 C 
ATOM     13  N   UNL     1       4.914   5.075  17.158  0.00  0.00    +0.000 N 
ATOM     14  H   UNL     1       4.059   5.478  16.796  0.00  0.00    +0.000 HD
BRANCH  13  15
ATOM     15  C   UNL     1       6.093   5.193  16.353  0.00  0.00    +0.000 C 
ATOM     16  C   UNL     1       6.002   5.240  14.851  0.00  0.00    +0.000 C 
ATOM     17  C   UNL     1       6.570   4.029  15.528  0.00  0.00    +0.000 C 
ENDBRANCH  13  15
ENDBRANCH   5  12
ENDBRANCH   1   9
BRANCH   2  18
ATOM     18  C   UNL     1       0.890   8.911  21.498  0.00  0.00    +0.000 A 
ATOM     19  C   UNL     1       1.044   9.032  22.885  0.00  0.00    +0.000 A 
ATOM     20  N   UNL     1       0.467  10.128  23.366  0.00  0.00    +0.000 NA
ATOM     21  N   UNL     1      -0.188  10.686  22.307  0.00  0.00    +0.000 N 
ATOM     22  C   UNL     1       0.092   9.996  21.142  0.00  0.00    +0.000 A 
BRANCH  21  23
ATOM     23  C   UNL     1      -0.971  11.858  22.535  0.00  0.00    +0.000 A 
ATOM     24  C   UNL     1      -2.264  11.707  23.067  0.00  0.00    +0.000 A 
ATOM     25  C   UNL     1      -3.039  12.828  23.374  0.00  0.00    +0.000 A 
ATOM     26  C   UNL     1      -2.547  14.107  23.127  0.00  0.00    +0.000 A 
ATOM     27  C   UNL     1      -1.286  14.264  22.555  0.00  0.00    +0.000 A 
ATOM     28  C   UNL     1      -0.504  13.146  22.252  0.00  0.00    +0.000 A 
ENDBRANCH  21  23
BRANCH  22  29
ATOM     29  C   UNL     1      -0.295  10.473  19.803  0.00  0.00    +0.000 C 
ATOM     30  F   UNL     1      -0.536   9.466  18.927  0.00  0.00    +0.000 F 
ATOM     31  F   UNL     1      -1.415  11.238  19.830  0.00  0.00    +0.000 F 
ATOM     32  F   UNL     1       0.685  11.214  19.227  0.00  0.00    +0.000 F 
ENDBRANCH  22  29
ENDBRANCH   2  18
TORSDOF 6
ENDMDL
MODEL 6
REMARK VINA RESULT:      -8.2      1.530      1.859
REMARK  Name = 
REMARK  6 active torsions:
REMARK  status: ('A' for Active; 'I' for Inactive)
REMARK    1  A    between atoms: C_2  and  C_7
REMARK    2  A    between atoms: N_3  and  C_4
REMARK    3  A    between atoms: C_11  and  N_12
REMARK    4  A    between atoms: C_13  and  C_15
REMARK    5  A    between atoms: N_18  and  C_19
REMARK    6  A    between atoms: C_25  and  C_26
REMARK                            x       y       z     vdW  Elec       q    Type
REMARK                         _______ _______ _______ _____ _____    ______ ____
ROOT
ATOM      1  N   UNL     1       1.461   7.096  20.895  0.00  0.00    +0.000 N 
ATOM      2  C   UNL     1       1.254   8.405  20.483  0.00  0.00    +0.000 C 
ATOM      3  O   UNL     1       1.510   8.870  19.382  0.00  0.00    +0.000 OA
ATOM      4  H   UNL     1       1.144   6.836  21.820  0.00  0.00    +0.000 HD
ENDROOT
BRANCH   1   9
ATOM      5  C   UNL     1       3.552   5.465  18.283  0.00  0.00    +0.000 A 
ATOM      6  C   UNL     1       3.457   4.117  18.645  0.00  0.00    +0.000 A 
ATOM      7  C   UNL     1       2.654   3.744  19.717  0.00  0.00    +0.000 A 
ATOM      8  C   UNL     1       1.974   4.717  20.454  0.00  0.00    +0.000 A 
ATOM      9  C   UNL     1       2.094   6.073  20.144  0.00  0.00    +0.000 A 
ATOM     10  C   UNL     1       2.874   6.442  19.038  0.00  0.00    +0.000 A 
BRANCH   5  12
ATOM     11  O   UNL     1       4.736   7.075  17.039  0.00  0.00    +0.000 OA
ATOM     12  C   UNL     1       4.414   5.895  17.142  0.00  0.00    +0.000 C 
ATOM     13  N   UNL     1       4.778   4.908  16.248  0.00  0.00    +0.000 N 
ATOM     14  H   UNL     1       4.343   3.996  16.306  0.00  0.00    +0.000 HD
BRANCH  13  15
ATOM     15  C   UNL     1       5.660   5.152  15.146  0.00  0.00    +0.000 C 
ATOM     16  C   UNL     1       6.010   4.051  14.179  0.00  0.00    +0.000 C 
ATOM     17  C   UNL     1       7.044   4.561  15.138  0.00  0.00    +0.000 C 
ENDBRANCH  13  15
ENDBRANCH   5  12
ENDBRANCH   1   9
BRANCH   2  18
ATOM     18  C   UNL     1       0.685   9.271  21.504  0.00  0.00    +0.000 A 
ATOM     19  C   UNL     1       0.865   9.257  22.893  0.00  0.00    +0.000 A 
ATOM     20  N   UNL     1       0.228  10.256  23.497  0.00  0.00    +0.000 NA
ATOM     21  N   UNL     1      -0.488  10.875  22.514  0.00  0.00    +0.000 N 
ATOM     22  C   UNL     1      -0.192  10.330  21.278  0.00  0.00    +0.000 A 
BRANCH  21  23
ATOM     23  C   UNL     1      -1.341  11.960  22.878  0.00  0.00    +0.000 A 
ATOM     24  C   UNL     1      -2.648  11.671  23.307  0.00  0.00    +0.000 A 
ATOM     25  C   UNL     1      -3.495  12.694  23.741  0.00  0.00    +0.000 A 
ATOM     26  C   UNL     1      -3.058  14.016  23.724  0.00  0.00    +0.000 A 
ATOM     27  C   UNL     1      -1.781  14.317  23.255  0.00  0.00    +0.000 A 
ATOM     28  C   UNL     1      -0.928  13.296  22.825  0.00  0.00    +0.000 A 
ENDBRANCH  21  23
BRANCH  22  29
ATOM     29  C   UNL     1      -0.642  10.915  20.004  0.00  0.00    +0.000 C 
ATOM     30  F   UNL     1      -1.023   9.984  19.094  0.00  0.00    +0.000 F 
ATOM     31  F   UNL     1      -1.697  11.753  20.164  0.00  0.00    +0.000 F 
ATOM     32  F   UNL     1       0.344  11.621  19.394  0.00  0.00    +0.000 F 
ENDBRANCH  22  29
ENDBRANCH   2  18
TORSDOF 6
ENDMDL
MODEL 7
REMARK VINA RESULT:      -8.1      2.499      3.074
REMARK  Name = 
REMARK  6 active torsions:
REMARK  status: ('A' for Active; 'I' for Inactive)
REMARK    1  A    between atoms: C_2  and  C_7
REMARK    2  A    between atoms: N_3  and  C_4
REMARK    3  A    between atoms: C_11  and  N_12
REMARK    4  A    between atoms: C_13  and  C_15
REMARK    5  A    between atoms: N_18  and  C_19
REMARK    6  A    between atoms: C_25  and  C_26
REMARK                            x       y       z     vdW  Elec       q    Type
REMARK                         _______ _______ _______ _____ _____    ______ ____
ROOT
ATOM      1  N   UNL     1       2.787   6.836  20.253  0.00  0.00    +0.000 N 
ATOM      2  C   UNL     1       1.485   7.150  20.615  0.00  0.00    +0.000 C 
ATOM      3  O   UNL     1       0.562   6.362  20.765  0.00  0.00    +0.000 OA
ATOM      4  H   UNL     1       3.464   7.587  20.226  0.00  0.00    +0.000 HD
ENDROOT
BRANCH   1   9
ATOM      5  C   UNL     1       4.832   4.209  18.589  0.00  0.00    +0.000 A 
ATOM      6  C   UNL     1       4.353   3.046  19.201  0.00  0.00    +0.000 A 
ATOM      7  C   UNL     1       3.313   3.127  20.120  0.00  0.00    +0.000 A 
ATOM      8  C   UNL     1       2.775   4.370  20.460  0.00  0.00    +0.000 A 
ATOM      9  C   UNL     1       3.271   5.550  19.901  0.00  0.00    +0.000 A 
ATOM     10  C   UNL     1       4.294   5.461  18.945  0.00  0.00    +0.000 A 
BRANCH   5  12
ATOM     11  O   UNL     1       7.108   4.305  17.994  0.00  0.00    +0.000 OA
ATOM     12  C   UNL     1       5.954   4.152  17.604  0.00  0.00    +0.000 C 
ATOM     13  N   UNL     1       5.599   3.948  16.286  0.00  0.00    +0.000 N 
ATOM     14  H   UNL     1       4.624   3.993  16.018  0.00  0.00    +0.000 HD
BRANCH  13  15
ATOM     15  C   UNL     1       6.566   3.797  15.241  0.00  0.00    +0.000 C 
ATOM     16  C   UNL     1       6.957   4.966  14.376  0.00  0.00    +0.000 C 
ATOM     17  C   UNL     1       6.139   3.850  13.799  0.00  0.00    +0.000 C 
ENDBRANCH  13  15
ENDBRANCH   5  12
ENDBRANCH   1   9
BRANCH   2  18
ATOM     18  C   UNL     1       1.243   8.571  20.811  0.00  0.00    +0.000 A 
ATOM     19  C   UNL     1       1.125   9.305  21.997  0.00  0.00    +0.000 A 
ATOM     20  N   UNL     1       0.972  10.606  21.775  0.00  0.00    +0.000 NA
ATOM     21  N   UNL     1       0.862  10.732  20.421  0.00  0.00    +0.000 N 
ATOM     22  C   UNL     1       1.075   9.514  19.800  0.00  0.00    +0.000 A 
BRANCH  21  23
ATOM     23  C   UNL     1       0.615  12.028  19.878  0.00  0.00    +0.000 A 
ATOM     24  C   UNL     1      -0.718  12.449  19.727  0.00  0.00    +0.000 A 
ATOM     25  C   UNL     1      -1.008  13.736  19.267  0.00  0.00    +0.000 A 
ATOM     26  C   UNL     1       0.026  14.604  18.926  0.00  0.00    +0.000 A 
ATOM     27  C   UNL     1       1.349  14.179  19.025  0.00  0.00    +0.000 A 
ATOM     28  C   UNL     1       1.644  12.894  19.490  0.00  0.00    +0.000 A 
ENDBRANCH  21  23
BRANCH  22  29
ATOM     29  C   UNL     1       1.228   9.362  18.342  0.00  0.00    +0.000 C 
ATOM     30  F   UNL     1       1.510   8.090  17.966  0.00  0.00    +0.000 F 
ATOM     31  F   UNL     1       0.111   9.727  17.665  0.00  0.00    +0.000 F 
ATOM     32  F   UNL     1       2.254  10.108  17.861  0.00  0.00    +0.000 F 
ENDBRANCH  22  29
ENDBRANCH   2  18
TORSDOF 6
ENDMDL
MODEL 8
REMARK VINA RESULT:      -8.1      1.167      1.768
REMARK  Name = 
REMARK  6 active torsions:
REMARK  status: ('A' for Active; 'I' for Inactive)
REMARK    1  A    between atoms: C_2  and  C_7
REMARK    2  A    between atoms: N_3  and  C_4
REMARK    3  A    between atoms: C_11  and  N_12
REMARK    4  A    between atoms: C_13  and  C_15
REMARK    5  A    between atoms: N_18  and  C_19
REMARK    6  A    between atoms: C_25  and  C_26
REMARK                            x       y       z     vdW  Elec       q    Type
REMARK                         _______ _______ _______ _____ _____    ______ ____
ROOT
ATOM      1  N   UNL     1       1.290   6.578  21.102  0.00  0.00    +0.000 N 
ATOM      2  C   UNL     1       1.450   7.872  20.625  0.00  0.00    +0.000 C 
ATOM      3  O   UNL     1       1.995   8.199  19.581  0.00  0.00    +0.000 OA
ATOM      4  H   UNL     1       0.762   6.452  21.956  0.00  0.00    +0.000 HD
ENDROOT
BRANCH   1   9
ATOM      5  C   UNL     1       3.585   4.334  19.218  0.00  0.00    +0.000 A 
ATOM      6  C   UNL     1       2.960   3.092  19.376  0.00  0.00    +0.000 A 
ATOM      7  C   UNL     1       1.750   3.009  20.055  0.00  0.00    +0.000 A 
ATOM      8  C   UNL     1       1.179   4.156  20.611  0.00  0.00    +0.000 A 
ATOM      9  C   UNL     1       1.809   5.398  20.511  0.00  0.00    +0.000 A 
ATOM     10  C   UNL     1       3.010   5.485  19.791  0.00  0.00    +0.000 A 
BRANCH   5  12
ATOM     11  O   UNL     1       5.935   4.235  19.108  0.00  0.00    +0.000 OA
ATOM     12  C   UNL     1       4.890   4.451  18.500  0.00  0.00    +0.000 C 
ATOM     13  N   UNL     1       4.824   4.827  17.174  0.00  0.00    +0.000 N 
ATOM     14  H   UNL     1       3.945   5.145  16.787  0.00  0.00    +0.000 HD
BRANCH  13  15
ATOM     15  C   UNL     1       5.984   4.910  16.338  0.00  0.00    +0.000 C 
ATOM     16  C   UNL     1       5.860   5.267  14.880  0.00  0.00    +0.000 C 
ATOM     17  C   UNL     1       6.232   3.870  15.278  0.00  0.00    +0.000 C 
ENDBRANCH  13  15
ENDBRANCH   5  12
ENDBRANCH   1   9
BRANCH   2  18
ATOM     18  C   UNL     1       0.909   8.903  21.497  0.00  0.00    +0.000 A 
ATOM     19  C   UNL     1       1.022   9.053  22.885  0.00  0.00    +0.000 A 
ATOM     20  N   UNL     1       0.445  10.166  23.323  0.00  0.00    +0.000 NA
ATOM     21  N   UNL     1      -0.170  10.709  22.232  0.00  0.00    +0.000 N 
ATOM     22  C   UNL     1       0.137   9.989  21.092  0.00  0.00    +0.000 A 
BRANCH  21  23
ATOM     23  C   UNL     1      -0.944  11.895  22.410  0.00  0.00    +0.000 A 
ATOM     24  C   UNL     1      -0.375  13.128  22.047  0.00  0.00    +0.000 A 
ATOM     25  C   UNL     1      -1.120  14.307  22.136  0.00  0.00    +0.000 A 
ATOM     26  C   UNL     1      -2.426  14.272  22.615  0.00  0.00    +0.000 A 
ATOM     27  C   UNL     1      -2.982  13.061  23.023  0.00  0.00    +0.000 A 
ATOM     28  C   UNL     1      -2.243  11.878  22.930  0.00  0.00    +0.000 A 
ENDBRANCH  21  23
BRANCH  22  29
ATOM     29  C   UNL     1      -0.202  10.440  19.731  0.00  0.00    +0.000 C 
ATOM     30  F   UNL     1       0.702  11.311  19.218  0.00  0.00    +0.000 F 
ATOM     31  F   UNL     1      -0.290   9.411  18.853  0.00  0.00    +0.000 F 
ATOM     32  F   UNL     1      -1.387  11.101  19.698  0.00  0.00    +0.000 F 
ENDBRANCH  22  29
ENDBRANCH   2  18
TORSDOF 6
ENDMDL
MODEL 9
REMARK VINA RESULT:      -8.1      1.808      2.269
REMARK  Name = 
REMARK  6 active torsions:
REMARK  status: ('A' for Active; 'I' for Inactive)
REMARK    1  A    between atoms: C_2  and  C_7
REMARK    2  A    between atoms: N_3  and  C_4
REMARK    3  A    between atoms: C_11  and  N_12
REMARK    4  A    between atoms: C_13  and  C_15
REMARK    5  A    between atoms: N_18  and  C_19
REMARK    6  A    between atoms: C_25  and  C_26
REMARK                            x       y       z     vdW  Elec       q    Type
REMARK                         _______ _______ _______ _____ _____    ______ ____
ROOT
ATOM      1  N   UNL     1       1.755   6.527  20.777  0.00  0.00    +0.000 N 
ATOM      2  C   UNL     1       1.869   7.716  20.072  0.00  0.00    +0.000 C 
ATOM      3  O   UNL     1       2.416   7.869  18.989  0.00  0.00    +0.000 OA
ATOM      4  H   UNL     1       1.220   6.537  21.636  0.00  0.00    +0.000 HD
ENDROOT
BRANCH   1   9
ATOM      5  C   UNL     1       4.106   4.076  19.255  0.00  0.00    +0.000 A 
ATOM      6  C   UNL     1       3.592   2.861  19.723  0.00  0.00    +0.000 A 
ATOM      7  C   UNL     1       2.434   2.852  20.492  0.00  0.00    +0.000 A 
ATOM      8  C   UNL     1       1.808   4.054  20.830  0.00  0.00    +0.000 A 
ATOM      9  C   UNL     1       2.331   5.282  20.418  0.00  0.00    +0.000 A 
ATOM     10  C   UNL     1       3.477   5.285  19.609  0.00  0.00    +0.000 A 
BRANCH   5  12
ATOM     11  O   UNL     1       6.437   4.275  18.990  0.00  0.00    +0.000 OA
ATOM     12  C   UNL     1       5.353   4.116  18.434  0.00  0.00    +0.000 C 
ATOM     13  N   UNL     1       5.189   3.989  17.070  0.00  0.00    +0.000 N 
ATOM     14  H   UNL     1       4.259   4.024  16.672  0.00  0.00    +0.000 HD
BRANCH  13  15
ATOM     15  C   UNL     1       6.295   3.935  16.161  0.00  0.00    +0.000 C 
ATOM     16  C   UNL     1       6.641   5.118  15.295  0.00  0.00    +0.000 C 
ATOM     17  C   UNL     1       6.055   3.883  14.677  0.00  0.00    +0.000 C 
ENDBRANCH  13  15
ENDBRANCH   5  12
ENDBRANCH   1   9
BRANCH   2  18
ATOM     18  C   UNL     1       1.274   8.866  20.735  0.00  0.00    +0.000 A 
ATOM     19  C   UNL     1       1.141   9.143  22.102  0.00  0.00    +0.000 A 
ATOM     20  N   UNL     1       0.599  10.334  22.327  0.00  0.00    +0.000 NA
ATOM     21  N   UNL     1       0.250  10.812  21.097  0.00  0.00    +0.000 N 
ATOM     22  C   UNL     1       0.694   9.962  20.101  0.00  0.00    +0.000 A 
BRANCH  21  23
ATOM     23  C   UNL     1      -0.431  12.064  21.024  0.00  0.00    +0.000 A 
ATOM     24  C   UNL     1       0.336  13.241  20.956  0.00  0.00    +0.000 A 
ATOM     25  C   UNL     1      -0.285  14.484  20.812  0.00  0.00    +0.000 A 
ATOM     26  C   UNL     1      -1.674  14.569  20.763  0.00  0.00    +0.000 A 
ATOM     27  C   UNL     1      -2.443  13.414  20.879  0.00  0.00    +0.000 A 
ATOM     28  C   UNL     1      -1.827  12.166  21.017  0.00  0.00    +0.000 A 
ENDBRANCH  21  23
BRANCH  22  29
ATOM     29  C   UNL     1       0.656  10.302  18.668  0.00  0.00    +0.000 C 
ATOM     30  F   UNL     1       0.319   9.251  17.880  0.00  0.00    +0.000 F 
ATOM     31  F   UNL     1      -0.231  11.290  18.395  0.00  0.00    +0.000 F 
ATOM     32  F   UNL     1       1.868  10.710  18.212  0.00  0.00    +0.000 F 
ENDBRANCH  22  29
ENDBRANCH   2  18
TORSDOF 6
ENDMDL
