MODEL 1
REMARK VINA RESULT:      -8.4      0.000      0.000
REMARK  Name = 
REMARK  7 active torsions:
REMARK  status: ('A' for Active; 'I' for Inactive)
REMARK    1  A    between atoms: C_1  and  N_2
REMARK    2  A    between atoms: C_3  and  C_5
REMARK    3  A    between atoms: C_9  and  N_10
REMARK    4  A    between atoms: N_10  and  C_11
REMARK    5  A    between atoms: C_11  and  C_12
REMARK    6  A    between atoms: C_15  and  C_16
REMARK    7  A    between atoms: C_25  and  C_26
REMARK                            x       y       z     vdW  Elec       q    Type
REMARK                         _______ _______ _______ _____ _____    ______ ____
ROOT
ATOM      1  N   UNL     1       4.442   3.028  17.772  0.00  0.00    +0.000 N 
ATOM      2  H   UNL     1       4.959   2.667  18.572  0.00  0.00    +0.000 HD
ENDROOT
BRANCH   1   7
ATOM      3  C   UNL     1       6.722   5.923  17.118  0.00  0.00    +0.000 A 
ATOM      4  C   UNL     1       6.733   5.935  15.716  0.00  0.00    +0.000 A 
ATOM      5  C   UNL     1       5.966   5.023  15.009  0.00  0.00    +0.000 A 
ATOM      6  C   UNL     1       5.194   4.084  15.693  0.00  0.00    +0.000 A 
ATOM      7  C   UNL     1       5.144   4.039  17.099  0.00  0.00    +0.000 A 
ATOM      8  C   UNL     1       5.917   4.987  17.824  0.00  0.00    +0.000 A 
ATOM      9  C   UNL     1       5.928   5.000  19.336  0.00  0.00    +0.000 C 
BRANCH   3  12
ATOM     10  C   UNL     1       8.225   9.312  17.915  0.00  0.00    +0.000 C 
ATOM     11  N   UNL     1       7.477   8.234  17.318  0.00  0.00    +0.000 N 
ATOM     12  C   UNL     1       7.561   6.948  17.819  0.00  0.00    +0.000 C 
ATOM     13  O   UNL     1       8.265   6.651  18.777  0.00  0.00    +0.000 OA
ATOM     14  H   UNL     1       7.025   8.391  16.427  0.00  0.00    +0.000 HD
ENDBRANCH   3  12
ENDBRANCH   1   7
BRANCH   1  15
ATOM     15  C   UNL     1       3.010   3.151  18.060  0.00  0.00    +0.000 C 
BRANCH  15  16
ATOM     16  C   UNL     1       2.666   4.210  19.056  0.00  0.00    +0.000 A 
ATOM     17  C   UNL     1       2.465   4.182  20.419  0.00  0.00    +0.000 A 
ATOM     18  C   UNL     1       2.107   5.499  20.797  0.00  0.00    +0.000 A 
ATOM     19  C   UNL     1       2.131   6.269  19.648  0.00  0.00    +0.000 A 
ATOM     20  O   UNL     1       2.463   5.476  18.583  0.00  0.00    +0.000 OA
BRANCH  19  21
ATOM     21  C   UNL     1       1.898   7.686  19.383  0.00  0.00    +0.000 A 
ATOM     22  C   UNL     1       1.099   8.485  20.208  0.00  0.00    +0.000 A 
ATOM     23  F   UNL     1       0.551   7.987  21.330  0.00  0.00    +0.000 F 
ATOM     24  C   UNL     1       0.813   9.816  19.889  0.00  0.00    +0.000 A 
ATOM     25  C   UNL     1       1.329  10.387  18.730  0.00  0.00    +0.000 A 
ATOM     26  C   UNL     1       2.149   9.625  17.905  0.00  0.00    +0.000 A 
ATOM     27  C   UNL     1       2.425   8.294  18.234  0.00  0.00    +0.000 A 
ATOM     28  F   UNL     1       3.222   7.605  17.399  0.00  0.00    +0.000 F 
ENDBRANCH  19  21
ENDBRANCH  15  16
ENDBRANCH   1  15
TORSDOF 5
ENDMDL
MODEL 2
REMARK VINA RESULT:      -8.4      3.163      6.784
REMARK  Name = 
REMARK  7 active torsions:
REMARK  status: ('A' for Active; 'I' for Inactive)
REMARK    1  A    between atoms: C_1  and  N_2
REMARK    2  A    between atoms: C_3  and  C_5
REMARK    3  A    between atoms: C_9  and  N_10
REMARK    4  A    between atoms: N_10  and  C_11
REMARK    5  A    between atoms: C_11  and  C_12
REMARK    6  A    between atoms: C_15  and  C_16
REMARK    7  A    between atoms: C_25  and  C_26
REMARK                            x       y       z     vdW  Elec       q    Type
REMARK                         _______ _______ _______ _____ _____    ______ ____
ROOT
ATOM      1  N   UNL     1       2.011   7.142  20.917  0.00  0.00    +0.000 N 
ATOM      2  H   UNL     1       2.115   7.381  21.902  0.00  0.00    +0.000 HD
ENDROOT
BRANCH   1   7
ATOM      3  C   UNL     1       0.522  10.447  19.990  0.00  0.00    +0.000 A 
ATOM      4  C   UNL     1       0.880  10.526  18.637  0.00  0.00    +0.000 A 
ATOM      5  C   UNL     1       1.568   9.480  18.040  0.00  0.00    +0.000 A 
ATOM      6  C   UNL     1       1.915   8.357  18.791  0.00  0.00    +0.000 A 
ATOM      7  C   UNL     1       1.570   8.231  20.150  0.00  0.00    +0.000 A 
ATOM      8  C   UNL     1       0.847   9.295  20.757  0.00  0.00    +0.000 A 
ATOM      9  C   UNL     1       0.447   9.243  22.214  0.00  0.00    +0.000 C 
BRANCH   3  12
ATOM     10  C   UNL     1      -0.077  13.771  21.716  0.00  0.00    +0.000 C 
ATOM     11  N   UNL     1       0.534  12.599  21.140  0.00  0.00    +0.000 N 
ATOM     12  C   UNL     1      -0.237  11.605  20.566  0.00  0.00    +0.000 C 
ATOM     13  O   UNL     1      -1.460  11.654  20.519  0.00  0.00    +0.000 OA
ATOM     14  H   UNL     1       1.517  12.429  21.310  0.00  0.00    +0.000 HD
ENDBRANCH   3  12
ENDBRANCH   1   7
BRANCH   1  15
ATOM     15  C   UNL     1       1.448   5.801  20.739  0.00  0.00    +0.000 C 
BRANCH  15  16
ATOM     16  C   UNL     1       2.426   4.775  20.266  0.00  0.00    +0.000 A 
ATOM     17  C   UNL     1       2.658   3.467  20.630  0.00  0.00    +0.000 A 
ATOM     18  C   UNL     1       3.761   3.028  19.859  0.00  0.00    +0.000 A 
ATOM     19  C   UNL     1       4.131   4.084  19.045  0.00  0.00    +0.000 A 
ATOM     20  O   UNL     1       3.320   5.155  19.303  0.00  0.00    +0.000 OA
BRANCH  19  21
ATOM     21  C   UNL     1       5.153   4.249  18.015  0.00  0.00    +0.000 A 
ATOM     22  C   UNL     1       6.420   4.774  18.289  0.00  0.00    +0.000 A 
ATOM     23  F   UNL     1       6.775   5.101  19.544  0.00  0.00    +0.000 F 
ATOM     24  C   UNL     1       7.354   5.011  17.276  0.00  0.00    +0.000 A 
ATOM     25  C   UNL     1       7.042   4.717  15.951  0.00  0.00    +0.000 A 
ATOM     26  C   UNL     1       5.799   4.168  15.653  0.00  0.00    +0.000 A 
ATOM     27  C   UNL     1       4.873   3.939  16.676  0.00  0.00    +0.000 A 
ATOM     28  F   UNL     1       3.689   3.409  16.328  0.00  0.00    +0.000 F 
ENDBRANCH  19  21
ENDBRANCH  15  16
ENDBRANCH   1  15
TORSDOF 5
ENDMDL
MODEL 3
REMARK VINA RESULT:      -8.4      3.408      7.050
REMARK  Name = 
REMARK  7 active torsions:
REMARK  status: ('A' for Active; 'I' for Inactive)
REMARK    1  A    between atoms: C_1  and  N_2
REMARK    2  A    between atoms: C_3  and  C_5
REMARK    3  A    between atoms: C_9  and  N_10
REMARK    4  A    between atoms: N_10  and  C_11
REMARK    5  A    between atoms: C_11  and  C_12
REMARK    6  A    between atoms: C_15  and  C_16
REMARK    7  A    between atoms: C_25  and  C_26
REMARK                            x       y       z     vdW  Elec       q    Type
REMARK                         _______ _______ _______ _____ _____    ______ ____
ROOT
ATOM      1  N   UNL     1       1.980   7.303  20.968  0.00  0.00    +0.000 N 
ATOM      2  H   UNL     1       2.173   7.485  21.951  0.00  0.00    +0.000 HD
ENDROOT
BRANCH   1   7
ATOM      3  C   UNL     1       0.484  10.678  20.359  0.00  0.00    +0.000 A 
ATOM      4  C   UNL     1       0.713  10.823  18.984  0.00  0.00    +0.000 A 
ATOM      5  C   UNL     1       1.319   9.798  18.271  0.00  0.00    +0.000 A 
ATOM      6  C   UNL     1       1.711   8.632  18.926  0.00  0.00    +0.000 A 
ATOM      7  C   UNL     1       1.493   8.439  20.303  0.00  0.00    +0.000 A 
ATOM      8  C   UNL     1       0.855   9.481  21.031  0.00  0.00    +0.000 A 
ATOM      9  C   UNL     1       0.593   9.359  22.515  0.00  0.00    +0.000 C 
BRANCH   3  12
ATOM     10  C   UNL     1      -2.329  12.925  21.554  0.00  0.00    +0.000 C 
ATOM     11  N   UNL     1      -1.564  11.884  20.914  0.00  0.00    +0.000 N 
ATOM     12  C   UNL     1      -0.191  11.816  21.064  0.00  0.00    +0.000 C 
ATOM     13  O   UNL     1       0.447  12.622  21.731  0.00  0.00    +0.000 OA
ATOM     14  H   UNL     1      -2.016  11.306  20.217  0.00  0.00    +0.000 HD
ENDBRANCH   3  12
ENDBRANCH   1   7
BRANCH   1  15
ATOM     15  C   UNL     1       1.382   5.981  20.765  0.00  0.00    +0.000 C 
BRANCH  15  16
ATOM     16  C   UNL     1       2.335   4.934  20.291  0.00  0.00    +0.000 A 
ATOM     17  C   UNL     1       2.523   3.613  20.638  0.00  0.00    +0.000 A 
ATOM     18  C   UNL     1       3.624   3.153  19.877  0.00  0.00    +0.000 A 
ATOM     19  C   UNL     1       4.038   4.210  19.086  0.00  0.00    +0.000 A 
ATOM     20  O   UNL     1       3.255   5.301  19.348  0.00  0.00    +0.000 OA
BRANCH  19  21
ATOM     21  C   UNL     1       5.081   4.361  18.074  0.00  0.00    +0.000 A 
ATOM     22  C   UNL     1       4.891   3.995  16.737  0.00  0.00    +0.000 A 
ATOM     23  F   UNL     1       3.703   3.536  16.309  0.00  0.00    +0.000 F 
ATOM     24  C   UNL     1       5.929   4.061  15.802  0.00  0.00    +0.000 A 
ATOM     25  C   UNL     1       7.192   4.505  16.185  0.00  0.00    +0.000 A 
ATOM     26  C   UNL     1       7.402   4.901  17.502  0.00  0.00    +0.000 A 
ATOM     27  C   UNL     1       6.356   4.828  18.427  0.00  0.00    +0.000 A 
ATOM     28  F   UNL     1       6.616   5.222  19.685  0.00  0.00    +0.000 F 
ENDBRANCH  19  21
ENDBRANCH  15  16
ENDBRANCH   1  15
TORSDOF 5
ENDMDL
MODEL 4
REMARK VINA RESULT:      -8.3      3.231      7.260
REMARK  Name = 
REMARK  7 active torsions:
REMARK  status: ('A' for Active; 'I' for Inactive)
REMARK    1  A    between atoms: C_1  and  N_2
REMARK    2  A    between atoms: C_3  and  C_5
REMARK    3  A    between atoms: C_9  and  N_10
REMARK    4  A    between atoms: N_10  and  C_11
REMARK    5  A    between atoms: C_11  and  C_12
REMARK    6  A    between atoms: C_15  and  C_16
REMARK    7  A    between atoms: C_25  and  C_26
REMARK                            x       y       z     vdW  Elec       q    Type
REMARK                         _______ _______ _______ _____ _____    ______ ____
ROOT
ATOM      1  N   UNL     1       1.879   7.638  20.839  0.00  0.00    +0.000 N 
ATOM      2  H   UNL     1       2.796   7.631  21.283  0.00  0.00    +0.000 HD
ENDROOT
BRANCH   1   7
ATOM      3  C   UNL     1      -0.159  10.766  20.577  0.00  0.00    +0.000 A 
ATOM      4  C   UNL     1      -0.588  10.911  21.903  0.00  0.00    +0.000 A 
ATOM      5  C   UNL     1      -0.174  10.006  22.869  0.00  0.00    +0.000 A 
ATOM      6  C   UNL     1       0.659   8.945  22.516  0.00  0.00    +0.000 A 
ATOM      7  C   UNL     1       1.123   8.764  21.199  0.00  0.00    +0.000 A 
ATOM      8  C   UNL     1       0.713   9.703  20.212  0.00  0.00    +0.000 A 
ATOM      9  C   UNL     1       1.156   9.576  18.773  0.00  0.00    +0.000 C 
BRANCH   3  12
ATOM     10  C   UNL     1      -0.177  13.966  18.541  0.00  0.00    +0.000 C 
ATOM     11  N   UNL     1       0.163  12.916  19.468  0.00  0.00    +0.000 N 
ATOM     12  C   UNL     1      -0.630  11.790  19.588  0.00  0.00    +0.000 C 
ATOM     13  O   UNL     1      -1.651  11.621  18.932  0.00  0.00    +0.000 OA
ATOM     14  H   UNL     1       0.889  13.086  20.152  0.00  0.00    +0.000 HD
ENDBRANCH   3  12
ENDBRANCH   1   7
BRANCH   1  15
ATOM     15  C   UNL     1       1.286   6.300  20.794  0.00  0.00    +0.000 C 
BRANCH  15  16
ATOM     16  C   UNL     1       2.234   5.213  20.408  0.00  0.00    +0.000 A 
ATOM     17  C   UNL     1       2.416   3.925  20.862  0.00  0.00    +0.000 A 
ATOM     18  C   UNL     1       3.515   3.399  20.142  0.00  0.00    +0.000 A 
ATOM     19  C   UNL     1       3.933   4.385  19.266  0.00  0.00    +0.000 A 
ATOM     20  O   UNL     1       3.156   5.497  19.438  0.00  0.00    +0.000 OA
BRANCH  19  21
ATOM     21  C   UNL     1       4.977   4.447  18.245  0.00  0.00    +0.000 A 
ATOM     22  C   UNL     1       6.263   4.928  18.512  0.00  0.00    +0.000 A 
ATOM     23  F   UNL     1       6.616   5.305  19.753  0.00  0.00    +0.000 F 
ATOM     24  C   UNL     1       7.220   5.065  17.502  0.00  0.00    +0.000 A 
ATOM     25  C   UNL     1       6.914   4.715  16.191  0.00  0.00    +0.000 A 
ATOM     26  C   UNL     1       5.651   4.208  15.902  0.00  0.00    +0.000 A 
ATOM     27  C   UNL     1       4.701   4.078  16.920  0.00  0.00    +0.000 A 
ATOM     28  F   UNL     1       3.499   3.584  16.582  0.00  0.00    +0.000 F 
ENDBRANCH  19  21
ENDBRANCH  15  16
ENDBRANCH   1  15
TORSDOF 5
ENDMDL
MODEL 5
REMARK VINA RESULT:      -8.3      3.232      7.169
REMARK  Name = 
REMARK  7 active torsions:
REMARK  status: ('A' for Active; 'I' for Inactive)
REMARK    1  A    between atoms: C_1  and  N_2
REMARK    2  A    between atoms: C_3  and  C_5
REMARK    3  A    between atoms: C_9  and  N_10
REMARK    4  A    between atoms: N_10  and  C_11
REMARK    5  A    between atoms: C_11  and  C_12
REMARK    6  A    between atoms: C_15  and  C_16
REMARK    7  A    between atoms: C_25  and  C_26
REMARK                            x       y       z     vdW  Elec       q    Type
REMARK                         _______ _______ _______ _____ _____    ______ ____
ROOT
ATOM      1  N   UNL     1       2.114   7.495  20.682  0.00  0.00    +0.000 N 
ATOM      2  H   UNL     1       3.067   7.669  20.998  0.00  0.00    +0.000 HD
ENDROOT
BRANCH   1   7
ATOM      3  C   UNL     1      -0.108  10.410  19.924  0.00  0.00    +0.000 A 
ATOM      4  C   UNL     1      -0.566  10.731  21.209  0.00  0.00    +0.000 A 
ATOM      5  C   UNL     1      -0.112  10.014  22.306  0.00  0.00    +0.000 A 
ATOM      6  C   UNL     1       0.791   8.966  22.128  0.00  0.00    +0.000 A 
ATOM      7  C   UNL     1       1.285   8.613  20.858  0.00  0.00    +0.000 A 
ATOM      8  C   UNL     1       0.833   9.360  19.735  0.00  0.00    +0.000 A 
ATOM      9  C   UNL     1       1.307   9.039  18.335  0.00  0.00    +0.000 C 
BRANCH   3  12
ATOM     10  C   UNL     1      -2.353  11.452  17.051  0.00  0.00    +0.000 C 
ATOM     11  N   UNL     1      -1.751  10.742  18.151  0.00  0.00    +0.000 N 
ATOM     12  C   UNL     1      -0.626  11.235  18.785  0.00  0.00    +0.000 C 
ATOM     13  O   UNL     1      -0.079  12.281  18.454  0.00  0.00    +0.000 OA
ATOM     14  H   UNL     1      -2.055   9.796  18.346  0.00  0.00    +0.000 HD
ENDBRANCH   3  12
ENDBRANCH   1   7
BRANCH   1  15
ATOM     15  C   UNL     1       1.664   6.145  21.028  0.00  0.00    +0.000 C 
BRANCH  15  16
ATOM     16  C   UNL     1       2.414   5.047  20.348  0.00  0.00    +0.000 A 
ATOM     17  C   UNL     1       2.319   3.673  20.407  0.00  0.00    +0.000 A 
ATOM     18  C   UNL     1       3.345   3.167  19.573  0.00  0.00    +0.000 A 
ATOM     19  C   UNL     1       3.998   4.257  19.028  0.00  0.00    +0.000 A 
ATOM     20  O   UNL     1       3.435   5.407  19.512  0.00  0.00    +0.000 OA
BRANCH  19  21
ATOM     21  C   UNL     1       5.100   4.399  18.079  0.00  0.00    +0.000 A 
ATOM     22  C   UNL     1       6.346   4.918  18.444  0.00  0.00    +0.000 A 
ATOM     23  F   UNL     1       6.605   5.261  19.718  0.00  0.00    +0.000 F 
ATOM     24  C   UNL     1       7.359   5.131  17.504  0.00  0.00    +0.000 A 
ATOM     25  C   UNL     1       7.149   4.819  16.164  0.00  0.00    +0.000 A 
ATOM     26  C   UNL     1       5.929   4.275  15.776  0.00  0.00    +0.000 A 
ATOM     27  C   UNL     1       4.924   4.070  16.727  0.00  0.00    +0.000 A 
ATOM     28  F   UNL     1       3.766   3.543  16.296  0.00  0.00    +0.000 F 
ENDBRANCH  19  21
ENDBRANCH  15  16
ENDBRANCH   1  15
TORSDOF 5
ENDMDL
MODEL 6
REMARK VINA RESULT:      -8.2      3.099      5.577
REMARK  Name = 
REMARK  7 active torsions:
REMARK  status: ('A' for Active; 'I' for Inactive)
REMARK    1  A    between atoms: C_1  and  N_2
REMARK    2  A    between atoms: C_3  and  C_5
REMARK    3  A    between atoms: C_9  and  N_10
REMARK    4  A    between atoms: N_10  and  C_11
REMARK    5  A    between atoms: C_11  and  C_12
REMARK    6  A    between atoms: C_15  and  C_16
REMARK    7  A    between atoms: C_25  and  C_26
REMARK                            x       y       z     vdW  Elec       q    Type
REMARK                         _______ _______ _______ _____ _____    ______ ____
ROOT
ATOM      1  N   UNL     1       7.141   5.141  16.391  0.00  0.00    +0.000 N 
ATOM      2  H   UNL     1       7.917   4.737  16.914  0.00  0.00    +0.000 HD
ENDROOT
BRANCH   1   7
ATOM      3  C   UNL     1       6.550   3.960  12.889  0.00  0.00    +0.000 A 
ATOM      4  C   UNL     1       7.434   4.786  12.181  0.00  0.00    +0.000 A 
ATOM      5  C   UNL     1       8.237   5.688  12.864  0.00  0.00    +0.000 A 
ATOM      6  C   UNL     1       8.153   5.782  14.253  0.00  0.00    +0.000 A 
ATOM      7  C   UNL     1       7.287   4.967  15.006  0.00  0.00    +0.000 A 
ATOM      8  C   UNL     1       6.477   4.029  14.308  0.00  0.00    +0.000 A 
ATOM      9  C   UNL     1       5.512   3.125  15.040  0.00  0.00    +0.000 C 
BRANCH   3  12
ATOM     10  C   UNL     1       5.678   0.823  10.944  0.00  0.00    +0.000 C 
ATOM     11  N   UNL     1       6.368   1.835  11.704  0.00  0.00    +0.000 N 
ATOM     12  C   UNL     1       5.725   2.996  12.091  0.00  0.00    +0.000 C 
ATOM     13  O   UNL     1       4.556   3.234  11.813  0.00  0.00    +0.000 OA
ATOM     14  H   UNL     1       7.373   1.768  11.804  0.00  0.00    +0.000 HD
ENDBRANCH   3  12
ENDBRANCH   1   7
BRANCH   1  15
ATOM     15  C   UNL     1       6.707   6.419  16.962  0.00  0.00    +0.000 C 
BRANCH  15  16
ATOM     16  C   UNL     1       5.247   6.498  17.265  0.00  0.00    +0.000 A 
ATOM     17  C   UNL     1       4.313   7.500  17.110  0.00  0.00    +0.000 A 
ATOM     18  C   UNL     1       3.098   6.997  17.635  0.00  0.00    +0.000 A 
ATOM     19  C   UNL     1       3.347   5.705  18.064  0.00  0.00    +0.000 A 
ATOM     20  O   UNL     1       4.665   5.406  17.846  0.00  0.00    +0.000 OA
BRANCH  19  21
ATOM     21  C   UNL     1       2.511   4.663  18.653  0.00  0.00    +0.000 A 
ATOM     22  C   UNL     1       2.152   3.503  17.959  0.00  0.00    +0.000 A 
ATOM     23  F   UNL     1       2.616   3.269  16.719  0.00  0.00    +0.000 F 
ATOM     24  C   UNL     1       1.277   2.560  18.505  0.00  0.00    +0.000 A 
ATOM     25  C   UNL     1       0.740   2.752  19.775  0.00  0.00    +0.000 A 
ATOM     26  C   UNL     1       1.102   3.883  20.500  0.00  0.00    +0.000 A 
ATOM     27  C   UNL     1       1.976   4.820  19.940  0.00  0.00    +0.000 A 
ATOM     28  F   UNL     1       2.288   5.893  20.686  0.00  0.00    +0.000 F 
ENDBRANCH  19  21
ENDBRANCH  15  16
ENDBRANCH   1  15
TORSDOF 5
ENDMDL
MODEL 7
REMARK VINA RESULT:      -8.2      0.279      1.643
REMARK  Name = 
REMARK  7 active torsions:
REMARK  status: ('A' for Active; 'I' for Inactive)
REMARK    1  A    between atoms: C_1  and  N_2
REMARK    2  A    between atoms: C_3  and  C_5
REMARK    3  A    between atoms: C_9  and  N_10
REMARK    4  A    between atoms: N_10  and  C_11
REMARK    5  A    between atoms: C_11  and  C_12
REMARK    6  A    between atoms: C_15  and  C_16
REMARK    7  A    between atoms: C_25  and  C_26
REMARK                            x       y       z     vdW  Elec       q    Type
REMARK                         _______ _______ _______ _____ _____    ______ ____
ROOT
ATOM      1  N   UNL     1       4.262   3.116  17.661  0.00  0.00    +0.000 N 
ATOM      2  H   UNL     1       4.669   2.750  18.521  0.00  0.00    +0.000 HD
ENDROOT
BRANCH   1   7
ATOM      3  C   UNL     1       6.800   5.811  17.115  0.00  0.00    +0.000 A 
ATOM      4  C   UNL     1       6.994   5.712  15.730  0.00  0.00    +0.000 A 
ATOM      5  C   UNL     1       6.263   4.793  14.992  0.00  0.00    +0.000 A 
ATOM      6  C   UNL     1       5.347   3.958  15.631  0.00  0.00    +0.000 A 
ATOM      7  C   UNL     1       5.113   4.028  17.018  0.00  0.00    +0.000 A 
ATOM      8  C   UNL     1       5.849   4.983  17.772  0.00  0.00    +0.000 A 
ATOM      9  C   UNL     1       5.666   5.115  19.267  0.00  0.00    +0.000 C 
BRANCH   3  12
ATOM     10  C   UNL     1       8.257   9.205  17.977  0.00  0.00    +0.000 C 
ATOM     11  N   UNL     1       7.535   8.126  17.351  0.00  0.00    +0.000 N 
ATOM     12  C   UNL     1       7.610   6.838  17.848  0.00  0.00    +0.000 C 
ATOM     13  O   UNL     1       8.285   6.540  18.826  0.00  0.00    +0.000 OA
ATOM     14  H   UNL     1       7.111   8.284  16.446  0.00  0.00    +0.000 HD
ENDBRANCH   3  12
ENDBRANCH   1   7
BRANCH   1  15
ATOM     15  C   UNL     1       2.828   3.377  17.806  0.00  0.00    +0.000 C 
BRANCH  15  16
ATOM     16  C   UNL     1       2.485   4.408  18.830  0.00  0.00    +0.000 A 
ATOM     17  C   UNL     1       2.283   4.342  20.192  0.00  0.00    +0.000 A 
ATOM     18  C   UNL     1       1.927   5.648  20.606  0.00  0.00    +0.000 A 
ATOM     19  C   UNL     1       1.952   6.450  19.479  0.00  0.00    +0.000 A 
ATOM     20  O   UNL     1       2.283   5.688  18.392  0.00  0.00    +0.000 OA
BRANCH  19  21
ATOM     21  C   UNL     1       1.721   7.875  19.254  0.00  0.00    +0.000 A 
ATOM     22  C   UNL     1       2.217   8.550  18.134  0.00  0.00    +0.000 A 
ATOM     23  F   UNL     1       2.891   7.893  17.174  0.00  0.00    +0.000 F 
ATOM     24  C   UNL     1       2.064   9.931  17.980  0.00  0.00    +0.000 A 
ATOM     25  C   UNL     1       1.397  10.676  18.949  0.00  0.00    +0.000 A 
ATOM     26  C   UNL     1       0.869  10.027  20.059  0.00  0.00    +0.000 A 
ATOM     27  C   UNL     1       1.032   8.645  20.202  0.00  0.00    +0.000 A 
ATOM     28  F   UNL     1       0.502   8.072  21.296  0.00  0.00    +0.000 F 
ENDBRANCH  19  21
ENDBRANCH  15  16
ENDBRANCH   1  15
TORSDOF 5
ENDMDL
MODEL 8
REMARK VINA RESULT:      -8.2      4.168      8.016
REMARK  Name = 
REMARK  7 active torsions:
REMARK  status: ('A' for Active; 'I' for Inactive)
REMARK    1  A    between atoms: C_1  and  N_2
REMARK    2  A    between atoms: C_3  and  C_5
REMARK    3  A    between atoms: C_9  and  N_10
REMARK    4  A    between atoms: N_10  and  C_11
REMARK    5  A    between atoms: C_11  and  C_12
REMARK    6  A    between atoms: C_15  and  C_16
REMARK    7  A    between atoms: C_25  and  C_26
REMARK                            x       y       z     vdW  Elec       q    Type
REMARK                         _______ _______ _______ _____ _____    ______ ____
ROOT
ATOM      1  N   UNL     1       1.043   9.652  19.013  0.00  0.00    +0.000 N 
ATOM      2  H   UNL     1       1.025   8.866  19.662  0.00  0.00    +0.000 HD
ENDROOT
BRANCH   1   7
ATOM      3  C   UNL     1      -1.955  11.846  19.459  0.00  0.00    +0.000 A 
ATOM      4  C   UNL     1      -2.697  11.511  18.318  0.00  0.00    +0.000 A 
ATOM      5  C   UNL     1      -2.223  10.545  17.442  0.00  0.00    +0.000 A 
ATOM      6  C   UNL     1      -1.003   9.919  17.691  0.00  0.00    +0.000 A 
ATOM      7  C   UNL     1      -0.227  10.217  18.827  0.00  0.00    +0.000 A 
ATOM      8  C   UNL     1      -0.722  11.194  19.735  0.00  0.00    +0.000 A 
ATOM      9  C   UNL     1       0.054  11.580  20.974  0.00  0.00    +0.000 C 
BRANCH   3  12
ATOM     10  C   UNL     1      -2.601  15.272  20.952  0.00  0.00    +0.000 C 
ATOM     11  N   UNL     1      -2.107  14.182  20.149  0.00  0.00    +0.000 N 
ATOM     12  C   UNL     1      -2.533  12.885  20.371  0.00  0.00    +0.000 C 
ATOM     13  O   UNL     1      -3.335  12.589  21.249  0.00  0.00    +0.000 OA
ATOM     14  H   UNL     1      -1.319  14.346  19.536  0.00  0.00    +0.000 HD
ENDBRANCH   3  12
ENDBRANCH   1   7
BRANCH   1  15
ATOM     15  C   UNL     1       1.945   9.405  17.885  0.00  0.00    +0.000 C 
BRANCH  15  16
ATOM     16  C   UNL     1       2.591   8.058  17.890  0.00  0.00    +0.000 A 
ATOM     17  C   UNL     1       3.810   7.604  17.434  0.00  0.00    +0.000 A 
ATOM     18  C   UNL     1       3.829   6.208  17.671  0.00  0.00    +0.000 A 
ATOM     19  C   UNL     1       2.631   5.885  18.282  0.00  0.00    +0.000 A 
ATOM     20  O   UNL     1       1.870   7.016  18.406  0.00  0.00    +0.000 OA
BRANCH  19  21
ATOM     21  C   UNL     1       2.071   4.640  18.802  0.00  0.00    +0.000 A 
ATOM     22  C   UNL     1       1.582   4.522  20.107  0.00  0.00    +0.000 A 
ATOM     23  F   UNL     1       1.554   5.582  20.933  0.00  0.00    +0.000 F 
ATOM     24  C   UNL     1       1.133   3.299  20.616  0.00  0.00    +0.000 A 
ATOM     25  C   UNL     1       1.157   2.157  19.822  0.00  0.00    +0.000 A 
ATOM     26  C   UNL     1       1.612   2.251  18.511  0.00  0.00    +0.000 A 
ATOM     27  C   UNL     1       2.060   3.480  18.015  0.00  0.00    +0.000 A 
ATOM     28  F   UNL     1       2.490   3.511  16.742  0.00  0.00    +0.000 F 
ENDBRANCH  19  21
ENDBRANCH  15  16
ENDBRANCH   1  15
TORSDOF 5
ENDMDL
MODEL 9
REMARK VINA RESULT:      -8.1      4.395      8.379
REMARK  Name = 
REMARK  7 active torsions:
REMARK  status: ('A' for Active; 'I' for Inactive)
REMARK    1  A    between atoms: C_1  and  N_2
REMARK    2  A    between atoms: C_3  and  C_5
REMARK    3  A    between atoms: C_9  and  N_10
REMARK    4  A    between atoms: N_10  and  C_11
REMARK    5  A    between atoms: C_11  and  C_12
REMARK    6  A    between atoms: C_15  and  C_16
REMARK    7  A    between atoms: C_25  and  C_26
REMARK                            x       y       z     vdW  Elec       q    Type
REMARK                         _______ _______ _______ _____ _____    ______ ____
ROOT
ATOM      1  N   UNL     1       0.453   9.579  17.794  0.00  0.00    +0.000 N 
ATOM      2  H   UNL     1       0.107   9.345  16.865  0.00  0.00    +0.000 HD
ENDROOT
BRANCH   1   7
ATOM      3  C   UNL     1      -2.487  11.635  18.861  0.00  0.00    +0.000 A 
ATOM      4  C   UNL     1      -1.892  12.463  19.823  0.00  0.00    +0.000 A 
ATOM      5  C   UNL     1      -0.533  12.362  20.080  0.00  0.00    +0.000 A 
ATOM      6  C   UNL     1       0.238  11.427  19.389  0.00  0.00    +0.000 A 
ATOM      7  C   UNL     1      -0.314  10.581  18.409  0.00  0.00    +0.000 A 
ATOM      8  C   UNL     1      -1.704  10.697  18.132  0.00  0.00    +0.000 A 
ATOM      9  C   UNL     1      -2.377   9.819  17.102  0.00  0.00    +0.000 C 
BRANCH   3  12
ATOM     10  C   UNL     1      -5.696  12.371  16.979  0.00  0.00    +0.000 C 
ATOM     11  N   UNL     1      -4.313  12.185  17.339  0.00  0.00    +0.000 N 
ATOM     12  C   UNL     1      -3.956  11.809  18.621  0.00  0.00    +0.000 C 
ATOM     13  O   UNL     1      -4.775  11.621  19.512  0.00  0.00    +0.000 OA
ATOM     14  H   UNL     1      -3.596  12.496  16.696  0.00  0.00    +0.000 HD
ENDBRANCH   3  12
ENDBRANCH   1   7
BRANCH   1  15
ATOM     15  C   UNL     1       1.917   9.596  17.842  0.00  0.00    +0.000 C 
BRANCH  15  16
ATOM     16  C   UNL     1       2.552   8.245  17.897  0.00  0.00    +0.000 A 
ATOM     17  C   UNL     1       3.756   7.759  17.435  0.00  0.00    +0.000 A 
ATOM     18  C   UNL     1       3.770   6.376  17.739  0.00  0.00    +0.000 A 
ATOM     19  C   UNL     1       2.583   6.094  18.392  0.00  0.00    +0.000 A 
ATOM     20  O   UNL     1       1.835   7.236  18.478  0.00  0.00    +0.000 OA
BRANCH  19  21
ATOM     21  C   UNL     1       2.025   4.880  18.984  0.00  0.00    +0.000 A 
ATOM     22  C   UNL     1       1.719   4.778  20.345  0.00  0.00    +0.000 A 
ATOM     23  F   UNL     1       1.875   5.829  21.168  0.00  0.00    +0.000 F 
ATOM     24  C   UNL     1       1.272   3.580  20.910  0.00  0.00    +0.000 A 
ATOM     25  C   UNL     1       1.111   2.447  20.118  0.00  0.00    +0.000 A 
ATOM     26  C   UNL     1       1.381   2.527  18.756  0.00  0.00    +0.000 A 
ATOM     27  C   UNL     1       1.831   3.731  18.204  0.00  0.00    +0.000 A 
ATOM     28  F   UNL     1       2.077   3.749  16.883  0.00  0.00    +0.000 F 
ENDBRANCH  19  21
ENDBRANCH  15  16
ENDBRANCH   1  15
TORSDOF 5
ENDMDL
