MODEL 1
REMARK VINA RESULT:      -9.2      0.000      0.000
REMARK  Name = 
REMARK  4 active torsions:
REMARK  status: ('A' for Active; 'I' for Inactive)
REMARK    1  A    between atoms: C_7  and  S_8
REMARK    2  A    between atoms: S_8  and  N_11
REMARK    3  A    between atoms: N_11  and  C_12
REMARK    4  A    between atoms: C_16  and  C_17
REMARK                            x       y       z     vdW  Elec       q    Type
REMARK                         _______ _______ _______ _____ _____    ______ ____
ROOT
ATOM      1  S   UNL     1       2.906   3.182  18.780  0.00  0.00    +0.000 S 
ATOM      2  O   UNL     1       2.381   2.309  19.808  0.00  0.00    +0.000 OA
ATOM      3  O   UNL     1       2.605   2.952  17.382  0.00  0.00    +0.000 OA
ENDROOT
BRANCH   1  10
ATOM      4  O   UNL     1       1.035  10.930  19.733  0.00  0.00    +0.000 OA
ATOM      5  C   UNL     1       1.290   9.789  19.355  0.00  0.00    +0.000 C 
ATOM      6  C   UNL     1       1.322   9.408  17.894  0.00  0.00    +0.000 C 
ATOM      7  C   UNL     1       2.341   8.313  17.621  0.00  0.00    +0.000 C 
ATOM      8  C   UNL     1       2.177   7.172  18.589  0.00  0.00    +0.000 A 
ATOM      9  C   UNL     1       2.528   5.861  18.242  0.00  0.00    +0.000 A 
ATOM     10  C   UNL     1       2.443   4.847  19.202  0.00  0.00    +0.000 A 
ATOM     11  C   UNL     1       2.056   5.137  20.515  0.00  0.00    +0.000 A 
ATOM     12  C   UNL     1       1.720   6.447  20.865  0.00  0.00    +0.000 A 
ATOM     13  C   UNL     1       1.770   7.454  19.901  0.00  0.00    +0.000 A 
ATOM     14  N   UNL     1       1.437   8.765  20.254  0.00  0.00    +0.000 N 
ATOM     15  H   UNL     1       1.280   9.009  21.224  0.00  0.00    +0.000 HD
ENDBRANCH   1  10
BRANCH   1  16
ATOM     16  N   UNL     1       4.572   3.184  18.977  0.00  0.00    +0.000 N 
ATOM     17  H   UNL     1       4.961   2.279  19.232  0.00  0.00    +0.000 HD
BRANCH  16  18
ATOM     18  C   UNL     1       5.381   4.108  18.270  0.00  0.00    +0.000 A 
ATOM     19  C   UNL     1       6.038   5.104  18.990  0.00  0.00    +0.000 A 
ATOM     20  C   UNL     1       6.909   5.971  18.339  0.00  0.00    +0.000 A 
ATOM     21  C   UNL     1       7.132   5.830  16.968  0.00  0.00    +0.000 A 
ATOM     22  C   UNL     1       6.470   4.838  16.228  0.00  0.00    +0.000 A 
ATOM     23  C   UNL     1       5.578   3.980  16.892  0.00  0.00    +0.000 A 
BRANCH  22  24
ATOM     24  C   UNL     1       6.774   4.694  14.807  0.00  0.00    +0.000 A 
ATOM     25  N   UNL     1       7.551   5.479  14.083  0.00  0.00    +0.000 NA
ATOM     26  N   UNL     1       7.596   4.988  12.799  0.00  0.00    +0.000 NA
ATOM     27  C   UNL     1       6.826   3.929  12.756  0.00  0.00    +0.000 A 
ATOM     28  N   UNL     1       6.280   3.714  13.984  0.00  0.00    +0.000 N 
ATOM     29  H   UNL     1       5.624   2.991  14.236  0.00  0.00    +0.000 HD
ENDBRANCH  22  24
ENDBRANCH  16  18
ENDBRANCH   1  16
TORSDOF 4
ENDMDL
MODEL 2
REMARK VINA RESULT:      -8.8      0.805      1.550
REMARK  Name = 
REMARK  4 active torsions:
REMARK  status: ('A' for Active; 'I' for Inactive)
REMARK    1  A    between atoms: C_7  and  S_8
REMARK    2  A    between atoms: S_8  and  N_11
REMARK    3  A    between atoms: N_11  and  C_12
REMARK    4  A    between atoms: C_16  and  C_17
REMARK                            x       y       z     vdW  Elec       q    Type
REMARK                         _______ _______ _______ _____ _____    ______ ____
ROOT
ATOM      1  S   UNL     1       3.554   3.364  19.217  0.00  0.00    +0.000 S 
ATOM      2  O   UNL     1       3.151   2.799  20.487  0.00  0.00    +0.000 OA
ATOM      3  O   UNL     1       3.209   2.714  17.970  0.00  0.00    +0.000 OA
ENDROOT
BRANCH   1  10
ATOM      4  O   UNL     1       0.626  10.803  19.944  0.00  0.00    +0.000 OA
ATOM      5  C   UNL     1       1.075   9.667  20.071  0.00  0.00    +0.000 C 
ATOM      6  C   UNL     1       1.273   9.020  21.422  0.00  0.00    +0.000 C 
ATOM      7  C   UNL     1       1.070   7.515  21.360  0.00  0.00    +0.000 C 
ATOM      8  C   UNL     1       1.857   6.913  20.227  0.00  0.00    +0.000 A 
ATOM      9  C   UNL     1       2.325   5.593  20.281  0.00  0.00    +0.000 A 
ATOM     10  C   UNL     1       2.974   5.045  19.169  0.00  0.00    +0.000 A 
ATOM     11  C   UNL     1       3.119   5.786  17.991  0.00  0.00    +0.000 A 
ATOM     12  C   UNL     1       2.639   7.096  17.932  0.00  0.00    +0.000 A 
ATOM     13  C   UNL     1       2.023   7.657  19.051  0.00  0.00    +0.000 A 
ATOM     14  N   UNL     1       1.540   8.967  18.989  0.00  0.00    +0.000 N 
ATOM     15  H   UNL     1       1.525   9.465  18.107  0.00  0.00    +0.000 HD
ENDBRANCH   1  10
BRANCH   1  16
ATOM     16  N   UNL     1       5.221   3.535  19.291  0.00  0.00    +0.000 N 
ATOM     17  H   UNL     1       5.709   2.705  19.622  0.00  0.00    +0.000 HD
BRANCH  16  18
ATOM     18  C   UNL     1       5.894   4.430  18.422  0.00  0.00    +0.000 A 
ATOM     19  C   UNL     1       6.555   5.524  18.977  0.00  0.00    +0.000 A 
ATOM     20  C   UNL     1       7.299   6.371  18.162  0.00  0.00    +0.000 A 
ATOM     21  C   UNL     1       7.392   6.113  16.793  0.00  0.00    +0.000 A 
ATOM     22  C   UNL     1       6.722   5.020  16.219  0.00  0.00    +0.000 A 
ATOM     23  C   UNL     1       5.959   4.183  17.048  0.00  0.00    +0.000 A 
BRANCH  22  24
ATOM     24  C   UNL     1       6.890   4.759  14.793  0.00  0.00    +0.000 A 
ATOM     25  N   UNL     1       7.658   5.428  13.952  0.00  0.00    +0.000 NA
ATOM     26  N   UNL     1       7.555   4.851  12.708  0.00  0.00    +0.000 NA
ATOM     27  C   UNL     1       6.706   3.857  12.805  0.00  0.00    +0.000 A 
ATOM     28  N   UNL     1       6.254   3.769  14.086  0.00  0.00    +0.000 N 
ATOM     29  H   UNL     1       5.570   3.120  14.443  0.00  0.00    +0.000 HD
ENDBRANCH  22  24
ENDBRANCH  16  18
ENDBRANCH   1  16
TORSDOF 4
ENDMDL
MODEL 3
REMARK VINA RESULT:      -8.7      1.836      2.803
REMARK  Name = 
REMARK  4 active torsions:
REMARK  status: ('A' for Active; 'I' for Inactive)
REMARK    1  A    between atoms: C_7  and  S_8
REMARK    2  A    between atoms: S_8  and  N_11
REMARK    3  A    between atoms: N_11  and  C_12
REMARK    4  A    between atoms: C_16  and  C_17
REMARK                            x       y       z     vdW  Elec       q    Type
REMARK                         _______ _______ _______ _____ _____    ______ ____
ROOT
ATOM      1  S   UNL     1       2.895   2.965  18.451  0.00  0.00    +0.000 S 
ATOM      2  O   UNL     1       2.552   2.049  19.517  0.00  0.00    +0.000 OA
ATOM      3  O   UNL     1       2.395   2.764  17.106  0.00  0.00    +0.000 OA
ENDROOT
BRANCH   1  10
ATOM      4  O   UNL     1       1.135  10.653  19.943  0.00  0.00    +0.000 OA
ATOM      5  C   UNL     1       1.372   9.537  19.486  0.00  0.00    +0.000 C 
ATOM      6  C   UNL     1       1.390   9.257  18.002  0.00  0.00    +0.000 C 
ATOM      7  C   UNL     1       2.392   8.170  17.648  0.00  0.00    +0.000 C 
ATOM      8  C   UNL     1       2.219   6.968  18.538  0.00  0.00    +0.000 A 
ATOM      9  C   UNL     1       2.550   5.679  18.099  0.00  0.00    +0.000 A 
ATOM     10  C   UNL     1       2.458   4.603  18.988  0.00  0.00    +0.000 A 
ATOM     11  C   UNL     1       2.082   4.808  20.321  0.00  0.00    +0.000 A 
ATOM     12  C   UNL     1       1.767   6.095  20.762  0.00  0.00    +0.000 A 
ATOM     13  C   UNL     1       1.824   7.165  19.868  0.00  0.00    +0.000 A 
ATOM     14  N   UNL     1       1.511   8.453  20.312  0.00  0.00    +0.000 N 
ATOM     15  H   UNL     1       1.364   8.632  21.297  0.00  0.00    +0.000 HD
ENDBRANCH   1  10
BRANCH   1  16
ATOM     16  N   UNL     1       4.571   3.012  18.399  0.00  0.00    +0.000 N 
ATOM     17  H   UNL     1       5.019   2.129  18.637  0.00  0.00    +0.000 HD
BRANCH  16  18
ATOM     18  C   UNL     1       5.241   3.914  17.536  0.00  0.00    +0.000 A 
ATOM     19  C   UNL     1       5.040   3.794  16.162  0.00  0.00    +0.000 A 
ATOM     20  C   UNL     1       5.612   4.718  15.293  0.00  0.00    +0.000 A 
ATOM     21  C   UNL     1       6.374   5.769  15.803  0.00  0.00    +0.000 A 
ATOM     22  C   UNL     1       6.595   5.897  17.184  0.00  0.00    +0.000 A 
ATOM     23  C   UNL     1       6.028   4.948  18.050  0.00  0.00    +0.000 A 
BRANCH  22  24
ATOM     24  C   UNL     1       7.355   7.042  17.676  0.00  0.00    +0.000 A 
ATOM     25  N   UNL     1       7.373   8.258  17.160  0.00  0.00    +0.000 NA
ATOM     26  N   UNL     1       8.192   9.050  17.931  0.00  0.00    +0.000 NA
ATOM     27  C   UNL     1       8.680   8.297  18.887  0.00  0.00    +0.000 A 
ATOM     28  N   UNL     1       8.195   7.032  18.761  0.00  0.00    +0.000 N 
ATOM     29  H   UNL     1       8.425   6.235  19.335  0.00  0.00    +0.000 HD
ENDBRANCH  22  24
ENDBRANCH  16  18
ENDBRANCH   1  16
TORSDOF 4
ENDMDL
MODEL 4
REMARK VINA RESULT:      -8.7      3.428      5.419
REMARK  Name = 
REMARK  4 active torsions:
REMARK  status: ('A' for Active; 'I' for Inactive)
REMARK    1  A    between atoms: C_7  and  S_8
REMARK    2  A    between atoms: S_8  and  N_11
REMARK    3  A    between atoms: N_11  and  C_12
REMARK    4  A    between atoms: C_16  and  C_17
REMARK                            x       y       z     vdW  Elec       q    Type
REMARK                         _______ _______ _______ _____ _____    ______ ____
ROOT
ATOM      1  S   UNL     1       5.350   5.517  15.322  0.00  0.00    +0.000 S 
ATOM      2  O   UNL     1       5.227   4.590  14.218  0.00  0.00    +0.000 OA
ATOM      3  O   UNL     1       4.904   6.889  15.196  0.00  0.00    +0.000 OA
ENDROOT
BRANCH   1  10
ATOM      4  O   UNL     1       1.527   3.131  21.965  0.00  0.00    +0.000 OA
ATOM      5  C   UNL     1       1.985   3.696  20.975  0.00  0.00    +0.000 C 
ATOM      6  C   UNL     1       1.604   5.109  20.599  0.00  0.00    +0.000 C 
ATOM      7  C   UNL     1       2.750   5.839  19.919  0.00  0.00    +0.000 C 
ATOM      8  C   UNL     1       3.336   5.004  18.811  0.00  0.00    +0.000 A 
ATOM      9  C   UNL     1       3.945   5.594  17.694  0.00  0.00    +0.000 A 
ATOM     10  C   UNL     1       4.555   4.781  16.733  0.00  0.00    +0.000 A 
ATOM     11  C   UNL     1       4.602   3.392  16.898  0.00  0.00    +0.000 A 
ATOM     12  C   UNL     1       4.008   2.806  18.018  0.00  0.00    +0.000 A 
ATOM     13  C   UNL     1       3.369   3.611  18.960  0.00  0.00    +0.000 A 
ATOM     14  N   UNL     1       2.778   3.024  20.083  0.00  0.00    +0.000 N 
ATOM     15  H   UNL     1       2.916   2.039  20.277  0.00  0.00    +0.000 HD
ENDBRANCH   1  10
BRANCH   1  16
ATOM     16  N   UNL     1       6.972   5.516  15.751  0.00  0.00    +0.000 N 
ATOM     17  H   UNL     1       7.611   5.542  14.959  0.00  0.00    +0.000 HD
BRANCH  16  18
ATOM     18  C   UNL     1       7.391   6.058  16.992  0.00  0.00    +0.000 A 
ATOM     19  C   UNL     1       7.576   5.191  18.066  0.00  0.00    +0.000 A 
ATOM     20  C   UNL     1       8.072   5.678  19.272  0.00  0.00    +0.000 A 
ATOM     21  C   UNL     1       8.393   7.030  19.395  0.00  0.00    +0.000 A 
ATOM     22  C   UNL     1       8.201   7.917  18.324  0.00  0.00    +0.000 A 
ATOM     23  C   UNL     1       7.683   7.419  17.118  0.00  0.00    +0.000 A 
BRANCH  22  24
ATOM     24  C   UNL     1       8.600   9.313  18.481  0.00  0.00    +0.000 A 
ATOM     25  N   UNL     1       8.355  10.303  17.642  0.00  0.00    +0.000 NA
ATOM     26  N   UNL     1       8.876  11.463  18.167  0.00  0.00    +0.000 NA
ATOM     27  C   UNL     1       9.452  11.156  19.303  0.00  0.00    +0.000 A 
ATOM     28  N   UNL     1       9.316   9.821  19.535  0.00  0.00    +0.000 N 
ATOM     29  H   UNL     1       9.689   9.302  20.315  0.00  0.00    +0.000 HD
ENDBRANCH  22  24
ENDBRANCH  16  18
ENDBRANCH   1  16
TORSDOF 4
ENDMDL
MODEL 5
REMARK VINA RESULT:      -8.5      3.518      5.503
REMARK  Name = 
REMARK  4 active torsions:
REMARK  status: ('A' for Active; 'I' for Inactive)
REMARK    1  A    between atoms: C_7  and  S_8
REMARK    2  A    between atoms: S_8  and  N_11
REMARK    3  A    between atoms: N_11  and  C_12
REMARK    4  A    between atoms: C_16  and  C_17
REMARK                            x       y       z     vdW  Elec       q    Type
REMARK                         _______ _______ _______ _____ _____    ______ ____
ROOT
ATOM      1  S   UNL     1       5.447   5.501  15.157  0.00  0.00    +0.000 S 
ATOM      2  O   UNL     1       5.256   4.408  14.228  0.00  0.00    +0.000 OA
ATOM      3  O   UNL     1       5.209   6.871  14.754  0.00  0.00    +0.000 OA
ENDROOT
BRANCH   1  10
ATOM      4  O   UNL     1       1.064   2.963  21.385  0.00  0.00    +0.000 OA
ATOM      5  C   UNL     1       1.799   3.122  20.414  0.00  0.00    +0.000 C 
ATOM      6  C   UNL     1       2.506   1.972  19.735  0.00  0.00    +0.000 C 
ATOM      7  C   UNL     1       2.675   2.218  18.244  0.00  0.00    +0.000 C 
ATOM      8  C   UNL     1       3.254   3.583  17.987  0.00  0.00    +0.000 A 
ATOM      9  C   UNL     1       4.033   3.845  16.851  0.00  0.00    +0.000 A 
ATOM     10  C   UNL     1       4.475   5.150  16.605  0.00  0.00    +0.000 A 
ATOM     11  C   UNL     1       4.111   6.200  17.456  0.00  0.00    +0.000 A 
ATOM     12  C   UNL     1       3.322   5.940  18.579  0.00  0.00    +0.000 A 
ATOM     13  C   UNL     1       2.909   4.636  18.846  0.00  0.00    +0.000 A 
ATOM     14  N   UNL     1       2.116   4.378  19.968  0.00  0.00    +0.000 N 
ATOM     15  H   UNL     1       1.742   5.144  20.516  0.00  0.00    +0.000 HD
ENDBRANCH   1  10
BRANCH   1  16
ATOM     16  N   UNL     1       7.024   5.369  15.711  0.00  0.00    +0.000 N 
ATOM     17  H   UNL     1       7.720   5.303  14.971  0.00  0.00    +0.000 HD
BRANCH  16  18
ATOM     18  C   UNL     1       7.399   5.923  16.961  0.00  0.00    +0.000 A 
ATOM     19  C   UNL     1       7.545   5.066  18.050  0.00  0.00    +0.000 A 
ATOM     20  C   UNL     1       7.998   5.563  19.268  0.00  0.00    +0.000 A 
ATOM     21  C   UNL     1       8.316   6.917  19.390  0.00  0.00    +0.000 A 
ATOM     22  C   UNL     1       8.162   7.794  18.304  0.00  0.00    +0.000 A 
ATOM     23  C   UNL     1       7.687   7.285  17.085  0.00  0.00    +0.000 A 
BRANCH  22  24
ATOM     24  C   UNL     1       8.556   9.191  18.463  0.00  0.00    +0.000 A 
ATOM     25  N   UNL     1       8.293  10.184  17.633  0.00  0.00    +0.000 NA
ATOM     26  N   UNL     1       8.816  11.344  18.156  0.00  0.00    +0.000 NA
ATOM     27  C   UNL     1       9.411  11.034  19.281  0.00  0.00    +0.000 A 
ATOM     28  N   UNL     1       9.287   9.698  19.508  0.00  0.00    +0.000 N 
ATOM     29  H   UNL     1       9.674   9.176  20.279  0.00  0.00    +0.000 HD
ENDBRANCH  22  24
ENDBRANCH  16  18
ENDBRANCH   1  16
TORSDOF 4
ENDMDL
MODEL 6
REMARK VINA RESULT:      -8.4      2.112      2.863
REMARK  Name = 
REMARK  4 active torsions:
REMARK  status: ('A' for Active; 'I' for Inactive)
REMARK    1  A    between atoms: C_7  and  S_8
REMARK    2  A    between atoms: S_8  and  N_11
REMARK    3  A    between atoms: N_11  and  C_12
REMARK    4  A    between atoms: C_16  and  C_17
REMARK                            x       y       z     vdW  Elec       q    Type
REMARK                         _______ _______ _______ _____ _____    ______ ____
ROOT
ATOM      1  S   UNL     1       3.108   6.277  18.666  0.00  0.00    +0.000 S 
ATOM      2  O   UNL     1       3.743   5.763  19.860  0.00  0.00    +0.000 OA
ATOM      3  O   UNL     1       2.320   5.413  17.811  0.00  0.00    +0.000 OA
ENDROOT
BRANCH   1  10
ATOM      4  O   UNL     1      -1.481  12.116  21.712  0.00  0.00    +0.000 OA
ATOM      5  C   UNL     1      -0.740  11.165  21.474  0.00  0.00    +0.000 C 
ATOM      6  C   UNL     1      -0.175  10.286  22.565  0.00  0.00    +0.000 C 
ATOM      7  C   UNL     1       0.008   8.853  22.093  0.00  0.00    +0.000 C 
ATOM      8  C   UNL     1       0.736   8.809  20.776  0.00  0.00    +0.000 A 
ATOM      9  C   UNL     1       1.530   7.712  20.415  0.00  0.00    +0.000 A 
ATOM     10  C   UNL     1       2.116   7.673  19.145  0.00  0.00    +0.000 A 
ATOM     11  C   UNL     1       1.880   8.695  18.218  0.00  0.00    +0.000 A 
ATOM     12  C   UNL     1       1.077   9.781  18.574  0.00  0.00    +0.000 A 
ATOM     13  C   UNL     1       0.520   9.839  19.851  0.00  0.00    +0.000 A 
ATOM     14  N   UNL     1      -0.287  10.925  20.204  0.00  0.00    +0.000 N 
ATOM     15  H   UNL     1      -0.567  11.602  19.505  0.00  0.00    +0.000 HD
ENDBRANCH   1  10
BRANCH   1  16
ATOM     16  N   UNL     1       4.330   6.970  17.750  0.00  0.00    +0.000 N 
ATOM     17  H   UNL     1       4.473   7.961  17.930  0.00  0.00    +0.000 HD
BRANCH  16  18
ATOM     18  C   UNL     1       5.421   6.188  17.293  0.00  0.00    +0.000 A 
ATOM     19  C   UNL     1       6.307   5.670  18.235  0.00  0.00    +0.000 A 
ATOM     20  C   UNL     1       7.336   4.826  17.828  0.00  0.00    +0.000 A 
ATOM     21  C   UNL     1       7.468   4.492  16.479  0.00  0.00    +0.000 A 
ATOM     22  C   UNL     1       6.589   5.016  15.518  0.00  0.00    +0.000 A 
ATOM     23  C   UNL     1       5.565   5.881  15.937  0.00  0.00    +0.000 A 
BRANCH  22  24
ATOM     24  C   UNL     1       6.731   4.598  14.127  0.00  0.00    +0.000 A 
ATOM     25  N   UNL     1       7.459   5.189  13.196  0.00  0.00    +0.000 NA
ATOM     26  N   UNL     1       7.345   4.471  12.028  0.00  0.00    +0.000 NA
ATOM     27  C   UNL     1       6.530   3.471  12.260  0.00  0.00    +0.000 A 
ATOM     28  N   UNL     1       6.111   3.517  13.553  0.00  0.00    +0.000 N 
ATOM     29  H   UNL     1       5.455   2.894  14.000  0.00  0.00    +0.000 HD
ENDBRANCH  22  24
ENDBRANCH  16  18
ENDBRANCH   1  16
TORSDOF 4
ENDMDL
MODEL 7
REMARK VINA RESULT:      -8.3      2.306      7.602
REMARK  Name = 
REMARK  4 active torsions:
REMARK  status: ('A' for Active; 'I' for Inactive)
REMARK    1  A    between atoms: C_7  and  S_8
REMARK    2  A    between atoms: S_8  and  N_11
REMARK    3  A    between atoms: N_11  and  C_12
REMARK    4  A    between atoms: C_16  and  C_17
REMARK                            x       y       z     vdW  Elec       q    Type
REMARK                         _______ _______ _______ _____ _____    ______ ____
ROOT
ATOM      1  S   UNL     1       3.842   4.116  19.255  0.00  0.00    +0.000 S 
ATOM      2  O   UNL     1       3.626   2.690  19.136  0.00  0.00    +0.000 OA
ATOM      3  O   UNL     1       4.288   4.700  20.503  0.00  0.00    +0.000 OA
ENDROOT
BRANCH   1  10
ATOM      4  O   UNL     1       8.461   5.586  12.856  0.00  0.00    +0.000 OA
ATOM      5  C   UNL     1       7.606   5.261  13.677  0.00  0.00    +0.000 C 
ATOM      6  C   UNL     1       6.368   4.485  13.294  0.00  0.00    +0.000 C 
ATOM      7  C   UNL     1       5.909   3.568  14.416  0.00  0.00    +0.000 C 
ATOM      8  C   UNL     1       5.835   4.312  15.722  0.00  0.00    +0.000 A 
ATOM      9  C   UNL     1       4.936   3.935  16.729  0.00  0.00    +0.000 A 
ATOM     10  C   UNL     1       4.962   4.598  17.961  0.00  0.00    +0.000 A 
ATOM     11  C   UNL     1       5.906   5.602  18.211  0.00  0.00    +0.000 A 
ATOM     12  C   UNL     1       6.811   5.967  17.213  0.00  0.00    +0.000 A 
ATOM     13  C   UNL     1       6.764   5.332  15.972  0.00  0.00    +0.000 A 
ATOM     14  N   UNL     1       7.673   5.696  14.974  0.00  0.00    +0.000 N 
ATOM     15  H   UNL     1       8.437   6.326  15.185  0.00  0.00    +0.000 HD
ENDBRANCH   1  10
BRANCH   1  16
ATOM     16  N   UNL     1       2.399   4.844  18.806  0.00  0.00    +0.000 N 
ATOM     17  H   UNL     1       1.586   4.236  18.879  0.00  0.00    +0.000 HD
BRANCH  16  18
ATOM     18  C   UNL     1       2.226   6.245  18.940  0.00  0.00    +0.000 A 
ATOM     19  C   UNL     1       2.450   7.051  17.827  0.00  0.00    +0.000 A 
ATOM     20  C   UNL     1       2.203   8.419  17.899  0.00  0.00    +0.000 A 
ATOM     21  C   UNL     1       1.718   8.974  19.085  0.00  0.00    +0.000 A 
ATOM     22  C   UNL     1       1.498   8.175  20.218  0.00  0.00    +0.000 A 
ATOM     23  C   UNL     1       1.768   6.799  20.139  0.00  0.00    +0.000 A 
BRANCH  22  24
ATOM     24  C   UNL     1       0.941   8.789  21.419  0.00  0.00    +0.000 A 
ATOM     25  N   UNL     1       1.615   9.217  22.472  0.00  0.00    +0.000 NA
ATOM     26  N   UNL     1       0.726   9.752  23.374  0.00  0.00    +0.000 NA
ATOM     27  C   UNL     1      -0.476   9.618  22.869  0.00  0.00    +0.000 A 
ATOM     28  N   UNL     1      -0.393   9.010  21.654  0.00  0.00    +0.000 N 
ATOM     29  H   UNL     1      -1.160   8.750  21.054  0.00  0.00    +0.000 HD
ENDBRANCH  22  24
ENDBRANCH  16  18
ENDBRANCH   1  16
TORSDOF 4
ENDMDL
MODEL 8
REMARK VINA RESULT:      -8.3      2.430      7.816
REMARK  Name = 
REMARK  4 active torsions:
REMARK  status: ('A' for Active; 'I' for Inactive)
REMARK    1  A    between atoms: C_7  and  S_8
REMARK    2  A    between atoms: S_8  and  N_11
REMARK    3  A    between atoms: N_11  and  C_12
REMARK    4  A    between atoms: C_16  and  C_17
REMARK                            x       y       z     vdW  Elec       q    Type
REMARK                         _______ _______ _______ _____ _____    ______ ____
ROOT
ATOM      1  S   UNL     1       2.915   4.490  18.970  0.00  0.00    +0.000 S 
ATOM      2  O   UNL     1       1.680   4.687  18.243  0.00  0.00    +0.000 OA
ATOM      3  O   UNL     1       3.193   3.235  19.640  0.00  0.00    +0.000 OA
ENDROOT
BRANCH   1  10
ATOM      4  O   UNL     1       8.546   5.500  13.340  0.00  0.00    +0.000 OA
ATOM      5  C   UNL     1       7.552   5.260  14.022  0.00  0.00    +0.000 C 
ATOM      6  C   UNL     1       6.314   4.612  13.449  0.00  0.00    +0.000 C 
ATOM      7  C   UNL     1       5.607   3.744  14.477  0.00  0.00    +0.000 C 
ATOM      8  C   UNL     1       5.415   4.491  15.770  0.00  0.00    +0.000 A 
ATOM      9  C   UNL     1       4.345   4.204  16.629  0.00  0.00    +0.000 A 
ATOM     10  C   UNL     1       4.256   4.860  17.862  0.00  0.00    +0.000 A 
ATOM     11  C   UNL     1       5.246   5.763  18.264  0.00  0.00    +0.000 A 
ATOM     12  C   UNL     1       6.320   6.038  17.414  0.00  0.00    +0.000 A 
ATOM     13  C   UNL     1       6.393   5.412  16.170  0.00  0.00    +0.000 A 
ATOM     14  N   UNL     1       7.470   5.685  15.322  0.00  0.00    +0.000 N 
ATOM     15  H   UNL     1       8.254   6.235  15.652  0.00  0.00    +0.000 HD
ENDBRANCH   1  10
BRANCH   1  16
ATOM     16  N   UNL     1       2.994   5.729  20.097  0.00  0.00    +0.000 N 
ATOM     17  H   UNL     1       3.801   5.678  20.716  0.00  0.00    +0.000 HD
BRANCH  16  18
ATOM     18  C   UNL     1       2.418   6.995  19.820  0.00  0.00    +0.000 A 
ATOM     19  C   UNL     1       2.415   7.449  18.503  0.00  0.00    +0.000 A 
ATOM     20  C   UNL     1       1.779   8.644  18.183  0.00  0.00    +0.000 A 
ATOM     21  C   UNL     1       1.136   9.377  19.182  0.00  0.00    +0.000 A 
ATOM     22  C   UNL     1       1.141   8.937  20.515  0.00  0.00    +0.000 A 
ATOM     23  C   UNL     1       1.801   7.738  20.830  0.00  0.00    +0.000 A 
BRANCH  22  24
ATOM     24  C   UNL     1       0.411   9.708  21.517  0.00  0.00    +0.000 A 
ATOM     25  N   UNL     1       0.498  11.009  21.729  0.00  0.00    +0.000 NA
ATOM     26  N   UNL     1      -0.369  11.348  22.742  0.00  0.00    +0.000 NA
ATOM     27  C   UNL     1      -0.949  10.245  23.148  0.00  0.00    +0.000 A 
ATOM     28  N   UNL     1      -0.484   9.193  22.420  0.00  0.00    +0.000 N 
ATOM     29  H   UNL     1      -0.728   8.221  22.537  0.00  0.00    +0.000 HD
ENDBRANCH  22  24
ENDBRANCH  16  18
ENDBRANCH   1  16
TORSDOF 4
ENDMDL
MODEL 9
REMARK VINA RESULT:      -8.1      3.843      8.636
REMARK  Name = 
REMARK  4 active torsions:
REMARK  status: ('A' for Active; 'I' for Inactive)
REMARK    1  A    between atoms: C_7  and  S_8
REMARK    2  A    between atoms: S_8  and  N_11
REMARK    3  A    between atoms: N_11  and  C_12
REMARK    4  A    between atoms: C_16  and  C_17
REMARK                            x       y       z     vdW  Elec       q    Type
REMARK                         _______ _______ _______ _____ _____    ______ ____
ROOT
ATOM      1  S   UNL     1       0.924   8.960  21.630  0.00  0.00    +0.000 S 
ATOM      2  O   UNL     1      -0.457   8.688  21.968  0.00  0.00    +0.000 OA
ATOM      3  O   UNL     1       1.909   9.203  22.663  0.00  0.00    +0.000 OA
ENDROOT
BRANCH   1  10
ATOM      4  O   UNL     1       3.205   2.352  17.685  0.00  0.00    +0.000 OA
ATOM      5  C   UNL     1       2.718   3.213  18.413  0.00  0.00    +0.000 C 
ATOM      6  C   UNL     1       1.756   2.881  19.529  0.00  0.00    +0.000 C 
ATOM      7  C   UNL     1       1.897   3.844  20.697  0.00  0.00    +0.000 C 
ATOM      8  C   UNL     1       1.878   5.272  20.223  0.00  0.00    +0.000 A 
ATOM      9  C   UNL     1       1.410   6.309  21.041  0.00  0.00    +0.000 A 
ATOM     10  C   UNL     1       1.494   7.632  20.593  0.00  0.00    +0.000 A 
ATOM     11  C   UNL     1       2.080   7.932  19.358  0.00  0.00    +0.000 A 
ATOM     12  C   UNL     1       2.560   6.899  18.549  0.00  0.00    +0.000 A 
ATOM     13  C   UNL     1       2.446   5.577  18.978  0.00  0.00    +0.000 A 
ATOM     14  N   UNL     1       2.930   4.545  18.169  0.00  0.00    +0.000 N 
ATOM     15  H   UNL     1       3.468   4.757  17.337  0.00  0.00    +0.000 HD
ENDBRANCH   1  10
BRANCH   1  16
ATOM     16  N   UNL     1       0.898  10.276  20.591  0.00  0.00    +0.000 N 
ATOM     17  H   UNL     1       1.675  10.302  19.935  0.00  0.00    +0.000 HD
BRANCH  16  18
ATOM     18  C   UNL     1      -0.330  10.887  20.230  0.00  0.00    +0.000 A 
ATOM     19  C   UNL     1      -0.866  11.853  21.080  0.00  0.00    +0.000 A 
ATOM     20  C   UNL     1      -2.021  12.535  20.712  0.00  0.00    +0.000 A 
ATOM     21  C   UNL     1      -2.631  12.258  19.488  0.00  0.00    +0.000 A 
ATOM     22  C   UNL     1      -2.108  11.279  18.628  0.00  0.00    +0.000 A 
ATOM     23  C   UNL     1      -0.952  10.584  19.016  0.00  0.00    +0.000 A 
BRANCH  22  24
ATOM     24  C   UNL     1      -2.749  11.060  17.334  0.00  0.00    +0.000 A 
ATOM     25  N   UNL     1      -4.038  11.158  17.065  0.00  0.00    +0.000 NA
ATOM     26  N   UNL     1      -4.228  10.899  15.727  0.00  0.00    +0.000 NA
ATOM     27  C   UNL     1      -3.057  10.622  15.210  0.00  0.00    +0.000 A 
ATOM     28  N   UNL     1      -2.103  10.697  16.178  0.00  0.00    +0.000 N 
ATOM     29  H   UNL     1      -1.119  10.502  16.075  0.00  0.00    +0.000 HD
ENDBRANCH  22  24
ENDBRANCH  16  18
ENDBRANCH   1  16
TORSDOF 4
ENDMDL
