MODEL 1
REMARK VINA RESULT:      -8.2      0.000      0.000
REMARK  Name = 
REMARK  9 active torsions:
REMARK  status: ('A' for Active; 'I' for Inactive)
REMARK    1  A    between atoms: C_1  and  C_2
REMARK    2  A    between atoms: C_2  and  C_3
REMARK    3  A    between atoms: C_2  and  C_13
REMARK    4  A    between atoms: C_3  and  C_4
REMARK    5  A    between atoms: C_4  and  C_5
REMARK    6  A    between atoms: C_6  and  C_7
REMARK    7  A    between atoms: N_11  and  C_12
REMARK    8  A    between atoms: C_17  and  N_18
REMARK    9  A    between atoms: C_19  and  C_21
REMARK                            x       y       z     vdW  Elec       q    Type
REMARK                         _______ _______ _______ _____ _____    ______ ____
ROOT
ATOM      1  C   UNL     1       5.211   4.588  18.668  0.00  0.00    +0.000 A 
ATOM      2  C   UNL     1       4.583   3.334  18.663  0.00  0.00    +0.000 A 
ATOM      3  C   UNL     1       3.261   3.202  19.060  0.00  0.00    +0.000 A 
ATOM      4  C   UNL     1       2.564   4.309  19.535  0.00  0.00    +0.000 A 
ATOM      5  C   UNL     1       3.176   5.561  19.633  0.00  0.00    +0.000 A 
ATOM      6  C   UNL     1       4.499   5.697  19.175  0.00  0.00    +0.000 A 
ENDROOT
BRANCH   5   7
ATOM      7  N   UNL     1       2.527   6.683  20.193  0.00  0.00    +0.000 N 
ATOM      8  C   UNL     1       2.068   7.801  19.507  0.00  0.00    +0.000 C 
ATOM      9  O   UNL     1       2.204   8.040  18.311  0.00  0.00    +0.000 OA
ATOM     10  H   UNL     1       2.318   6.673  21.186  0.00  0.00    +0.000 HD
BRANCH   8  11
ATOM     11  C   UNL     1       1.331   8.794  20.343  0.00  0.00    +0.000 A 
ATOM     12  C   UNL     1       1.095   8.505  21.682  0.00  0.00    +0.000 A 
ATOM     13  C   UNL     1       0.407   9.445  22.422  0.00  0.00    +0.000 A 
ATOM     14  F   UNL     1       0.149   9.211  23.715  0.00  0.00    +0.000 F 
ATOM     15  C   UNL     1      -0.023  10.631  21.844  0.00  0.00    +0.000 A 
ATOM     16  C   UNL     1       0.265  10.832  20.508  0.00  0.00    +0.000 A 
ATOM     17  N   UNL     1       0.931   9.946  19.734  0.00  0.00    +0.000 NA
ENDBRANCH   8  11
ENDBRANCH   5   7
BRANCH   1  19
ATOM     18  C   UNL     1       6.602   4.806  16.612  0.00  0.00    +0.000 C 
ATOM     19  C   UNL     1       6.633   4.745  18.143  0.00  0.00    +0.000 C 
BRANCH  19  20
ATOM     20  C   UNL     1       7.385   5.977  18.720  0.00  0.00    +0.000 C 
BRANCH  20  21
ATOM     21  C   UNL     1       7.497   7.126  17.705  0.00  0.00    +0.000 C 
BRANCH  21  22
ATOM     22  C   UNL     1       8.361   8.257  18.190  0.00  0.00    +0.000 C 
ATOM     23  C   UNL     1       8.122   9.546  17.887  0.00  0.00    +0.000 C 
BRANCH  23  24
ATOM     24  C   UNL     1       8.915  10.581  18.444  0.00  0.00    +0.000 A 
ATOM     25  N   UNL     1       9.880  10.534  19.346  0.00  0.00    +0.000 NA
ATOM     26  N   UNL     1      10.321  11.813  19.589  0.00  0.00    +0.000 NA
ATOM     27  C   UNL     1       9.620  12.621  18.833  0.00  0.00    +0.000 A 
ATOM     28  N   UNL     1       8.732  11.900  18.092  0.00  0.00    +0.000 N 
ATOM     29  C   UNL     1       7.797  12.460  17.152  0.00  0.00    +0.000 C 
ENDBRANCH  23  24
ENDBRANCH  21  22
ENDBRANCH  20  21
ENDBRANCH  19  20
ENDBRANCH   1  19
TORSDOF 7
ENDMDL
MODEL 2
REMARK VINA RESULT:      -8.0      3.993      8.338
REMARK  Name = 
REMARK  9 active torsions:
REMARK  status: ('A' for Active; 'I' for Inactive)
REMARK    1  A    between atoms: C_1  and  C_2
REMARK    2  A    between atoms: C_2  and  C_3
REMARK    3  A    between atoms: C_2  and  C_13
REMARK    4  A    between atoms: C_3  and  C_4
REMARK    5  A    between atoms: C_4  and  C_5
REMARK    6  A    between atoms: C_6  and  C_7
REMARK    7  A    between atoms: N_11  and  C_12
REMARK    8  A    between atoms: C_17  and  N_18
REMARK    9  A    between atoms: C_19  and  C_21
REMARK                            x       y       z     vdW  Elec       q    Type
REMARK                         _______ _______ _______ _____ _____    ______ ____
ROOT
ATOM      1  C   UNL     1       6.877   6.009  16.931  0.00  0.00    +0.000 A 
ATOM      2  C   UNL     1       7.002   4.848  17.708  0.00  0.00    +0.000 A 
ATOM      3  C   UNL     1       7.655   4.879  18.931  0.00  0.00    +0.000 A 
ATOM      4  C   UNL     1       8.255   6.057  19.368  0.00  0.00    +0.000 A 
ATOM      5  C   UNL     1       8.225   7.215  18.589  0.00  0.00    +0.000 A 
ATOM      6  C   UNL     1       7.512   7.189  17.377  0.00  0.00    +0.000 A 
ENDROOT
BRANCH   5   7
ATOM      7  N   UNL     1       8.899   8.400  18.961  0.00  0.00    +0.000 N 
ATOM      8  C   UNL     1       8.665   9.676  18.465  0.00  0.00    +0.000 C 
ATOM      9  O   UNL     1       7.881   9.989  17.573  0.00  0.00    +0.000 OA
ATOM     10  H   UNL     1       9.594   8.347  19.699  0.00  0.00    +0.000 HD
BRANCH   8  11
ATOM     11  C   UNL     1       9.463  10.760  19.111  0.00  0.00    +0.000 A 
ATOM     12  C   UNL     1      10.311  11.531  18.327  0.00  0.00    +0.000 A 
ATOM     13  C   UNL     1      11.036  12.520  18.959  0.00  0.00    +0.000 A 
ATOM     14  F   UNL     1      11.872  13.287  18.249  0.00  0.00    +0.000 F 
ATOM     15  C   UNL     1      10.911  12.731  20.325  0.00  0.00    +0.000 A 
ATOM     16  C   UNL     1      10.037  11.918  21.020  0.00  0.00    +0.000 A 
ATOM     17  N   UNL     1       9.305  10.932  20.454  0.00  0.00    +0.000 NA
ENDBRANCH   8  11
ENDBRANCH   5   7
BRANCH   1  19
ATOM     18  C   UNL     1       5.885   4.542  15.177  0.00  0.00    +0.000 C 
ATOM     19  C   UNL     1       6.078   5.993  15.634  0.00  0.00    +0.000 C 
BRANCH  19  20
ATOM     20  C   UNL     1       4.707   6.719  15.729  0.00  0.00    +0.000 C 
BRANCH  20  21
ATOM     21  C   UNL     1       4.248   6.919  17.182  0.00  0.00    +0.000 C 
BRANCH  21  22
ATOM     22  C   UNL     1       3.605   5.693  17.770  0.00  0.00    +0.000 C 
ATOM     23  C   UNL     1       2.278   5.577  17.957  0.00  0.00    +0.000 C 
BRANCH  23  24
ATOM     24  C   UNL     1       1.716   4.365  18.432  0.00  0.00    +0.000 A 
ATOM     25  N   UNL     1       1.272   3.308  17.775  0.00  0.00    +0.000 NA
ATOM     26  N   UNL     1       0.782   2.397  18.682  0.00  0.00    +0.000 NA
ATOM     27  C   UNL     1       0.935   2.912  19.877  0.00  0.00    +0.000 A 
ATOM     28  N   UNL     1       1.521   4.138  19.776  0.00  0.00    +0.000 N 
ATOM     29  C   UNL     1       1.838   4.994  20.890  0.00  0.00    +0.000 C 
ENDBRANCH  23  24
ENDBRANCH  21  22
ENDBRANCH  20  21
ENDBRANCH  19  20
ENDBRANCH   1  19
TORSDOF 7
ENDMDL
MODEL 3
REMARK VINA RESULT:      -7.8      1.715      2.218
REMARK  Name = 
REMARK  9 active torsions:
REMARK  status: ('A' for Active; 'I' for Inactive)
REMARK    1  A    between atoms: C_1  and  C_2
REMARK    2  A    between atoms: C_2  and  C_3
REMARK    3  A    between atoms: C_2  and  C_13
REMARK    4  A    between atoms: C_3  and  C_4
REMARK    5  A    between atoms: C_4  and  C_5
REMARK    6  A    between atoms: C_6  and  C_7
REMARK    7  A    between atoms: N_11  and  C_12
REMARK    8  A    between atoms: C_17  and  N_18
REMARK    9  A    between atoms: C_19  and  C_21
REMARK                            x       y       z     vdW  Elec       q    Type
REMARK                         _______ _______ _______ _____ _____    ______ ____
ROOT
ATOM      1  C   UNL     1       5.197   5.609  17.730  0.00  0.00    +0.000 A 
ATOM      2  C   UNL     1       4.553   4.371  17.871  0.00  0.00    +0.000 A 
ATOM      3  C   UNL     1       3.176   4.301  18.016  0.00  0.00    +0.000 A 
ATOM      4  C   UNL     1       2.424   5.470  18.091  0.00  0.00    +0.000 A 
ATOM      5  C   UNL     1       3.034   6.725  18.036  0.00  0.00    +0.000 A 
ATOM      6  C   UNL     1       4.424   6.787  17.833  0.00  0.00    +0.000 A 
ENDROOT
BRANCH   5   7
ATOM      7  N   UNL     1       2.312   7.929  18.199  0.00  0.00    +0.000 N 
ATOM      8  C   UNL     1       1.786   8.424  19.386  0.00  0.00    +0.000 C 
ATOM      9  O   UNL     1       1.797   7.875  20.483  0.00  0.00    +0.000 OA
ATOM     10  H   UNL     1       2.197   8.535  17.393  0.00  0.00    +0.000 HD
BRANCH   8  11
ATOM     11  C   UNL     1       1.152   9.772  19.280  0.00  0.00    +0.000 A 
ATOM     12  C   UNL     1      -0.071   9.991  19.902  0.00  0.00    +0.000 A 
ATOM     13  C   UNL     1      -0.628  11.248  19.779  0.00  0.00    +0.000 A 
ATOM     14  F   UNL     1      -1.808  11.509  20.354  0.00  0.00    +0.000 F 
ATOM     15  C   UNL     1       0.019  12.247  19.065  0.00  0.00    +0.000 A 
ATOM     16  C   UNL     1       1.235  11.935  18.488  0.00  0.00    +0.000 A 
ATOM     17  N   UNL     1       1.825  10.722  18.573  0.00  0.00    +0.000 NA
ENDBRANCH   8  11
ENDBRANCH   5   7
BRANCH   1  19
ATOM     18  C   UNL     1       7.080   4.640  16.418  0.00  0.00    +0.000 C 
ATOM     19  C   UNL     1       6.698   5.679  17.478  0.00  0.00    +0.000 C 
BRANCH  19  20
ATOM     20  C   UNL     1       7.202   7.090  17.062  0.00  0.00    +0.000 C 
BRANCH  20  21
ATOM     21  C   UNL     1       8.003   7.780  18.178  0.00  0.00    +0.000 C 
BRANCH  21  22
ATOM     22  C   UNL     1       8.194   9.252  17.941  0.00  0.00    +0.000 C 
ATOM     23  C   UNL     1       9.089   9.995  18.616  0.00  0.00    +0.000 C 
BRANCH  23  24
ATOM     24  C   UNL     1       9.291  11.360  18.291  0.00  0.00    +0.000 A 
ATOM     25  N   UNL     1       8.523  12.210  17.632  0.00  0.00    +0.000 NA
ATOM     26  N   UNL     1       9.175  13.417  17.539  0.00  0.00    +0.000 NA
ATOM     27  C   UNL     1      10.330  13.286  18.143  0.00  0.00    +0.000 A 
ATOM     28  N   UNL     1      10.449  12.021  18.636  0.00  0.00    +0.000 N 
ATOM     29  C   UNL     1      11.591  11.522  19.357  0.00  0.00    +0.000 C 
ENDBRANCH  23  24
ENDBRANCH  21  22
ENDBRANCH  20  21
ENDBRANCH  19  20
ENDBRANCH   1  19
TORSDOF 7
ENDMDL
MODEL 4
REMARK VINA RESULT:      -7.8      1.978      2.490
REMARK  Name = 
REMARK  9 active torsions:
REMARK  status: ('A' for Active; 'I' for Inactive)
REMARK    1  A    between atoms: C_1  and  C_2
REMARK    2  A    between atoms: C_2  and  C_3
REMARK    3  A    between atoms: C_2  and  C_13
REMARK    4  A    between atoms: C_3  and  C_4
REMARK    5  A    between atoms: C_4  and  C_5
REMARK    6  A    between atoms: C_6  and  C_7
REMARK    7  A    between atoms: N_11  and  C_12
REMARK    8  A    between atoms: C_17  and  N_18
REMARK    9  A    between atoms: C_19  and  C_21
REMARK                            x       y       z     vdW  Elec       q    Type
REMARK                         _______ _______ _______ _____ _____    ______ ____
ROOT
ATOM      1  C   UNL     1       5.119   5.770  17.721  0.00  0.00    +0.000 A 
ATOM      2  C   UNL     1       4.489   4.517  17.702  0.00  0.00    +0.000 A 
ATOM      3  C   UNL     1       3.108   4.417  17.784  0.00  0.00    +0.000 A 
ATOM      4  C   UNL     1       2.338   5.564  17.956  0.00  0.00    +0.000 A 
ATOM      5  C   UNL     1       2.931   6.824  18.061  0.00  0.00    +0.000 A 
ATOM      6  C   UNL     1       4.326   6.922  17.920  0.00  0.00    +0.000 A 
ENDROOT
BRANCH   5   7
ATOM      7  N   UNL     1       2.186   7.995  18.325  0.00  0.00    +0.000 N 
ATOM      8  C   UNL     1       1.640   8.371  19.546  0.00  0.00    +0.000 C 
ATOM      9  O   UNL     1       1.651   7.724  20.589  0.00  0.00    +0.000 OA
ATOM     10  H   UNL     1       2.068   8.671  17.576  0.00  0.00    +0.000 HD
BRANCH   8  11
ATOM     11  C   UNL     1       0.983   9.712  19.557  0.00  0.00    +0.000 A 
ATOM     12  C   UNL     1       1.519  10.730  18.779  0.00  0.00    +0.000 A 
ATOM     13  C   UNL     1       0.888  11.957  18.817  0.00  0.00    +0.000 A 
ATOM     14  F   UNL     1       1.369  12.973  18.091  0.00  0.00    +0.000 F 
ATOM     15  C   UNL     1      -0.241  12.152  19.600  0.00  0.00    +0.000 A 
ATOM     16  C   UNL     1      -0.704  11.077  20.333  0.00  0.00    +0.000 A 
ATOM     17  N   UNL     1      -0.125   9.855  20.337  0.00  0.00    +0.000 NA
ENDBRANCH   8  11
ENDBRANCH   5   7
BRANCH   1  19
ATOM     18  C   UNL     1       7.088   4.850  16.501  0.00  0.00    +0.000 C 
ATOM     19  C   UNL     1       6.628   5.882  17.536  0.00  0.00    +0.000 C 
BRANCH  19  20
ATOM     20  C   UNL     1       7.109   7.305  17.135  0.00  0.00    +0.000 C 
BRANCH  20  21
ATOM     21  C   UNL     1       8.106   7.894  18.146  0.00  0.00    +0.000 C 
BRANCH  21  22
ATOM     22  C   UNL     1       8.297   9.377  17.987  0.00  0.00    +0.000 C 
ATOM     23  C   UNL     1       8.996  10.126  18.860  0.00  0.00    +0.000 C 
BRANCH  23  24
ATOM     24  C   UNL     1       9.220  11.504  18.616  0.00  0.00    +0.000 A 
ATOM     25  N   UNL     1       8.863  12.266  17.597  0.00  0.00    +0.000 NA
ATOM     26  N   UNL     1       9.350  13.535  17.801  0.00  0.00    +0.000 NA
ATOM     27  C   UNL     1       9.996  13.530  18.941  0.00  0.00    +0.000 A 
ATOM     28  N   UNL     1       9.939  12.285  19.494  0.00  0.00    +0.000 N 
ATOM     29  C   UNL     1      10.542  11.911  20.746  0.00  0.00    +0.000 C 
ENDBRANCH  23  24
ENDBRANCH  21  22
ENDBRANCH  20  21
ENDBRANCH  19  20
ENDBRANCH   1  19
TORSDOF 7
ENDMDL
MODEL 5
REMARK VINA RESULT:      -7.8      1.701      1.951
REMARK  Name = 
REMARK  9 active torsions:
REMARK  status: ('A' for Active; 'I' for Inactive)
REMARK    1  A    between atoms: C_1  and  C_2
REMARK    2  A    between atoms: C_2  and  C_3
REMARK    3  A    between atoms: C_2  and  C_13
REMARK    4  A    between atoms: C_3  and  C_4
REMARK    5  A    between atoms: C_4  and  C_5
REMARK    6  A    between atoms: C_6  and  C_7
REMARK    7  A    between atoms: N_11  and  C_12
REMARK    8  A    between atoms: C_17  and  N_18
REMARK    9  A    between atoms: C_19  and  C_21
REMARK                            x       y       z     vdW  Elec       q    Type
REMARK                         _______ _______ _______ _____ _____    ______ ____
ROOT
ATOM      1  C   UNL     1       4.961   5.565  17.421  0.00  0.00    +0.000 A 
ATOM      2  C   UNL     1       4.322   4.340  17.177  0.00  0.00    +0.000 A 
ATOM      3  C   UNL     1       2.968   4.184  17.432  0.00  0.00    +0.000 A 
ATOM      4  C   UNL     1       2.243   5.229  18.000  0.00  0.00    +0.000 A 
ATOM      5  C   UNL     1       2.858   6.438  18.332  0.00  0.00    +0.000 A 
ATOM      6  C   UNL     1       4.218   6.606  18.018  0.00  0.00    +0.000 A 
ENDROOT
BRANCH   5   7
ATOM      7  N   UNL     1       2.173   7.483  18.990  0.00  0.00    +0.000 N 
ATOM      8  C   UNL     1       1.820   8.712  18.446  0.00  0.00    +0.000 C 
ATOM      9  O   UNL     1       2.098   9.130  17.326  0.00  0.00    +0.000 OA
ATOM     10  H   UNL     1       1.850   7.326  19.940  0.00  0.00    +0.000 HD
BRANCH   8  11
ATOM     11  C   UNL     1       1.013   9.591  19.344  0.00  0.00    +0.000 A 
ATOM     12  C   UNL     1       0.637  10.850  18.894  0.00  0.00    +0.000 A 
ATOM     13  C   UNL     1      -0.106  11.635  19.752  0.00  0.00    +0.000 A 
ATOM     14  F   UNL     1      -0.487  12.859  19.369  0.00  0.00    +0.000 F 
ATOM     15  C   UNL     1      -0.461  11.172  21.012  0.00  0.00    +0.000 A 
ATOM     16  C   UNL     1      -0.047   9.903  21.367  0.00  0.00    +0.000 A 
ATOM     17  N   UNL     1       0.684   9.093  20.569  0.00  0.00    +0.000 NA
ENDBRANCH   8  11
ENDBRANCH   5   7
BRANCH   1  19
ATOM     18  C   UNL     1       6.712   5.057  15.721  0.00  0.00    +0.000 C 
ATOM     19  C   UNL     1       6.427   5.761  17.052  0.00  0.00    +0.000 C 
BRANCH  19  20
ATOM     20  C   UNL     1       6.864   7.252  16.981  0.00  0.00    +0.000 C 
BRANCH  20  21
ATOM     21  C   UNL     1       7.846   7.629  18.102  0.00  0.00    +0.000 C 
BRANCH  21  22
ATOM     22  C   UNL     1       8.639   8.869  17.796  0.00  0.00    +0.000 C 
ATOM     23  C   UNL     1       8.639   9.956  18.588  0.00  0.00    +0.000 C 
BRANCH  23  24
ATOM     24  C   UNL     1       9.474  11.065  18.299  0.00  0.00    +0.000 A 
ATOM     25  N   UNL     1      10.757  11.263  18.549  0.00  0.00    +0.000 NA
ATOM     26  N   UNL     1      11.105  12.518  18.108  0.00  0.00    +0.000 NA
ATOM     27  C   UNL     1      10.031  13.067  17.597  0.00  0.00    +0.000 A 
ATOM     28  N   UNL     1       8.985  12.197  17.686  0.00  0.00    +0.000 N 
ATOM     29  C   UNL     1       7.648  12.466  17.225  0.00  0.00    +0.000 C 
ENDBRANCH  23  24
ENDBRANCH  21  22
ENDBRANCH  20  21
ENDBRANCH  19  20
ENDBRANCH   1  19
TORSDOF 7
ENDMDL
MODEL 6
REMARK VINA RESULT:      -7.8      5.001      8.223
REMARK  Name = 
REMARK  9 active torsions:
REMARK  status: ('A' for Active; 'I' for Inactive)
REMARK    1  A    between atoms: C_1  and  C_2
REMARK    2  A    between atoms: C_2  and  C_3
REMARK    3  A    between atoms: C_2  and  C_13
REMARK    4  A    between atoms: C_3  and  C_4
REMARK    5  A    between atoms: C_4  and  C_5
REMARK    6  A    between atoms: C_6  and  C_7
REMARK    7  A    between atoms: N_11  and  C_12
REMARK    8  A    between atoms: C_17  and  N_18
REMARK    9  A    between atoms: C_19  and  C_21
REMARK                            x       y       z     vdW  Elec       q    Type
REMARK                         _______ _______ _______ _____ _____    ______ ____
ROOT
ATOM      1  C   UNL     1       2.823   6.600  19.048  0.00  0.00    +0.000 A 
ATOM      2  C   UNL     1       2.597   5.475  19.855  0.00  0.00    +0.000 A 
ATOM      3  C   UNL     1       3.159   4.248  19.533  0.00  0.00    +0.000 A 
ATOM      4  C   UNL     1       3.899   4.109  18.362  0.00  0.00    +0.000 A 
ATOM      5  C   UNL     1       4.080   5.184  17.489  0.00  0.00    +0.000 A 
ATOM      6  C   UNL     1       3.556   6.437  17.852  0.00  0.00    +0.000 A 
ENDROOT
BRANCH   5   7
ATOM      7  N   UNL     1       4.749   5.054  16.252  0.00  0.00    +0.000 N 
ATOM      8  C   UNL     1       6.114   4.878  16.063  0.00  0.00    +0.000 C 
ATOM      9  O   UNL     1       6.983   4.871  16.929  0.00  0.00    +0.000 OA
ATOM     10  H   UNL     1       4.192   5.033  15.403  0.00  0.00    +0.000 HD
BRANCH   8  11
ATOM     11  C   UNL     1       6.533   4.673  14.645  0.00  0.00    +0.000 A 
ATOM     12  C   UNL     1       5.864   3.729  13.875  0.00  0.00    +0.000 A 
ATOM     13  C   UNL     1       6.281   3.564  12.570  0.00  0.00    +0.000 A 
ATOM     14  F   UNL     1       5.674   2.662  11.789  0.00  0.00    +0.000 F 
ATOM     15  C   UNL     1       7.325   4.320  12.055  0.00  0.00    +0.000 A 
ATOM     16  C   UNL     1       7.923   5.239  12.896  0.00  0.00    +0.000 A 
ATOM     17  N   UNL     1       7.559   5.440  14.182  0.00  0.00    +0.000 NA
ENDBRANCH   8  11
ENDBRANCH   5   7
BRANCH   1  19
ATOM     18  C   UNL     1       1.516   8.577  18.277  0.00  0.00    +0.000 C 
ATOM     19  C   UNL     1       2.284   7.966  19.455  0.00  0.00    +0.000 C 
BRANCH  19  20
ATOM     20  C   UNL     1       1.392   7.938  20.728  0.00  0.00    +0.000 C 
BRANCH  20  21
ATOM     21  C   UNL     1       0.299   9.020  20.704  0.00  0.00    +0.000 C 
BRANCH  21  22
ATOM     22  C   UNL     1       0.794  10.365  21.157  0.00  0.00    +0.000 C 
ATOM     23  C   UNL     1       0.372  11.523  20.617  0.00  0.00    +0.000 C 
BRANCH  23  24
ATOM     24  C   UNL     1       0.803  12.768  21.142  0.00  0.00    +0.000 A 
ATOM     25  N   UNL     1       0.408  13.432  22.214  0.00  0.00    +0.000 NA
ATOM     26  N   UNL     1       1.102  14.617  22.282  0.00  0.00    +0.000 NA
ATOM     27  C   UNL     1       1.910  14.658  21.251  0.00  0.00    +0.000 A 
ATOM     28  N   UNL     1       1.767  13.522  20.511  0.00  0.00    +0.000 N 
ATOM     29  C   UNL     1       2.496  13.227  19.305  0.00  0.00    +0.000 C 
ENDBRANCH  23  24
ENDBRANCH  21  22
ENDBRANCH  20  21
ENDBRANCH  19  20
ENDBRANCH   1  19
TORSDOF 7
ENDMDL
MODEL 7
REMARK VINA RESULT:      -7.8      5.060      8.540
REMARK  Name = 
REMARK  9 active torsions:
REMARK  status: ('A' for Active; 'I' for Inactive)
REMARK    1  A    between atoms: C_1  and  C_2
REMARK    2  A    between atoms: C_2  and  C_3
REMARK    3  A    between atoms: C_2  and  C_13
REMARK    4  A    between atoms: C_3  and  C_4
REMARK    5  A    between atoms: C_4  and  C_5
REMARK    6  A    between atoms: C_6  and  C_7
REMARK    7  A    between atoms: N_11  and  C_12
REMARK    8  A    between atoms: C_17  and  N_18
REMARK    9  A    between atoms: C_19  and  C_21
REMARK                            x       y       z     vdW  Elec       q    Type
REMARK                         _______ _______ _______ _____ _____    ______ ____
ROOT
ATOM      1  C   UNL     1       3.000   6.281  19.112  0.00  0.00    +0.000 A 
ATOM      2  C   UNL     1       2.900   5.167  19.959  0.00  0.00    +0.000 A 
ATOM      3  C   UNL     1       3.529   3.974  19.638  0.00  0.00    +0.000 A 
ATOM      4  C   UNL     1       4.211   3.851  18.431  0.00  0.00    +0.000 A 
ATOM      5  C   UNL     1       4.267   4.909  17.521  0.00  0.00    +0.000 A 
ATOM      6  C   UNL     1       3.675   6.133  17.881  0.00  0.00    +0.000 A 
ENDROOT
BRANCH   5   7
ATOM      7  N   UNL     1       4.873   4.789  16.251  0.00  0.00    +0.000 N 
ATOM      8  C   UNL     1       6.171   5.156  15.916  0.00  0.00    +0.000 C 
ATOM      9  O   UNL     1       6.993   5.707  16.642  0.00  0.00    +0.000 OA
ATOM     10  H   UNL     1       4.346   4.346  15.505  0.00  0.00    +0.000 HD
BRANCH   8  11
ATOM     11  C   UNL     1       6.578   4.824  14.518  0.00  0.00    +0.000 A 
ATOM     12  C   UNL     1       5.850   3.875  13.812  0.00  0.00    +0.000 A 
ATOM     13  C   UNL     1       6.257   3.592  12.524  0.00  0.00    +0.000 A 
ATOM     14  F   UNL     1       5.593   2.680  11.804  0.00  0.00    +0.000 F 
ATOM     15  C   UNL     1       7.349   4.240  11.965  0.00  0.00    +0.000 A 
ATOM     16  C   UNL     1       8.006   5.174  12.742  0.00  0.00    +0.000 A 
ATOM     17  N   UNL     1       7.653   5.489  14.009  0.00  0.00    +0.000 NA
ENDBRANCH   8  11
ENDBRANCH   5   7
BRANCH   1  19
ATOM     18  C   UNL     1       1.928   8.361  18.253  0.00  0.00    +0.000 C 
ATOM     19  C   UNL     1       2.388   7.618  19.513  0.00  0.00    +0.000 C 
BRANCH  19  20
ATOM     20  C   UNL     1       1.217   7.495  20.528  0.00  0.00    +0.000 C 
BRANCH  20  21
ATOM     21  C   UNL     1       1.309   8.533  21.659  0.00  0.00    +0.000 C 
BRANCH  21  22
ATOM     22  C   UNL     1       0.411   9.720  21.443  0.00  0.00    +0.000 C 
ATOM     23  C   UNL     1       0.769  10.787  20.705  0.00  0.00    +0.000 C 
BRANCH  23  24
ATOM     24  C   UNL     1      -0.149  11.839  20.461  0.00  0.00    +0.000 A 
ATOM     25  N   UNL     1      -1.470  11.834  20.413  0.00  0.00    +0.000 NA
ATOM     26  N   UNL     1      -1.907  13.100  20.102  0.00  0.00    +0.000 NA
ATOM     27  C   UNL     1      -0.847  13.858  19.964  0.00  0.00    +0.000 A 
ATOM     28  N   UNL     1       0.277  13.119  20.185  0.00  0.00    +0.000 N 
ATOM     29  C   UNL     1       1.622  13.626  20.116  0.00  0.00    +0.000 C 
ENDBRANCH  23  24
ENDBRANCH  21  22
ENDBRANCH  20  21
ENDBRANCH  19  20
ENDBRANCH   1  19
TORSDOF 7
ENDMDL
MODEL 8
REMARK VINA RESULT:      -7.7      1.632      2.095
REMARK  Name = 
REMARK  9 active torsions:
REMARK  status: ('A' for Active; 'I' for Inactive)
REMARK    1  A    between atoms: C_1  and  C_2
REMARK    2  A    between atoms: C_2  and  C_3
REMARK    3  A    between atoms: C_2  and  C_13
REMARK    4  A    between atoms: C_3  and  C_4
REMARK    5  A    between atoms: C_4  and  C_5
REMARK    6  A    between atoms: C_6  and  C_7
REMARK    7  A    between atoms: N_11  and  C_12
REMARK    8  A    between atoms: C_17  and  N_18
REMARK    9  A    between atoms: C_19  and  C_21
REMARK                            x       y       z     vdW  Elec       q    Type
REMARK                         _______ _______ _______ _____ _____    ______ ____
ROOT
ATOM      1  C   UNL     1       5.382   5.023  18.315  0.00  0.00    +0.000 A 
ATOM      2  C   UNL     1       4.748   3.831  17.932  0.00  0.00    +0.000 A 
ATOM      3  C   UNL     1       3.366   3.761  17.840  0.00  0.00    +0.000 A 
ATOM      4  C   UNL     1       2.590   4.860  18.196  0.00  0.00    +0.000 A 
ATOM      5  C   UNL     1       3.176   6.040  18.660  0.00  0.00    +0.000 A 
ATOM      6  C   UNL     1       4.579   6.121  18.695  0.00  0.00    +0.000 A 
ENDROOT
BRANCH   5   7
ATOM      7  N   UNL     1       2.415   7.140  19.113  0.00  0.00    +0.000 N 
ATOM      8  C   UNL     1       2.125   8.296  18.400  0.00  0.00    +0.000 C 
ATOM      9  O   UNL     1       2.531   8.593  17.280  0.00  0.00    +0.000 OA
ATOM     10  H   UNL     1       1.984   7.083  20.031  0.00  0.00    +0.000 HD
BRANCH   8  11
ATOM     11  C   UNL     1       1.215   9.254  19.095  0.00  0.00    +0.000 A 
ATOM     12  C   UNL     1       0.510  10.182  18.339  0.00  0.00    +0.000 A 
ATOM     13  C   UNL     1      -0.319  11.053  19.016  0.00  0.00    +0.000 A 
ATOM     14  F   UNL     1      -1.015  11.971  18.334  0.00  0.00    +0.000 F 
ATOM     15  C   UNL     1      -0.438  10.993  20.397  0.00  0.00    +0.000 A 
ATOM     16  C   UNL     1       0.298  10.031  21.062  0.00  0.00    +0.000 A 
ATOM     17  N   UNL     1       1.127   9.155  20.451  0.00  0.00    +0.000 NA
ENDBRANCH   8  11
ENDBRANCH   5   7
BRANCH   1  19
ATOM     18  C   UNL     1       7.447   4.664  16.967  0.00  0.00    +0.000 C 
ATOM     19  C   UNL     1       6.902   5.125  18.323  0.00  0.00    +0.000 C 
BRANCH  19  20
ATOM     20  C   UNL     1       7.437   6.543  18.669  0.00  0.00    +0.000 C 
BRANCH  20  21
ATOM     21  C   UNL     1       7.727   7.384  17.415  0.00  0.00    +0.000 C 
BRANCH  21  22
ATOM     22  C   UNL     1       7.771   8.860  17.694  0.00  0.00    +0.000 C 
ATOM     23  C   UNL     1       8.801   9.460  18.319  0.00  0.00    +0.000 C 
BRANCH  23  24
ATOM     24  C   UNL     1       8.832  10.868  18.478  0.00  0.00    +0.000 A 
ATOM     25  N   UNL     1       8.639  11.837  17.599  0.00  0.00    +0.000 NA
ATOM     26  N   UNL     1       8.814  13.046  18.228  0.00  0.00    +0.000 NA
ATOM     27  C   UNL     1       9.112  12.799  19.480  0.00  0.00    +0.000 A 
ATOM     28  N   UNL     1       9.129  11.452  19.689  0.00  0.00    +0.000 N 
ATOM     29  C   UNL     1       9.421  10.818  20.948  0.00  0.00    +0.000 C 
ENDBRANCH  23  24
ENDBRANCH  21  22
ENDBRANCH  20  21
ENDBRANCH  19  20
ENDBRANCH   1  19
TORSDOF 7
ENDMDL
MODEL 9
REMARK VINA RESULT:      -7.7      1.347      1.475
REMARK  Name = 
REMARK  9 active torsions:
REMARK  status: ('A' for Active; 'I' for Inactive)
REMARK    1  A    between atoms: C_1  and  C_2
REMARK    2  A    between atoms: C_2  and  C_3
REMARK    3  A    between atoms: C_2  and  C_13
REMARK    4  A    between atoms: C_3  and  C_4
REMARK    5  A    between atoms: C_4  and  C_5
REMARK    6  A    between atoms: C_6  and  C_7
REMARK    7  A    between atoms: N_11  and  C_12
REMARK    8  A    between atoms: C_17  and  N_18
REMARK    9  A    between atoms: C_19  and  C_21
REMARK                            x       y       z     vdW  Elec       q    Type
REMARK                         _______ _______ _______ _____ _____    ______ ____
ROOT
ATOM      1  C   UNL     1       5.123   5.177  17.710  0.00  0.00    +0.000 A 
ATOM      2  C   UNL     1       4.400   3.975  17.731  0.00  0.00    +0.000 A 
ATOM      3  C   UNL     1       3.023   3.979  17.895  0.00  0.00    +0.000 A 
ATOM      4  C   UNL     1       2.352   5.180  18.109  0.00  0.00    +0.000 A 
ATOM      5  C   UNL     1       3.044   6.392  18.175  0.00  0.00    +0.000 A 
ATOM      6  C   UNL     1       4.432   6.384  17.952  0.00  0.00    +0.000 A 
ENDROOT
BRANCH   5   7
ATOM      7  N   UNL     1       2.406   7.615  18.479  0.00  0.00    +0.000 N 
ATOM      8  C   UNL     1       1.809   7.960  19.686  0.00  0.00    +0.000 C 
ATOM      9  O   UNL     1       1.672   7.243  20.672  0.00  0.00    +0.000 OA
ATOM     10  H   UNL     1       2.416   8.351  17.780  0.00  0.00    +0.000 HD
BRANCH   8  11
ATOM     11  C   UNL     1       1.296   9.360  19.757  0.00  0.00    +0.000 A 
ATOM     12  C   UNL     1       0.855   9.854  20.978  0.00  0.00    +0.000 A 
ATOM     13  C   UNL     1       0.384  11.151  21.005  0.00  0.00    +0.000 A 
ATOM     14  F   UNL     1      -0.059  11.672  22.156  0.00  0.00    +0.000 F 
ATOM     15  C   UNL     1       0.361  11.924  19.853  0.00  0.00    +0.000 A 
ATOM     16  C   UNL     1       0.827  11.347  18.687  0.00  0.00    +0.000 A 
ATOM     17  N   UNL     1       1.296  10.082  18.601  0.00  0.00    +0.000 NA
ENDBRANCH   8  11
ENDBRANCH   5   7
BRANCH   1  19
ATOM     18  C   UNL     1       6.865   5.489  15.955  0.00  0.00    +0.000 C 
ATOM     19  C   UNL     1       6.622   5.175  17.436  0.00  0.00    +0.000 C 
BRANCH  19  20
ATOM     20  C   UNL     1       7.428   6.152  18.337  0.00  0.00    +0.000 C 
BRANCH  20  21
ATOM     21  C   UNL     1       7.786   7.460  17.613  0.00  0.00    +0.000 C 
BRANCH  21  22
ATOM     22  C   UNL     1       8.483   8.453  18.502  0.00  0.00    +0.000 C 
ATOM     23  C   UNL     1       8.650   9.746  18.170  0.00  0.00    +0.000 C 
BRANCH  23  24
ATOM     24  C   UNL     1       9.236  10.659  19.083  0.00  0.00    +0.000 A 
ATOM     25  N   UNL     1       9.561  10.513  20.356  0.00  0.00    +0.000 NA
ATOM     26  N   UNL     1      10.066  11.703  20.823  0.00  0.00    +0.000 NA
ATOM     27  C   UNL     1      10.042  12.557  19.829  0.00  0.00    +0.000 A 
ATOM     28  N   UNL     1       9.538  11.952  18.717  0.00  0.00    +0.000 N 
ATOM     29  C   UNL     1       9.364  12.591  17.439  0.00  0.00    +0.000 C 
ENDBRANCH  23  24
ENDBRANCH  21  22
ENDBRANCH  20  21
ENDBRANCH  19  20
ENDBRANCH   1  19
TORSDOF 7
ENDMDL
