MODEL 1
REMARK VINA RESULT:      -8.9      0.000      0.000
REMARK  Name = 
REMARK  8 active torsions:
REMARK  status: ('A' for Active; 'I' for Inactive)
REMARK    1  A    between atoms: C_1  and  C_2
REMARK    2  A    between atoms: C_2  and  C_3
REMARK    3  A    between atoms: C_2  and  C_4
REMARK    4  A    between atoms: C_2  and  C_5
REMARK    5  A    between atoms: C_5  and  N_6
REMARK    6  A    between atoms: C_5  and  C_23
REMARK    7  A    between atoms: C_7  and  C_9
REMARK    8  A    between atoms: N_11  and  C_12
REMARK                            x       y       z     vdW  Elec       q    Type
REMARK                         _______ _______ _______ _____ _____    ______ ____
ROOT
ATOM      1  N   UNL     1       6.535   6.822  17.704  0.00  0.00    +0.000 N 
ATOM      2  C   UNL     1       7.714   7.089  18.359  0.00  0.00    +0.000 C 
ATOM      3  O   UNL     1       8.412   6.301  18.982  0.00  0.00    +0.000 OA
ATOM      4  H   UNL     1       6.131   7.609  17.194  0.00  0.00    +0.000 HD
ENDROOT
BRANCH   2   5
ATOM      5  C   UNL     1       8.140   8.566  18.214  0.00  0.00    +0.000 C 
ATOM      6  O   UNL     1       7.778   9.158  17.205  0.00  0.00    +0.000 OA
ATOM      7  N   UNL     1       8.950   9.045  19.233  0.00  0.00    +0.000 N 
ATOM      8  H   UNL     1       9.255   8.360  19.918  0.00  0.00    +0.000 HD
BRANCH   7   9
ATOM      9  C   UNL     1       9.485  10.354  19.271  0.00  0.00    +0.000 A 
ATOM     10  C   UNL     1       9.463  11.154  20.407  0.00  0.00    +0.000 A 
ATOM     11  N   UNL     1       9.902  12.434  20.458  0.00  0.00    +0.000 NA
ATOM     12  C   UNL     1      10.371  12.997  19.333  0.00  0.00    +0.000 A 
ATOM     13  C   UNL     1      10.757  14.336  19.327  0.00  0.00    +0.000 A 
ATOM     14  F   UNL     1      10.667  15.063  20.454  0.00  0.00    +0.000 F 
ATOM     15  C   UNL     1      11.221  14.974  18.180  0.00  0.00    +0.000 A 
ATOM     16  C   UNL     1      11.327  14.258  16.995  0.00  0.00    +0.000 A 
ATOM     17  C   UNL     1      10.965  12.908  16.970  0.00  0.00    +0.000 A 
ATOM     18  C   UNL     1      10.475  12.267  18.128  0.00  0.00    +0.000 A 
ATOM     19  C   UNL     1      10.048  10.917  18.124  0.00  0.00    +0.000 A 
ENDBRANCH   7   9
ENDBRANCH   2   5
BRANCH   1  20
ATOM     20  C   UNL     1       5.894   5.520  17.578  0.00  0.00    +0.000 C 
BRANCH  20  21
ATOM     21  C   UNL     1       4.599   5.494  18.401  0.00  0.00    +0.000 A 
ATOM     22  C   UNL     1       3.680   6.555  18.297  0.00  0.00    +0.000 A 
ATOM     23  C   UNL     1       2.518   6.581  19.077  0.00  0.00    +0.000 A 
ATOM     24  C   UNL     1       2.256   5.538  19.958  0.00  0.00    +0.000 A 
ATOM     25  F   UNL     1       1.148   5.571  20.710  0.00  0.00    +0.000 F 
ATOM     26  C   UNL     1       3.129   4.469  20.071  0.00  0.00    +0.000 A 
ATOM     27  C   UNL     1       4.288   4.456  19.298  0.00  0.00    +0.000 A 
ATOM     28  F   UNL     1       5.122   3.413  19.430  0.00  0.00    +0.000 F 
ENDBRANCH  20  21
BRANCH  20  30
ATOM     29  C   UNL     1       7.067   4.570  15.490  0.00  0.00    +0.000 C 
ATOM     30  C   UNL     1       5.724   5.072  16.071  0.00  0.00    +0.000 C 
ATOM     31  C   UNL     1       5.244   6.228  15.171  0.00  0.00    +0.000 C 
ATOM     32  C   UNL     1       4.737   3.890  15.946  0.00  0.00    +0.000 C 
ENDBRANCH  20  30
ENDBRANCH   1  20
TORSDOF 5
ENDMDL
MODEL 2
REMARK VINA RESULT:      -8.7      0.958      1.772
REMARK  Name = 
REMARK  8 active torsions:
REMARK  status: ('A' for Active; 'I' for Inactive)
REMARK    1  A    between atoms: C_1  and  C_2
REMARK    2  A    between atoms: C_2  and  C_3
REMARK    3  A    between atoms: C_2  and  C_4
REMARK    4  A    between atoms: C_2  and  C_5
REMARK    5  A    between atoms: C_5  and  N_6
REMARK    6  A    between atoms: C_5  and  C_23
REMARK    7  A    between atoms: C_7  and  C_9
REMARK    8  A    between atoms: N_11  and  C_12
REMARK                            x       y       z     vdW  Elec       q    Type
REMARK                         _______ _______ _______ _____ _____    ______ ____
ROOT
ATOM      1  N   UNL     1       6.496   6.728  17.746  0.00  0.00    +0.000 N 
ATOM      2  C   UNL     1       7.679   7.048  18.371  0.00  0.00    +0.000 C 
ATOM      3  O   UNL     1       8.408   6.300  19.007  0.00  0.00    +0.000 OA
ATOM      4  H   UNL     1       6.063   7.487  17.217  0.00  0.00    +0.000 HD
ENDROOT
BRANCH   2   5
ATOM      5  C   UNL     1       8.063   8.529  18.168  0.00  0.00    +0.000 C 
ATOM      6  O   UNL     1       7.615   9.096  17.177  0.00  0.00    +0.000 OA
ATOM      7  N   UNL     1       8.937   9.043  19.114  0.00  0.00    +0.000 N 
ATOM      8  H   UNL     1       9.305   8.377  19.788  0.00  0.00    +0.000 HD
BRANCH   7   9
ATOM      9  C   UNL     1       9.446  10.363  19.090  0.00  0.00    +0.000 A 
ATOM     10  C   UNL     1      10.152  10.889  18.015  0.00  0.00    +0.000 A 
ATOM     11  N   UNL     1      10.712  12.121  17.987  0.00  0.00    +0.000 NA
ATOM     12  C   UNL     1      10.610  12.896  19.079  0.00  0.00    +0.000 A 
ATOM     13  C   UNL     1      11.241  14.138  19.119  0.00  0.00    +0.000 A 
ATOM     14  F   UNL     1      11.946  14.565  18.056  0.00  0.00    +0.000 F 
ATOM     15  C   UNL     1      11.191  14.966  20.237  0.00  0.00    +0.000 A 
ATOM     16  C   UNL     1      10.475  14.561  21.355  0.00  0.00    +0.000 A 
ATOM     17  C   UNL     1       9.815  13.329  21.343  0.00  0.00    +0.000 A 
ATOM     18  C   UNL     1       9.884  12.480  20.217  0.00  0.00    +0.000 A 
ATOM     19  C   UNL     1       9.274  11.203  20.192  0.00  0.00    +0.000 A 
ENDBRANCH   7   9
ENDBRANCH   2   5
BRANCH   1  20
ATOM     20  C   UNL     1       5.888   5.407  17.676  0.00  0.00    +0.000 C 
BRANCH  20  21
ATOM     21  C   UNL     1       4.582   5.390  18.482  0.00  0.00    +0.000 A 
ATOM     22  C   UNL     1       3.678   6.464  18.376  0.00  0.00    +0.000 A 
ATOM     23  C   UNL     1       2.506   6.497  19.141  0.00  0.00    +0.000 A 
ATOM     24  C   UNL     1       2.220   5.450  20.010  0.00  0.00    +0.000 A 
ATOM     25  F   UNL     1       1.103   5.490  20.747  0.00  0.00    +0.000 F 
ATOM     26  C   UNL     1       3.078   4.368  20.124  0.00  0.00    +0.000 A 
ATOM     27  C   UNL     1       4.247   4.348  19.366  0.00  0.00    +0.000 A 
ATOM     28  F   UNL     1       5.065   3.293  19.499  0.00  0.00    +0.000 F 
ENDBRANCH  20  21
BRANCH  20  30
ATOM     29  C   UNL     1       5.326   6.026  15.239  0.00  0.00    +0.000 C 
ATOM     30  C   UNL     1       5.750   4.882  16.191  0.00  0.00    +0.000 C 
ATOM     31  C   UNL     1       4.690   3.769  16.062  0.00  0.00    +0.000 C 
ATOM     32  C   UNL     1       7.100   4.359  15.653  0.00  0.00    +0.000 C 
ENDBRANCH  20  30
ENDBRANCH   1  20
TORSDOF 5
ENDMDL
MODEL 3
REMARK VINA RESULT:      -8.6      0.839      1.452
REMARK  Name = 
REMARK  8 active torsions:
REMARK  status: ('A' for Active; 'I' for Inactive)
REMARK    1  A    between atoms: C_1  and  C_2
REMARK    2  A    between atoms: C_2  and  C_3
REMARK    3  A    between atoms: C_2  and  C_4
REMARK    4  A    between atoms: C_2  and  C_5
REMARK    5  A    between atoms: C_5  and  N_6
REMARK    6  A    between atoms: C_5  and  C_23
REMARK    7  A    between atoms: C_7  and  C_9
REMARK    8  A    between atoms: N_11  and  C_12
REMARK                            x       y       z     vdW  Elec       q    Type
REMARK                         _______ _______ _______ _____ _____    ______ ____
ROOT
ATOM      1  N   UNL     1       6.533   6.756  17.718  0.00  0.00    +0.000 N 
ATOM      2  C   UNL     1       7.709   7.037  18.374  0.00  0.00    +0.000 C 
ATOM      3  O   UNL     1       8.414   6.259  19.001  0.00  0.00    +0.000 OA
ATOM      4  H   UNL     1       6.122   7.537  17.205  0.00  0.00    +0.000 HD
ENDROOT
BRANCH   2   5
ATOM      5  C   UNL     1       8.120   8.517  18.223  0.00  0.00    +0.000 C 
ATOM      6  O   UNL     1       7.743   9.106  17.217  0.00  0.00    +0.000 OA
ATOM      7  N   UNL     1       8.936   9.005  19.233  0.00  0.00    +0.000 N 
ATOM      8  H   UNL     1       9.253   8.323  19.917  0.00  0.00    +0.000 HD
BRANCH   7   9
ATOM      9  C   UNL     1       9.459  10.319  19.265  0.00  0.00    +0.000 A 
ATOM     10  C   UNL     1       9.403  11.136  20.388  0.00  0.00    +0.000 A 
ATOM     11  N   UNL     1       9.830  12.420  20.431  0.00  0.00    +0.000 NA
ATOM     12  C   UNL     1      10.324  12.969  19.309  0.00  0.00    +0.000 A 
ATOM     13  C   UNL     1      10.699  14.311  19.292  0.00  0.00    +0.000 A 
ATOM     14  F   UNL     1      10.575  15.055  20.405  0.00  0.00    +0.000 F 
ATOM     15  C   UNL     1      11.188  14.936  18.148  0.00  0.00    +0.000 A 
ATOM     16  C   UNL     1      11.329  14.202  16.977  0.00  0.00    +0.000 A 
ATOM     17  C   UNL     1      10.979  12.849  16.964  0.00  0.00    +0.000 A 
ATOM     18  C   UNL     1      10.464  12.222  18.118  0.00  0.00    +0.000 A 
ATOM     19  C   UNL     1      10.047  10.869  18.124  0.00  0.00    +0.000 A 
ENDBRANCH   7   9
ENDBRANCH   2   5
BRANCH   1  20
ATOM     20  C   UNL     1       5.905   5.447  17.598  0.00  0.00    +0.000 C 
BRANCH  20  21
ATOM     21  C   UNL     1       4.623   5.403  18.441  0.00  0.00    +0.000 A 
ATOM     22  C   UNL     1       4.401   4.329  19.323  0.00  0.00    +0.000 A 
ATOM     23  C   UNL     1       3.215   4.239  20.062  0.00  0.00    +0.000 A 
ATOM     24  C   UNL     1       2.247   5.228  19.937  0.00  0.00    +0.000 A 
ATOM     25  F   UNL     1       1.111   5.133  20.638  0.00  0.00    +0.000 F 
ATOM     26  C   UNL     1       2.443   6.309  19.092  0.00  0.00    +0.000 A 
ATOM     27  C   UNL     1       3.621   6.386  18.353  0.00  0.00    +0.000 A 
ATOM     28  F   UNL     1       3.785   7.438  17.537  0.00  0.00    +0.000 F 
ENDBRANCH  20  21
BRANCH  20  30
ATOM     29  C   UNL     1       5.304   6.206  15.210  0.00  0.00    +0.000 C 
ATOM     30  C   UNL     1       5.716   5.003  16.091  0.00  0.00    +0.000 C 
ATOM     31  C   UNL     1       4.622   3.929  15.933  0.00  0.00    +0.000 C 
ATOM     32  C   UNL     1       7.038   4.471  15.494  0.00  0.00    +0.000 C 
ENDBRANCH  20  30
ENDBRANCH   1  20
TORSDOF 5
ENDMDL
MODEL 4
REMARK VINA RESULT:      -8.4      6.030      8.207
REMARK  Name = 
REMARK  8 active torsions:
REMARK  status: ('A' for Active; 'I' for Inactive)
REMARK    1  A    between atoms: C_1  and  C_2
REMARK    2  A    between atoms: C_2  and  C_3
REMARK    3  A    between atoms: C_2  and  C_4
REMARK    4  A    between atoms: C_2  and  C_5
REMARK    5  A    between atoms: C_5  and  N_6
REMARK    6  A    between atoms: C_5  and  C_23
REMARK    7  A    between atoms: C_7  and  C_9
REMARK    8  A    between atoms: N_11  and  C_12
REMARK                            x       y       z     vdW  Elec       q    Type
REMARK                         _______ _______ _______ _____ _____    ______ ____
ROOT
ATOM      1  N   UNL     1       2.204   6.125  19.481  0.00  0.00    +0.000 N 
ATOM      2  C   UNL     1       2.113   7.375  18.915  0.00  0.00    +0.000 C 
ATOM      3  O   UNL     1       2.306   7.677  17.745  0.00  0.00    +0.000 OA
ATOM      4  H   UNL     1       1.950   6.073  20.468  0.00  0.00    +0.000 HD
ENDROOT
BRANCH   2   5
ATOM      5  C   UNL     1       1.688   8.449  19.939  0.00  0.00    +0.000 C 
ATOM      6  O   UNL     1       1.725   8.140  21.125  0.00  0.00    +0.000 OA
ATOM      7  N   UNL     1       1.248   9.643  19.389  0.00  0.00    +0.000 N 
ATOM      8  H   UNL     1       1.163   9.662  18.377  0.00  0.00    +0.000 HD
BRANCH   7   9
ATOM      9  C   UNL     1       0.775  10.740  20.148  0.00  0.00    +0.000 A 
ATOM     10  C   UNL     1       1.474  11.933  20.283  0.00  0.00    +0.000 A 
ATOM     11  N   UNL     1       1.084  12.973  21.057  0.00  0.00    +0.000 NA
ATOM     12  C   UNL     1      -0.046  12.851  21.773  0.00  0.00    +0.000 A 
ATOM     13  C   UNL     1      -0.438  13.867  22.642  0.00  0.00    +0.000 A 
ATOM     14  F   UNL     1       0.313  14.977  22.756  0.00  0.00    +0.000 F 
ATOM     15  C   UNL     1      -1.583  13.778  23.428  0.00  0.00    +0.000 A 
ATOM     16  C   UNL     1      -2.384  12.646  23.341  0.00  0.00    +0.000 A 
ATOM     17  C   UNL     1      -2.030  11.616  22.467  0.00  0.00    +0.000 A 
ATOM     18  C   UNL     1      -0.857  11.698  21.685  0.00  0.00    +0.000 A 
ATOM     19  C   UNL     1      -0.440  10.649  20.831  0.00  0.00    +0.000 A 
ENDBRANCH   7   9
ENDBRANCH   2   5
BRANCH   1  20
ATOM     20  C   UNL     1       2.507   4.883  18.783  0.00  0.00    +0.000 C 
BRANCH  20  21
ATOM     21  C   UNL     1       4.008   4.812  18.471  0.00  0.00    +0.000 A 
ATOM     22  C   UNL     1       4.940   5.330  19.390  0.00  0.00    +0.000 A 
ATOM     23  C   UNL     1       6.311   5.326  19.104  0.00  0.00    +0.000 A 
ATOM     24  C   UNL     1       6.763   4.789  17.904  0.00  0.00    +0.000 A 
ATOM     25  F   UNL     1       8.074   4.796  17.631  0.00  0.00    +0.000 F 
ATOM     26  C   UNL     1       5.875   4.253  16.987  0.00  0.00    +0.000 A 
ATOM     27  C   UNL     1       4.512   4.270  17.275  0.00  0.00    +0.000 A 
ATOM     28  F   UNL     1       3.670   3.751  16.368  0.00  0.00    +0.000 F 
ENDBRANCH  20  21
BRANCH  20  30
ATOM     29  C   UNL     1       1.062   2.759  18.573  0.00  0.00    +0.000 C 
ATOM     30  C   UNL     1       1.930   3.614  19.529  0.00  0.00    +0.000 C 
ATOM     31  C   UNL     1       1.040   3.996  20.728  0.00  0.00    +0.000 C 
ATOM     32  C   UNL     1       3.065   2.686  20.016  0.00  0.00    +0.000 C 
ENDBRANCH  20  30
ENDBRANCH   1  20
TORSDOF 5
ENDMDL
MODEL 5
REMARK VINA RESULT:      -8.4      1.264      2.021
REMARK  Name = 
REMARK  8 active torsions:
REMARK  status: ('A' for Active; 'I' for Inactive)
REMARK    1  A    between atoms: C_1  and  C_2
REMARK    2  A    between atoms: C_2  and  C_3
REMARK    3  A    between atoms: C_2  and  C_4
REMARK    4  A    between atoms: C_2  and  C_5
REMARK    5  A    between atoms: C_5  and  N_6
REMARK    6  A    between atoms: C_5  and  C_23
REMARK    7  A    between atoms: C_7  and  C_9
REMARK    8  A    between atoms: N_11  and  C_12
REMARK                            x       y       z     vdW  Elec       q    Type
REMARK                         _______ _______ _______ _____ _____    ______ ____
ROOT
ATOM      1  N   UNL     1       6.555   6.778  17.684  0.00  0.00    +0.000 N 
ATOM      2  C   UNL     1       7.701   7.105  18.372  0.00  0.00    +0.000 C 
ATOM      3  O   UNL     1       8.397   6.363  19.050  0.00  0.00    +0.000 OA
ATOM      4  H   UNL     1       6.148   7.533  17.130  0.00  0.00    +0.000 HD
ENDROOT
BRANCH   2   5
ATOM      5  C   UNL     1       8.088   8.588  18.187  0.00  0.00    +0.000 C 
ATOM      6  O   UNL     1       7.662   9.160  17.190  0.00  0.00    +0.000 OA
ATOM      7  N   UNL     1       8.940   9.097  19.155  0.00  0.00    +0.000 N 
ATOM      8  H   UNL     1       9.293   8.428  19.833  0.00  0.00    +0.000 HD
BRANCH   7   9
ATOM      9  C   UNL     1       9.449  10.417  19.150  0.00  0.00    +0.000 A 
ATOM     10  C   UNL     1      10.170  10.953  18.089  0.00  0.00    +0.000 A 
ATOM     11  N   UNL     1      10.729  12.186  18.080  0.00  0.00    +0.000 NA
ATOM     12  C   UNL     1      10.612  12.951  19.177  0.00  0.00    +0.000 A 
ATOM     13  C   UNL     1      11.242  14.192  19.237  0.00  0.00    +0.000 A 
ATOM     14  F   UNL     1      11.961  14.629  18.188  0.00  0.00    +0.000 F 
ATOM     15  C   UNL     1      11.177  15.010  20.362  0.00  0.00    +0.000 A 
ATOM     16  C   UNL     1      10.446  14.594  21.467  0.00  0.00    +0.000 A 
ATOM     17  C   UNL     1       9.787  13.362  21.435  0.00  0.00    +0.000 A 
ATOM     18  C   UNL     1       9.871  12.524  20.302  0.00  0.00    +0.000 A 
ATOM     19  C   UNL     1       9.262  11.247  20.257  0.00  0.00    +0.000 A 
ENDBRANCH   7   9
ENDBRANCH   2   5
BRANCH   1  20
ATOM     20  C   UNL     1       5.958   5.454  17.585  0.00  0.00    +0.000 C 
BRANCH  20  21
ATOM     21  C   UNL     1       4.687   5.389  18.443  0.00  0.00    +0.000 A 
ATOM     22  C   UNL     1       4.501   4.322  19.342  0.00  0.00    +0.000 A 
ATOM     23  C   UNL     1       3.326   4.211  20.095  0.00  0.00    +0.000 A 
ATOM     24  C   UNL     1       2.332   5.174  19.967  0.00  0.00    +0.000 A 
ATOM     25  F   UNL     1       1.206   5.060  20.682  0.00  0.00    +0.000 F 
ATOM     26  C   UNL     1       2.491   6.247  19.106  0.00  0.00    +0.000 A 
ATOM     27  C   UNL     1       3.659   6.344  18.353  0.00  0.00    +0.000 A 
ATOM     28  F   UNL     1       3.787   7.389  17.520  0.00  0.00    +0.000 F 
ENDBRANCH  20  21
BRANCH  20  30
ATOM     29  C   UNL     1       7.070   4.377  15.525  0.00  0.00    +0.000 C 
ATOM     30  C   UNL     1       5.763   4.988  16.086  0.00  0.00    +0.000 C 
ATOM     31  C   UNL     1       5.375   6.157  15.159  0.00  0.00    +0.000 C 
ATOM     32  C   UNL     1       4.694   3.879  15.978  0.00  0.00    +0.000 C 
ENDBRANCH  20  30
ENDBRANCH   1  20
TORSDOF 5
ENDMDL
MODEL 6
REMARK VINA RESULT:      -8.4      6.037      8.242
REMARK  Name = 
REMARK  8 active torsions:
REMARK  status: ('A' for Active; 'I' for Inactive)
REMARK    1  A    between atoms: C_1  and  C_2
REMARK    2  A    between atoms: C_2  and  C_3
REMARK    3  A    between atoms: C_2  and  C_4
REMARK    4  A    between atoms: C_2  and  C_5
REMARK    5  A    between atoms: C_5  and  N_6
REMARK    6  A    between atoms: C_5  and  C_23
REMARK    7  A    between atoms: C_7  and  C_9
REMARK    8  A    between atoms: N_11  and  C_12
REMARK                            x       y       z     vdW  Elec       q    Type
REMARK                         _______ _______ _______ _____ _____    ______ ____
ROOT
ATOM      1  N   UNL     1       2.304   6.269  18.494  0.00  0.00    +0.000 N 
ATOM      2  C   UNL     1       2.742   7.398  17.840  0.00  0.00    +0.000 C 
ATOM      3  O   UNL     1       3.590   7.466  16.962  0.00  0.00    +0.000 OA
ATOM      4  H   UNL     1       1.545   6.417  19.161  0.00  0.00    +0.000 HD
ENDROOT
BRANCH   2   5
ATOM      5  C   UNL     1       2.004   8.668  18.316  0.00  0.00    +0.000 C 
ATOM      6  O   UNL     1       2.045   9.650  17.582  0.00  0.00    +0.000 OA
ATOM      7  N   UNL     1       1.419   8.572  19.569  0.00  0.00    +0.000 N 
ATOM      8  H   UNL     1       1.607   7.716  20.084  0.00  0.00    +0.000 HD
BRANCH   7   9
ATOM      9  C   UNL     1       0.732   9.631  20.207  0.00  0.00    +0.000 A 
ATOM     10  C   UNL     1       0.978  10.020  21.518  0.00  0.00    +0.000 A 
ATOM     11  N   UNL     1       0.292  10.982  22.180  0.00  0.00    +0.000 NA
ATOM     12  C   UNL     1      -0.720  11.598  21.548  0.00  0.00    +0.000 A 
ATOM     13  C   UNL     1      -1.501  12.535  22.222  0.00  0.00    +0.000 A 
ATOM     14  F   UNL     1      -1.232  12.831  23.506  0.00  0.00    +0.000 F 
ATOM     15  C   UNL     1      -2.580  13.179  21.622  0.00  0.00    +0.000 A 
ATOM     16  C   UNL     1      -2.890  12.900  20.297  0.00  0.00    +0.000 A 
ATOM     17  C   UNL     1      -2.117  11.978  19.586  0.00  0.00    +0.000 A 
ATOM     18  C   UNL     1      -1.037  11.310  20.202  0.00  0.00    +0.000 A 
ATOM     19  C   UNL     1      -0.268  10.330  19.528  0.00  0.00    +0.000 A 
ENDBRANCH   7   9
ENDBRANCH   2   5
BRANCH   1  20
ATOM     20  C   UNL     1       2.736   4.902  18.234  0.00  0.00    +0.000 C 
BRANCH  20  21
ATOM     21  C   UNL     1       4.269   4.835  18.204  0.00  0.00    +0.000 A 
ATOM     22  C   UNL     1       5.013   5.293  19.309  0.00  0.00    +0.000 A 
ATOM     23  C   UNL     1       6.412   5.292  19.284  0.00  0.00    +0.000 A 
ATOM     24  C   UNL     1       7.082   4.821  18.160  0.00  0.00    +0.000 A 
ATOM     25  F   UNL     1       8.421   4.832  18.137  0.00  0.00    +0.000 F 
ATOM     26  C   UNL     1       6.381   4.346  17.065  0.00  0.00    +0.000 A 
ATOM     27  C   UNL     1       4.988   4.359  17.094  0.00  0.00    +0.000 A 
ATOM     28  F   UNL     1       4.331   3.900  16.017  0.00  0.00    +0.000 F 
ENDBRANCH  20  21
BRANCH  20  30
ATOM     29  C   UNL     1       0.922   3.088  18.479  0.00  0.00    +0.000 C 
ATOM     30  C   UNL     1       2.052   3.857  19.205  0.00  0.00    +0.000 C 
ATOM     31  C   UNL     1       1.421   4.534  20.438  0.00  0.00    +0.000 C 
ATOM     32  C   UNL     1       3.061   2.786  19.676  0.00  0.00    +0.000 C 
ENDBRANCH  20  30
ENDBRANCH   1  20
TORSDOF 5
ENDMDL
MODEL 7
REMARK VINA RESULT:      -8.3      6.087      8.217
REMARK  Name = 
REMARK  8 active torsions:
REMARK  status: ('A' for Active; 'I' for Inactive)
REMARK    1  A    between atoms: C_1  and  C_2
REMARK    2  A    between atoms: C_2  and  C_3
REMARK    3  A    between atoms: C_2  and  C_4
REMARK    4  A    between atoms: C_2  and  C_5
REMARK    5  A    between atoms: C_5  and  N_6
REMARK    6  A    between atoms: C_5  and  C_23
REMARK    7  A    between atoms: C_7  and  C_9
REMARK    8  A    between atoms: N_11  and  C_12
REMARK                            x       y       z     vdW  Elec       q    Type
REMARK                         _______ _______ _______ _____ _____    ______ ____
ROOT
ATOM      1  N   UNL     1       2.226   6.192  18.362  0.00  0.00    +0.000 N 
ATOM      2  C   UNL     1       2.739   7.325  17.774  0.00  0.00    +0.000 C 
ATOM      3  O   UNL     1       3.627   7.390  16.935  0.00  0.00    +0.000 OA
ATOM      4  H   UNL     1       1.446   6.348  19.002  0.00  0.00    +0.000 HD
ENDROOT
BRANCH   2   5
ATOM      5  C   UNL     1       2.035   8.608  18.269  0.00  0.00    +0.000 C 
ATOM      6  O   UNL     1       2.130   9.608  17.566  0.00  0.00    +0.000 OA
ATOM      7  N   UNL     1       1.417   8.497  19.505  0.00  0.00    +0.000 N 
ATOM      8  H   UNL     1       1.562   7.621  19.998  0.00  0.00    +0.000 HD
BRANCH   7   9
ATOM      9  C   UNL     1       0.753   9.563  20.158  0.00  0.00    +0.000 A 
ATOM     10  C   UNL     1       1.021   9.940  21.468  0.00  0.00    +0.000 A 
ATOM     11  N   UNL     1       0.357  10.907  22.144  0.00  0.00    +0.000 NA
ATOM     12  C   UNL     1      -0.654  11.541  21.528  0.00  0.00    +0.000 A 
ATOM     13  C   UNL     1      -1.413  12.486  22.216  0.00  0.00    +0.000 A 
ATOM     14  F   UNL     1      -1.125  12.769  23.499  0.00  0.00    +0.000 F 
ATOM     15  C   UNL     1      -2.490  13.148  21.634  0.00  0.00    +0.000 A 
ATOM     16  C   UNL     1      -2.820  12.882  20.312  0.00  0.00    +0.000 A 
ATOM     17  C   UNL     1      -2.070  11.953  19.586  0.00  0.00    +0.000 A 
ATOM     18  C   UNL     1      -0.991  11.266  20.184  0.00  0.00    +0.000 A 
ATOM     19  C   UNL     1      -0.245  10.280  19.495  0.00  0.00    +0.000 A 
ENDBRANCH   7   9
ENDBRANCH   2   5
BRANCH   1  20
ATOM     20  C   UNL     1       2.609   4.819  18.066  0.00  0.00    +0.000 C 
BRANCH  20  21
ATOM     21  C   UNL     1       4.128   4.734  17.860  0.00  0.00    +0.000 A 
ATOM     22  C   UNL     1       4.645   4.211  16.660  0.00  0.00    +0.000 A 
ATOM     23  C   UNL     1       6.026   4.073  16.471  0.00  0.00    +0.000 A 
ATOM     24  C   UNL     1       6.902   4.471  17.474  0.00  0.00    +0.000 A 
ATOM     25  F   UNL     1       8.221   4.328  17.292  0.00  0.00    +0.000 F 
ATOM     26  C   UNL     1       6.427   5.008  18.659  0.00  0.00    +0.000 A 
ATOM     27  C   UNL     1       5.052   5.132  18.843  0.00  0.00    +0.000 A 
ATOM     28  F   UNL     1       4.616   5.649  20.002  0.00  0.00    +0.000 F 
ENDBRANCH  20  21
BRANCH  20  30
ATOM     29  C   UNL     1       1.497   4.522  20.371  0.00  0.00    +0.000 C 
ATOM     30  C   UNL     1       2.031   3.789  19.117  0.00  0.00    +0.000 C 
ATOM     31  C   UNL     1       3.098   2.786  19.598  0.00  0.00    +0.000 C 
ATOM     32  C   UNL     1       0.829   3.010  18.536  0.00  0.00    +0.000 C 
ENDBRANCH  20  30
ENDBRANCH   1  20
TORSDOF 5
ENDMDL
MODEL 8
REMARK VINA RESULT:      -8.2      6.078      8.468
REMARK  Name = 
REMARK  8 active torsions:
REMARK  status: ('A' for Active; 'I' for Inactive)
REMARK    1  A    between atoms: C_1  and  C_2
REMARK    2  A    between atoms: C_2  and  C_3
REMARK    3  A    between atoms: C_2  and  C_4
REMARK    4  A    between atoms: C_2  and  C_5
REMARK    5  A    between atoms: C_5  and  N_6
REMARK    6  A    between atoms: C_5  and  C_23
REMARK    7  A    between atoms: C_7  and  C_9
REMARK    8  A    between atoms: N_11  and  C_12
REMARK                            x       y       z     vdW  Elec       q    Type
REMARK                         _______ _______ _______ _____ _____    ______ ____
ROOT
ATOM      1  N   UNL     1       2.182   5.767  19.388  0.00  0.00    +0.000 N 
ATOM      2  C   UNL     1       2.234   7.061  18.922  0.00  0.00    +0.000 C 
ATOM      3  O   UNL     1       2.707   7.451  17.865  0.00  0.00    +0.000 OA
ATOM      4  H   UNL     1       1.693   5.642  20.275  0.00  0.00    +0.000 HD
ENDROOT
BRANCH   2   5
ATOM      5  C   UNL     1       1.572   8.058  19.898  0.00  0.00    +0.000 C 
ATOM      6  O   UNL     1       1.422   7.692  21.059  0.00  0.00    +0.000 OA
ATOM      7  N   UNL     1       1.160   9.252  19.326  0.00  0.00    +0.000 N 
ATOM      8  H   UNL     1       1.250   9.316  18.317  0.00  0.00    +0.000 HD
BRANCH   7   9
ATOM      9  C   UNL     1       0.495  10.282  20.033  0.00  0.00    +0.000 A 
ATOM     10  C   UNL     1       0.928  10.766  21.261  0.00  0.00    +0.000 A 
ATOM     11  N   UNL     1       0.278  11.700  21.995  0.00  0.00    +0.000 NA
ATOM     12  C   UNL     1      -0.884  12.186  21.530  0.00  0.00    +0.000 A 
ATOM     13  C   UNL     1      -1.623  13.088  22.293  0.00  0.00    +0.000 A 
ATOM     14  F   UNL     1      -1.165  13.480  23.495  0.00  0.00    +0.000 F 
ATOM     15  C   UNL     1      -2.848  13.598  21.871  0.00  0.00    +0.000 A 
ATOM     16  C   UNL     1      -3.356  13.216  20.637  0.00  0.00    +0.000 A 
ATOM     17  C   UNL     1      -2.634  12.327  19.837  0.00  0.00    +0.000 A 
ATOM     18  C   UNL     1      -1.402  11.794  20.276  0.00  0.00    +0.000 A 
ATOM     19  C   UNL     1      -0.671  10.849  19.516  0.00  0.00    +0.000 A 
ENDBRANCH   7   9
ENDBRANCH   2   5
BRANCH   1  20
ATOM     20  C   UNL     1       2.645   4.579  18.684  0.00  0.00    +0.000 C 
BRANCH  20  21
ATOM     21  C   UNL     1       4.159   4.667  18.451  0.00  0.00    +0.000 A 
ATOM     22  C   UNL     1       5.001   5.134  19.478  0.00  0.00    +0.000 A 
ATOM     23  C   UNL     1       6.379   5.274  19.272  0.00  0.00    +0.000 A 
ATOM     24  C   UNL     1       6.930   4.936  18.042  0.00  0.00    +0.000 A 
ATOM     25  F   UNL     1       8.247   5.081  17.846  0.00  0.00    +0.000 F 
ATOM     26  C   UNL     1       6.133   4.455  17.016  0.00  0.00    +0.000 A 
ATOM     27  C   UNL     1       4.762   4.328  17.226  0.00  0.00    +0.000 A 
ATOM     28  F   UNL     1       4.010   3.866  16.215  0.00  0.00    +0.000 F 
ENDBRANCH  20  21
BRANCH  20  30
ATOM     29  C   UNL     1       2.015   3.431  20.903  0.00  0.00    +0.000 C 
ATOM     30  C   UNL     1       2.164   3.240  19.374  0.00  0.00    +0.000 C 
ATOM     31  C   UNL     1       3.157   2.082  19.157  0.00  0.00    +0.000 C 
ATOM     32  C   UNL     1       0.770   2.814  18.862  0.00  0.00    +0.000 C 
ENDBRANCH  20  30
ENDBRANCH   1  20
TORSDOF 5
ENDMDL
MODEL 9
REMARK VINA RESULT:      -8.2      6.134      8.089
REMARK  Name = 
REMARK  8 active torsions:
REMARK  status: ('A' for Active; 'I' for Inactive)
REMARK    1  A    between atoms: C_1  and  C_2
REMARK    2  A    between atoms: C_2  and  C_3
REMARK    3  A    between atoms: C_2  and  C_4
REMARK    4  A    between atoms: C_2  and  C_5
REMARK    5  A    between atoms: C_5  and  N_6
REMARK    6  A    between atoms: C_5  and  C_23
REMARK    7  A    between atoms: C_7  and  C_9
REMARK    8  A    between atoms: N_11  and  C_12
REMARK                            x       y       z     vdW  Elec       q    Type
REMARK                         _______ _______ _______ _____ _____    ______ ____
ROOT
ATOM      1  N   UNL     1       2.180   5.937  19.640  0.00  0.00    +0.000 N 
ATOM      2  C   UNL     1       2.043   7.221  19.166  0.00  0.00    +0.000 C 
ATOM      3  O   UNL     1       2.199   7.610  18.017  0.00  0.00    +0.000 OA
ATOM      4  H   UNL     1       1.952   5.809  20.627  0.00  0.00    +0.000 HD
ENDROOT
BRANCH   2   5
ATOM      5  C   UNL     1       1.619   8.208  20.275  0.00  0.00    +0.000 C 
ATOM      6  O   UNL     1       1.764   7.845  21.437  0.00  0.00    +0.000 OA
ATOM      7  N   UNL     1       1.054   9.391  19.822  0.00  0.00    +0.000 N 
ATOM      8  H   UNL     1       0.895   9.453  18.821  0.00  0.00    +0.000 HD
BRANCH   7   9
ATOM      9  C   UNL     1       0.561  10.410  20.670  0.00  0.00    +0.000 A 
ATOM     10  C   UNL     1      -0.468  10.212  21.583  0.00  0.00    +0.000 A 
ATOM     11  N   UNL     1      -1.010  11.181  22.358  0.00  0.00    +0.000 NA
ATOM     12  C   UNL     1      -0.550  12.436  22.231  0.00  0.00    +0.000 A 
ATOM     13  C   UNL     1      -1.136  13.474  22.953  0.00  0.00    +0.000 A 
ATOM     14  F   UNL     1      -2.160  13.215  23.786  0.00  0.00    +0.000 F 
ATOM     15  C   UNL     1      -0.717  14.796  22.835  0.00  0.00    +0.000 A 
ATOM     16  C   UNL     1       0.336  15.105  21.983  0.00  0.00    +0.000 A 
ATOM     17  C   UNL     1       0.959  14.086  21.258  0.00  0.00    +0.000 A 
ATOM     18  C   UNL     1       0.519  12.748  21.362  0.00  0.00    +0.000 A 
ATOM     19  C   UNL     1       1.090  11.701  20.600  0.00  0.00    +0.000 A 
ENDBRANCH   7   9
ENDBRANCH   2   5
BRANCH   1  20
ATOM     20  C   UNL     1       2.495   4.756  18.847  0.00  0.00    +0.000 C 
BRANCH  20  21
ATOM     21  C   UNL     1       3.990   4.742  18.503  0.00  0.00    +0.000 A 
ATOM     22  C   UNL     1       4.927   5.248  19.424  0.00  0.00    +0.000 A 
ATOM     23  C   UNL     1       6.291   5.296  19.112  0.00  0.00    +0.000 A 
ATOM     24  C   UNL     1       6.733   4.825  17.881  0.00  0.00    +0.000 A 
ATOM     25  F   UNL     1       8.037   4.881  17.582  0.00  0.00    +0.000 F 
ATOM     26  C   UNL     1       5.840   4.302  16.960  0.00  0.00    +0.000 A 
ATOM     27  C   UNL     1       4.484   4.267  17.275  0.00  0.00    +0.000 A 
ATOM     28  F   UNL     1       3.638   3.762  16.364  0.00  0.00    +0.000 F 
ENDBRANCH  20  21
BRANCH  20  30
ATOM     29  C   UNL     1       0.977   2.693  18.565  0.00  0.00    +0.000 C 
ATOM     30  C   UNL     1       1.961   3.423  19.510  0.00  0.00    +0.000 C 
ATOM     31  C   UNL     1       1.210   3.688  20.830  0.00  0.00    +0.000 C 
ATOM     32  C   UNL     1       3.113   2.428  19.775  0.00  0.00    +0.000 C 
ENDBRANCH  20  30
ENDBRANCH   1  20
TORSDOF 5
ENDMDL
