MODEL 1
REMARK VINA RESULT:      -8.0      0.000      0.000
REMARK  Name = 
REMARK  2 active torsions:
REMARK  status: ('A' for Active; 'I' for Inactive)
REMARK    1  A    between atoms: N_15  and  C_16
REMARK    2  A    between atoms: C_16  and  C_17
REMARK                            x       y       z     vdW  Elec       q    Type
REMARK                         _______ _______ _______ _____ _____    ______ ____
ROOT
ATOM      1  O   UNL     1       4.327   7.567  17.406  0.00  0.00    +0.000 OA
ATOM      2  C   UNL     1       4.326   6.434  17.851  0.00  0.00    +0.000 C 
ATOM      3  N   UNL     1       3.205   5.825  18.364  0.00  0.00    +0.000 N 
ATOM      4  C   UNL     1       3.415   4.416  18.550  0.00  0.00    +0.000 C 
ATOM      5  C   UNL     1       2.841   3.573  17.381  0.00  0.00    +0.000 C 
ATOM      6  C   UNL     1       1.992   2.444  17.978  0.00  0.00    +0.000 C 
ATOM      7  C   UNL     1       1.925   2.779  19.430  0.00  0.00    +0.000 A 
ATOM      8  C   UNL     1       1.161   2.131  20.389  0.00  0.00    +0.000 A 
ATOM      9  C   UNL     1       1.185   2.612  21.697  0.00  0.00    +0.000 A 
ATOM     10  C   UNL     1       1.971   3.724  22.026  0.00  0.00    +0.000 A 
ATOM     11  C   UNL     1       2.754   4.357  21.063  0.00  0.00    +0.000 A 
ATOM     12  C   UNL     1       2.731   3.874  19.760  0.00  0.00    +0.000 A 
ATOM     13  C   UNL     1       4.943   4.360  18.455  0.00  0.00    +0.000 C 
ATOM     14  O   UNL     1       5.645   3.378  18.663  0.00  0.00    +0.000 OA
ATOM     15  N   UNL     1       5.359   5.546  17.902  0.00  0.00    +0.000 N 
ATOM     16  H   UNL     1       2.308   6.290  18.367  0.00  0.00    +0.000 HD
ENDROOT
BRANCH  15  17
ATOM     17  C   UNL     1       6.596   5.703  17.174  0.00  0.00    +0.000 C 
BRANCH  17  18
ATOM     18  C   UNL     1       6.519   5.217  15.773  0.00  0.00    +0.000 A 
ATOM     19  C   UNL     1       5.712   4.268  15.173  0.00  0.00    +0.000 A 
ATOM     20  N   UNL     1       6.166   4.164  13.878  0.00  0.00    +0.000 N 
ATOM     21  C   UNL     1       5.774   3.303  12.854  0.00  0.00    +0.000 A 
ATOM     22  C   UNL     1       6.457   3.314  11.693  0.00  0.00    +0.000 A 
ATOM     23  C   UNL     1       7.591   4.217  11.549  0.00  0.00    +0.000 A 
ATOM     24  C   UNL     1       7.926   5.085  12.521  0.00  0.00    +0.000 A 
ATOM     25  C   UNL     1       7.203   5.081  13.744  0.00  0.00    +0.000 A 
ATOM     26  N   UNL     1       7.379   5.769  14.846  0.00  0.00    +0.000 NA
ENDBRANCH  17  18
ENDBRANCH  15  17
TORSDOF 2
ENDMDL
MODEL 2
REMARK VINA RESULT:      -8.0      3.529      5.162
REMARK  Name = 
REMARK  2 active torsions:
REMARK  status: ('A' for Active; 'I' for Inactive)
REMARK    1  A    between atoms: N_15  and  C_16
REMARK    2  A    between atoms: C_16  and  C_17
REMARK                            x       y       z     vdW  Elec       q    Type
REMARK                         _______ _______ _______ _____ _____    ______ ____
ROOT
ATOM      1  O   UNL     1       5.274   7.133  15.732  0.00  0.00    +0.000 OA
ATOM      2  C   UNL     1       5.226   6.488  16.764  0.00  0.00    +0.000 C 
ATOM      3  N   UNL     1       4.128   5.752  17.144  0.00  0.00    +0.000 N 
ATOM      4  C   UNL     1       4.440   4.876  18.239  0.00  0.00    +0.000 C 
ATOM      5  C   UNL     1       4.741   3.428  17.770  0.00  0.00    +0.000 C 
ATOM      6  C   UNL     1       3.910   2.466  18.628  0.00  0.00    +0.000 C 
ATOM      7  C   UNL     1       3.015   3.368  19.408  0.00  0.00    +0.000 A 
ATOM      8  C   UNL     1       1.978   2.978  20.242  0.00  0.00    +0.000 A 
ATOM      9  C   UNL     1       1.210   3.964  20.858  0.00  0.00    +0.000 A 
ATOM     10  C   UNL     1       1.492   5.319  20.637  0.00  0.00    +0.000 A 
ATOM     11  C   UNL     1       2.549   5.705  19.817  0.00  0.00    +0.000 A 
ATOM     12  C   UNL     1       3.315   4.719  19.206  0.00  0.00    +0.000 A 
ATOM     13  C   UNL     1       5.761   5.495  18.707  0.00  0.00    +0.000 C 
ATOM     14  O   UNL     1       6.395   5.178  19.706  0.00  0.00    +0.000 OA
ATOM     15  N   UNL     1       6.201   6.321  17.701  0.00  0.00    +0.000 N 
ATOM     16  H   UNL     1       3.308   5.690  16.557  0.00  0.00    +0.000 HD
ENDROOT
BRANCH  15  17
ATOM     17  C   UNL     1       7.587   6.669  17.497  0.00  0.00    +0.000 C 
BRANCH  17  18
ATOM     18  C   UNL     1       7.898   8.078  17.848  0.00  0.00    +0.000 A 
ATOM     19  C   UNL     1       7.520   9.274  17.266  0.00  0.00    +0.000 A 
ATOM     20  N   UNL     1       8.200  10.251  17.957  0.00  0.00    +0.000 N 
ATOM     21  C   UNL     1       8.258  11.628  17.744  0.00  0.00    +0.000 A 
ATOM     22  C   UNL     1       9.097  12.369  18.494  0.00  0.00    +0.000 A 
ATOM     23  C   UNL     1       9.923  11.708  19.495  0.00  0.00    +0.000 A 
ATOM     24  C   UNL     1       9.817  10.388  19.734  0.00  0.00    +0.000 A 
ATOM     25  C   UNL     1       8.928   9.604  18.949  0.00  0.00    +0.000 A 
ATOM     26  N   UNL     1       8.703   8.312  18.943  0.00  0.00    +0.000 NA
ENDBRANCH  17  18
ENDBRANCH  15  17
TORSDOF 2
ENDMDL
MODEL 3
REMARK VINA RESULT:      -8.0      1.584      7.223
REMARK  Name = 
REMARK  2 active torsions:
REMARK  status: ('A' for Active; 'I' for Inactive)
REMARK    1  A    between atoms: N_15  and  C_16
REMARK    2  A    between atoms: C_16  and  C_17
REMARK                            x       y       z     vdW  Elec       q    Type
REMARK                         _______ _______ _______ _____ _____    ______ ____
ROOT
ATOM      1  O   UNL     1       8.244   4.656  18.701  0.00  0.00    +0.000 OA
ATOM      2  C   UNL     1       7.552   4.916  17.734  0.00  0.00    +0.000 C 
ATOM      3  N   UNL     1       7.758   4.369  16.489  0.00  0.00    +0.000 N 
ATOM      4  C   UNL     1       6.645   4.620  15.617  0.00  0.00    +0.000 C 
ATOM      5  C   UNL     1       5.672   3.414  15.538  0.00  0.00    +0.000 C 
ATOM      6  C   UNL     1       5.397   3.118  14.058  0.00  0.00    +0.000 C 
ATOM      7  C   UNL     1       6.357   4.002  13.334  0.00  0.00    +0.000 A 
ATOM      8  C   UNL     1       6.593   4.015  11.968  0.00  0.00    +0.000 A 
ATOM      9  C   UNL     1       7.565   4.879  11.468  0.00  0.00    +0.000 A 
ATOM     10  C   UNL     1       8.278   5.718  12.335  0.00  0.00    +0.000 A 
ATOM     11  C   UNL     1       8.020   5.717  13.704  0.00  0.00    +0.000 A 
ATOM     12  C   UNL     1       7.049   4.856  14.200  0.00  0.00    +0.000 A 
ATOM     13  C   UNL     1       5.940   5.732  16.399  0.00  0.00    +0.000 C 
ATOM     14  O   UNL     1       4.974   6.384  16.019  0.00  0.00    +0.000 OA
ATOM     15  N   UNL     1       6.456   5.723  17.672  0.00  0.00    +0.000 N 
ATOM     16  H   UNL     1       8.490   3.691  16.327  0.00  0.00    +0.000 HD
ENDROOT
BRANCH  15  17
ATOM     17  C   UNL     1       5.746   6.212  18.830  0.00  0.00    +0.000 C 
BRANCH  17  18
ATOM     18  C   UNL     1       4.683   5.287  19.302  0.00  0.00    +0.000 A 
ATOM     19  C   UNL     1       4.621   3.907  19.348  0.00  0.00    +0.000 A 
ATOM     20  N   UNL     1       3.349   3.610  19.780  0.00  0.00    +0.000 N 
ATOM     21  C   UNL     1       2.715   2.377  19.931  0.00  0.00    +0.000 A 
ATOM     22  C   UNL     1       1.410   2.350  20.262  0.00  0.00    +0.000 A 
ATOM     23  C   UNL     1       0.700   3.608  20.443  0.00  0.00    +0.000 A 
ATOM     24  C   UNL     1       1.333   4.792  20.354  0.00  0.00    +0.000 A 
ATOM     25  C   UNL     1       2.712   4.824  20.010  0.00  0.00    +0.000 A 
ATOM     26  N   UNL     1       3.519   5.836  19.798  0.00  0.00    +0.000 NA
ENDBRANCH  17  18
ENDBRANCH  15  17
TORSDOF 2
ENDMDL
MODEL 4
REMARK VINA RESULT:      -7.9      0.648      1.217
REMARK  Name = 
REMARK  2 active torsions:
REMARK  status: ('A' for Active; 'I' for Inactive)
REMARK    1  A    between atoms: N_15  and  C_16
REMARK    2  A    between atoms: C_16  and  C_17
REMARK                            x       y       z     vdW  Elec       q    Type
REMARK                         _______ _______ _______ _____ _____    ______ ____
ROOT
ATOM      1  O   UNL     1       4.085   7.644  17.046  0.00  0.00    +0.000 OA
ATOM      2  C   UNL     1       4.197   6.556  17.581  0.00  0.00    +0.000 C 
ATOM      3  N   UNL     1       3.125   5.830  18.046  0.00  0.00    +0.000 N 
ATOM      4  C   UNL     1       3.506   4.482  18.365  0.00  0.00    +0.000 C 
ATOM      5  C   UNL     1       3.166   3.487  17.225  0.00  0.00    +0.000 C 
ATOM      6  C   UNL     1       2.425   2.293  17.839  0.00  0.00    +0.000 C 
ATOM      7  C   UNL     1       2.176   2.715  19.249  0.00  0.00    +0.000 A 
ATOM      8  C   UNL     1       1.421   2.033  20.190  0.00  0.00    +0.000 A 
ATOM      9  C   UNL     1       1.255   2.602  21.452  0.00  0.00    +0.000 A 
ATOM     10  C   UNL     1       1.848   3.836  21.753  0.00  0.00    +0.000 A 
ATOM     11  C   UNL     1       2.625   4.506  20.810  0.00  0.00    +0.000 A 
ATOM     12  C   UNL     1       2.791   3.934  19.554  0.00  0.00    +0.000 A 
ATOM     13  C   UNL     1       5.030   4.639  18.403  0.00  0.00    +0.000 C 
ATOM     14  O   UNL     1       5.836   3.784  18.749  0.00  0.00    +0.000 OA
ATOM     15  N   UNL     1       5.331   5.831  17.791  0.00  0.00    +0.000 N 
ATOM     16  H   UNL     1       2.177   6.162  17.936  0.00  0.00    +0.000 HD
ENDROOT
BRANCH  15  17
ATOM     17  C   UNL     1       6.598   6.111  17.159  0.00  0.00    +0.000 C 
BRANCH  17  18
ATOM     18  C   UNL     1       6.742   5.478  15.823  0.00  0.00    +0.000 A 
ATOM     19  C   UNL     1       7.635   5.703  14.791  0.00  0.00    +0.000 A 
ATOM     20  N   UNL     1       7.217   4.893  13.760  0.00  0.00    +0.000 N 
ATOM     21  C   UNL     1       7.699   4.777  12.457  0.00  0.00    +0.000 A 
ATOM     22  C   UNL     1       7.041   3.989  11.585  0.00  0.00    +0.000 A 
ATOM     23  C   UNL     1       5.841   3.292  12.028  0.00  0.00    +0.000 A 
ATOM     24  C   UNL     1       5.417   3.363  13.304  0.00  0.00    +0.000 A 
ATOM     25  C   UNL     1       6.114   4.189  14.227  0.00  0.00    +0.000 A 
ATOM     26  N   UNL     1       5.861   4.473  15.482  0.00  0.00    +0.000 NA
ENDBRANCH  17  18
ENDBRANCH  15  17
TORSDOF 2
ENDMDL
MODEL 5
REMARK VINA RESULT:      -7.8      1.635      7.223
REMARK  Name = 
REMARK  2 active torsions:
REMARK  status: ('A' for Active; 'I' for Inactive)
REMARK    1  A    between atoms: N_15  and  C_16
REMARK    2  A    between atoms: C_16  and  C_17
REMARK                            x       y       z     vdW  Elec       q    Type
REMARK                         _______ _______ _______ _____ _____    ______ ____
ROOT
ATOM      1  O   UNL     1       8.216   4.691  18.721  0.00  0.00    +0.000 OA
ATOM      2  C   UNL     1       7.524   4.950  17.753  0.00  0.00    +0.000 C 
ATOM      3  N   UNL     1       7.704   4.370  16.520  0.00  0.00    +0.000 N 
ATOM      4  C   UNL     1       6.591   4.634  15.650  0.00  0.00    +0.000 C 
ATOM      5  C   UNL     1       5.584   3.455  15.605  0.00  0.00    +0.000 C 
ATOM      6  C   UNL     1       5.288   3.135  14.135  0.00  0.00    +0.000 C 
ATOM      7  C   UNL     1       6.266   3.975  13.385  0.00  0.00    +0.000 A 
ATOM      8  C   UNL     1       6.492   3.951  12.017  0.00  0.00    +0.000 A 
ATOM      9  C   UNL     1       7.484   4.776  11.490  0.00  0.00    +0.000 A 
ATOM     10  C   UNL     1       8.228   5.612  12.333  0.00  0.00    +0.000 A 
ATOM     11  C   UNL     1       7.982   5.649  13.704  0.00  0.00    +0.000 A 
ATOM     12  C   UNL     1       6.990   4.827  14.226  0.00  0.00    +0.000 A 
ATOM     13  C   UNL     1       5.925   5.783  16.413  0.00  0.00    +0.000 C 
ATOM     14  O   UNL     1       4.976   6.454  16.026  0.00  0.00    +0.000 OA
ATOM     15  N   UNL     1       6.451   5.787  17.682  0.00  0.00    +0.000 N 
ATOM     16  H   UNL     1       8.415   3.668  16.367  0.00  0.00    +0.000 HD
ENDROOT
BRANCH  15  17
ATOM     17  C   UNL     1       5.765   6.321  18.834  0.00  0.00    +0.000 C 
BRANCH  17  18
ATOM     18  C   UNL     1       4.557   5.544  19.212  0.00  0.00    +0.000 A 
ATOM     19  C   UNL     1       3.244   5.927  19.415  0.00  0.00    +0.000 A 
ATOM     20  N   UNL     1       2.594   4.797  19.854  0.00  0.00    +0.000 N 
ATOM     21  C   UNL     1       1.279   4.627  20.284  0.00  0.00    +0.000 A 
ATOM     22  C   UNL     1       0.904   3.433  20.783  0.00  0.00    +0.000 A 
ATOM     23  C   UNL     1       1.887   2.362  20.866  0.00  0.00    +0.000 A 
ATOM     24  C   UNL     1       3.138   2.517  20.394  0.00  0.00    +0.000 A 
ATOM     25  C   UNL     1       3.534   3.773  19.862  0.00  0.00    +0.000 A 
ATOM     26  N   UNL     1       4.695   4.186  19.412  0.00  0.00    +0.000 NA
ENDBRANCH  17  18
ENDBRANCH  15  17
TORSDOF 2
ENDMDL
MODEL 6
REMARK VINA RESULT:      -7.5      2.429      3.822
REMARK  Name = 
REMARK  2 active torsions:
REMARK  status: ('A' for Active; 'I' for Inactive)
REMARK    1  A    between atoms: N_15  and  C_16
REMARK    2  A    between atoms: C_16  and  C_17
REMARK                            x       y       z     vdW  Elec       q    Type
REMARK                         _______ _______ _______ _____ _____    ______ ____
ROOT
ATOM      1  O   UNL     1       2.344   3.311  16.703  0.00  0.00    +0.000 OA
ATOM      2  C   UNL     1       2.720   4.282  17.333  0.00  0.00    +0.000 C 
ATOM      3  N   UNL     1       1.861   5.179  17.922  0.00  0.00    +0.000 N 
ATOM      4  C   UNL     1       2.556   6.052  18.828  0.00  0.00    +0.000 C 
ATOM      5  C   UNL     1       2.437   5.589  20.303  0.00  0.00    +0.000 C 
ATOM      6  C   UNL     1       2.012   6.796  21.149  0.00  0.00    +0.000 C 
ATOM      7  C   UNL     1       1.699   7.847  20.138  0.00  0.00    +0.000 A 
ATOM      8  C   UNL     1       1.145   9.093  20.391  0.00  0.00    +0.000 A 
ATOM      9  C   UNL     1       0.875   9.934  19.313  0.00  0.00    +0.000 A 
ATOM     10  C   UNL     1       1.166   9.522  18.006  0.00  0.00    +0.000 A 
ATOM     11  C   UNL     1       1.744   8.278  17.759  0.00  0.00    +0.000 A 
ATOM     12  C   UNL     1       2.014   7.442  18.836  0.00  0.00    +0.000 A 
ATOM     13  C   UNL     1       3.999   5.804  18.379  0.00  0.00    +0.000 C 
ATOM     14  O   UNL     1       4.992   6.406  18.771  0.00  0.00    +0.000 OA
ATOM     15  N   UNL     1       3.998   4.660  17.619  0.00  0.00    +0.000 N 
ATOM     16  H   UNL     1       0.859   5.052  17.882  0.00  0.00    +0.000 HD
ENDROOT
BRANCH  15  17
ATOM     17  C   UNL     1       5.150   3.806  17.451  0.00  0.00    +0.000 C 
BRANCH  17  18
ATOM     18  C   UNL     1       5.889   4.058  16.187  0.00  0.00    +0.000 A 
ATOM     19  C   UNL     1       6.879   4.969  15.868  0.00  0.00    +0.000 A 
ATOM     20  N   UNL     1       7.104   4.811  14.520  0.00  0.00    +0.000 N 
ATOM     21  C   UNL     1       7.937   5.524  13.658  0.00  0.00    +0.000 A 
ATOM     22  C   UNL     1       7.897   5.253  12.339  0.00  0.00    +0.000 A 
ATOM     23  C   UNL     1       6.978   4.232  11.854  0.00  0.00    +0.000 A 
ATOM     24  C   UNL     1       6.222   3.508  12.700  0.00  0.00    +0.000 A 
ATOM     25  C   UNL     1       6.267   3.787  14.093  0.00  0.00    +0.000 A 
ATOM     26  N   UNL     1       5.586   3.278  15.091  0.00  0.00    +0.000 NA
ENDBRANCH  17  18
ENDBRANCH  15  17
TORSDOF 2
ENDMDL
MODEL 7
REMARK VINA RESULT:      -7.4      3.176      4.871
REMARK  Name = 
REMARK  2 active torsions:
REMARK  status: ('A' for Active; 'I' for Inactive)
REMARK    1  A    between atoms: N_15  and  C_16
REMARK    2  A    between atoms: C_16  and  C_17
REMARK                            x       y       z     vdW  Elec       q    Type
REMARK                         _______ _______ _______ _____ _____    ______ ____
ROOT
ATOM      1  O   UNL     1       5.091   7.254  15.871  0.00  0.00    +0.000 OA
ATOM      2  C   UNL     1       5.037   6.446  16.781  0.00  0.00    +0.000 C 
ATOM      3  N   UNL     1       3.882   5.798  17.147  0.00  0.00    +0.000 N 
ATOM      4  C   UNL     1       4.155   4.708  18.042  0.00  0.00    +0.000 C 
ATOM      5  C   UNL     1       4.207   3.341  17.311  0.00  0.00    +0.000 C 
ATOM      6  C   UNL     1       3.321   2.354  18.080  0.00  0.00    +0.000 C 
ATOM      7  C   UNL     1       2.631   3.207  19.090  0.00  0.00    +0.000 A 
ATOM      8  C   UNL     1       1.622   2.808  19.953  0.00  0.00    +0.000 A 
ATOM      9  C   UNL     1       1.056   3.757  20.802  0.00  0.00    +0.000 A 
ATOM     10  C   UNL     1       1.508   5.083  20.781  0.00  0.00    +0.000 A 
ATOM     11  C   UNL     1       2.539   5.473  19.928  0.00  0.00    +0.000 A 
ATOM     12  C   UNL     1       3.103   4.524  19.084  0.00  0.00    +0.000 A 
ATOM     13  C   UNL     1       5.584   5.062  18.463  0.00  0.00    +0.000 C 
ATOM     14  O   UNL     1       6.248   4.494  19.323  0.00  0.00    +0.000 OA
ATOM     15  N   UNL     1       6.053   5.993  17.568  0.00  0.00    +0.000 N 
ATOM     16  H   UNL     1       3.015   5.946  16.649  0.00  0.00    +0.000 HD
ENDROOT
BRANCH  15  17
ATOM     17  C   UNL     1       7.453   6.194  17.278  0.00  0.00    +0.000 C 
BRANCH  17  18
ATOM     18  C   UNL     1       7.983   7.479  17.801  0.00  0.00    +0.000 A 
ATOM     19  C   UNL     1       8.583   7.803  19.004  0.00  0.00    +0.000 A 
ATOM     20  N   UNL     1       8.765   9.166  18.969  0.00  0.00    +0.000 N 
ATOM     21  C   UNL     1       9.251  10.034  19.947  0.00  0.00    +0.000 A 
ATOM     22  C   UNL     1       9.224  11.360  19.715  0.00  0.00    +0.000 A 
ATOM     23  C   UNL     1       8.680  11.847  18.455  0.00  0.00    +0.000 A 
ATOM     24  C   UNL     1       8.268  11.000  17.493  0.00  0.00    +0.000 A 
ATOM     25  C   UNL     1       8.300   9.600  17.733  0.00  0.00    +0.000 A 
ATOM     26  N   UNL     1       7.896   8.594  16.995  0.00  0.00    +0.000 NA
ENDBRANCH  17  18
ENDBRANCH  15  17
TORSDOF 2
ENDMDL
MODEL 8
REMARK VINA RESULT:      -7.2      7.959     11.534
REMARK  Name = 
REMARK  2 active torsions:
REMARK  status: ('A' for Active; 'I' for Inactive)
REMARK    1  A    between atoms: N_15  and  C_16
REMARK    2  A    between atoms: C_16  and  C_17
REMARK                            x       y       z     vdW  Elec       q    Type
REMARK                         _______ _______ _______ _____ _____    ______ ____
ROOT
ATOM      1  O   UNL     1       0.352  13.685  19.152  0.00  0.00    +0.000 OA
ATOM      2  C   UNL     1       0.141  12.487  19.129  0.00  0.00    +0.000 C 
ATOM      3  N   UNL     1       1.109  11.545  19.388  0.00  0.00    +0.000 N 
ATOM      4  C   UNL     1       0.533  10.241  19.574  0.00  0.00    +0.000 C 
ATOM      5  C   UNL     1       0.356   9.881  21.072  0.00  0.00    +0.000 C 
ATOM      6  C   UNL     1       0.946   8.484  21.300  0.00  0.00    +0.000 C 
ATOM      7  C   UNL     1       1.621   8.167  20.007  0.00  0.00    +0.000 A 
ATOM      8  C   UNL     1       2.417   7.063  19.744  0.00  0.00    +0.000 A 
ATOM      9  C   UNL     1       3.009   6.952  18.487  0.00  0.00    +0.000 A 
ATOM     10  C   UNL     1       2.793   7.939  17.515  0.00  0.00    +0.000 A 
ATOM     11  C   UNL     1       1.973   9.034  17.778  0.00  0.00    +0.000 A 
ATOM     12  C   UNL     1       1.382   9.141  19.031  0.00  0.00    +0.000 A 
ATOM     13  C   UNL     1      -0.862  10.481  18.987  0.00  0.00    +0.000 C 
ATOM     14  O   UNL     1      -1.725   9.631  18.803  0.00  0.00    +0.000 OA
ATOM     15  N   UNL     1      -1.037  11.841  18.899  0.00  0.00    +0.000 N 
ATOM     16  H   UNL     1       2.049  11.813  19.642  0.00  0.00    +0.000 HD
ENDROOT
BRANCH  15  17
ATOM     17  C   UNL     1      -2.328  12.486  18.908  0.00  0.00    +0.000 C 
BRANCH  17  18
ATOM     18  C   UNL     1      -2.901  12.637  20.270  0.00  0.00    +0.000 A 
ATOM     19  C   UNL     1      -2.343  12.470  21.525  0.00  0.00    +0.000 A 
ATOM     20  N   UNL     1      -3.379  12.639  22.414  0.00  0.00    +0.000 N 
ATOM     21  C   UNL     1      -3.405  12.501  23.801  0.00  0.00    +0.000 A 
ATOM     22  C   UNL     1      -4.582  12.606  24.446  0.00  0.00    +0.000 A 
ATOM     23  C   UNL     1      -5.793  12.849  23.673  0.00  0.00    +0.000 A 
ATOM     24  C   UNL     1      -5.750  13.039  22.342  0.00  0.00    +0.000 A 
ATOM     25  C   UNL     1      -4.508  12.936  21.659  0.00  0.00    +0.000 A 
ATOM     26  N   UNL     1      -4.224  13.009  20.381  0.00  0.00    +0.000 NA
ENDBRANCH  17  18
ENDBRANCH  15  17
TORSDOF 2
ENDMDL
MODEL 9
REMARK VINA RESULT:      -7.1      7.730     11.225
REMARK  Name = 
REMARK  2 active torsions:
REMARK  status: ('A' for Active; 'I' for Inactive)
REMARK    1  A    between atoms: N_15  and  C_16
REMARK    2  A    between atoms: C_16  and  C_17
REMARK                            x       y       z     vdW  Elec       q    Type
REMARK                         _______ _______ _______ _____ _____    ______ ____
ROOT
ATOM      1  O   UNL     1       0.938  13.647  19.222  0.00  0.00    +0.000 OA
ATOM      2  C   UNL     1       0.615  12.475  19.161  0.00  0.00    +0.000 C 
ATOM      3  N   UNL     1       1.464  11.441  19.478  0.00  0.00    +0.000 N 
ATOM      4  C   UNL     1       0.753  10.197  19.594  0.00  0.00    +0.000 C 
ATOM      5  C   UNL     1       0.424   9.840  21.066  0.00  0.00    +0.000 C 
ATOM      6  C   UNL     1       0.857   8.390  21.314  0.00  0.00    +0.000 C 
ATOM      7  C   UNL     1       1.599   8.023  20.073  0.00  0.00    +0.000 A 
ATOM      8  C   UNL     1       2.304   6.850  19.852  0.00  0.00    +0.000 A 
ATOM      9  C   UNL     1       2.980   6.695  18.643  0.00  0.00    +0.000 A 
ATOM     10  C   UNL     1       2.938   7.709  17.676  0.00  0.00    +0.000 A 
ATOM     11  C   UNL     1       2.209   8.876  17.894  0.00  0.00    +0.000 A 
ATOM     12  C   UNL     1       1.533   9.026  19.099  0.00  0.00    +0.000 A 
ATOM     13  C   UNL     1      -0.561  10.578  18.905  0.00  0.00    +0.000 C 
ATOM     14  O   UNL     1      -1.484   9.818  18.638  0.00  0.00    +0.000 OA
ATOM     15  N   UNL     1      -0.597  11.949  18.828  0.00  0.00    +0.000 N 
ATOM     16  H   UNL     1       2.403  11.613  19.809  0.00  0.00    +0.000 HD
ENDROOT
BRANCH  15  17
ATOM     17  C   UNL     1      -1.817  12.717  18.748  0.00  0.00    +0.000 C 
BRANCH  17  18
ATOM     18  C   UNL     1      -2.639  12.645  19.983  0.00  0.00    +0.000 A 
ATOM     19  C   UNL     1      -4.005  12.724  20.184  0.00  0.00    +0.000 A 
ATOM     20  N   UNL     1      -4.178  12.703  21.548  0.00  0.00    +0.000 N 
ATOM     21  C   UNL     1      -5.339  12.837  22.309  0.00  0.00    +0.000 A 
ATOM     22  C   UNL     1      -5.237  12.901  23.650  0.00  0.00    +0.000 A 
ATOM     23  C   UNL     1      -3.918  12.838  24.263  0.00  0.00    +0.000 A 
ATOM     24  C   UNL     1      -2.808  12.649  23.525  0.00  0.00    +0.000 A 
ATOM     25  C   UNL     1      -2.913  12.575  22.110  0.00  0.00    +0.000 A 
ATOM     26  N   UNL     1      -1.989  12.467  21.187  0.00  0.00    +0.000 NA
ENDBRANCH  17  18
ENDBRANCH  15  17
TORSDOF 2
ENDMDL
