MODEL 1
REMARK VINA RESULT:      -8.2      0.000      0.000
REMARK  Name = 
REMARK  2 active torsions:
REMARK  status: ('A' for Active; 'I' for Inactive)
REMARK    1  A    between atoms: C_2  and  C_4
REMARK    2  A    between atoms: C_9  and  C_10
REMARK                            x       y       z     vdW  Elec       q    Type
REMARK                         _______ _______ _______ _____ _____    ______ ____
ROOT
ATOM      1  C   UNL     1       0.999   9.392  21.416  0.00  0.00    +0.000 C 
ATOM      2  O   UNL     1       1.421   9.291  22.566  0.00  0.00    +0.000 OA
ATOM      3  N   UNL     1       0.113  10.395  21.005  0.00  0.00    +0.000 N 
ATOM      4  C   UNL     1      -0.332  11.331  22.025  0.00  0.00    +0.000 C 
ATOM      5  C   UNL     1      -1.617  12.043  21.659  0.00  0.00    +0.000 A 
ATOM      6  C   UNL     1      -2.258  12.775  22.676  0.00  0.00    +0.000 A 
ATOM      7  C   UNL     1      -3.470  13.419  22.446  0.00  0.00    +0.000 A 
ATOM      8  C   UNL     1      -4.074  13.310  21.205  0.00  0.00    +0.000 A 
ATOM      9  C   UNL     1      -3.421  12.624  20.164  0.00  0.00    +0.000 A 
ATOM     10  C   UNL     1      -2.168  12.004  20.363  0.00  0.00    +0.000 A 
ATOM     11  C   UNL     1      -1.458  11.241  19.233  0.00  0.00    +0.000 C 
ATOM     12  C   UNL     1      -1.430  12.007  17.873  0.00  0.00    +0.000 C 
ATOM     13  C   UNL     1      -2.009  11.050  16.828  0.00  0.00    +0.000 C 
ATOM     14  C   UNL     1      -2.987  10.194  17.607  0.00  0.00    +0.000 C 
ATOM     15  C   UNL     1      -2.227   9.938  18.897  0.00  0.00    +0.000 C 
ATOM     16  C   UNL     1       0.011  10.930  19.644  0.00  0.00    +0.000 C 
ATOM     17  O   UNL     1      -5.301  13.821  20.913  0.00  0.00    +0.000 OA
ATOM     18  C   UNL     1      -5.883  14.631  21.928  0.00  0.00    +0.000 C 
ATOM     19  C   UNL     1      -5.327  14.515  23.344  0.00  0.00    +0.000 C 
ATOM     20  O   UNL     1      -3.961  14.154  23.478  0.00  0.00    +0.000 OA
ENDROOT
BRANCH   1  26
ATOM     21  C   UNL     1       1.988   6.080  19.884  0.00  0.00    +0.000 A 
ATOM     22  C   UNL     1       2.497   6.489  18.647  0.00  0.00    +0.000 A 
ATOM     23  C   UNL     1       2.378   7.819  18.282  0.00  0.00    +0.000 A 
ATOM     24  F   UNL     1       2.826   8.226  17.088  0.00  0.00    +0.000 F 
ATOM     25  C   UNL     1       1.790   8.738  19.138  0.00  0.00    +0.000 A 
ATOM     26  C   UNL     1       1.458   8.373  20.439  0.00  0.00    +0.000 A 
ATOM     27  C   UNL     1       1.501   7.024  20.799  0.00  0.00    +0.000 A 
BRANCH  21  29
ATOM     28  N   UNL     1       0.739   4.072  20.407  0.00  0.00    +0.000 N 
ATOM     29  C   UNL     1       1.964   4.630  20.177  0.00  0.00    +0.000 C 
ATOM     30  O   UNL     1       2.983   3.954  20.150  0.00  0.00    +0.000 OA
ATOM     31  H   UNL     1       0.708   3.062  20.468  0.00  0.00    +0.000 HD
ATOM     32  H   UNL     1      -0.126   4.550  20.189  0.00  0.00    +0.000 HD
ENDBRANCH  21  29
ENDBRANCH   1  26
TORSDOF 2
ENDMDL
MODEL 2
REMARK VINA RESULT:      -8.1      3.801      4.945
REMARK  Name = 
REMARK  2 active torsions:
REMARK  status: ('A' for Active; 'I' for Inactive)
REMARK    1  A    between atoms: C_2  and  C_4
REMARK    2  A    between atoms: C_9  and  C_10
REMARK                            x       y       z     vdW  Elec       q    Type
REMARK                         _______ _______ _______ _____ _____    ______ ____
ROOT
ATOM      1  C   UNL     1       2.566   7.847  18.011  0.00  0.00    +0.000 C 
ATOM      2  O   UNL     1       3.257   7.952  16.999  0.00  0.00    +0.000 OA
ATOM      3  N   UNL     1       1.879   8.921  18.590  0.00  0.00    +0.000 N 
ATOM      4  C   UNL     1       2.037  10.217  17.952  0.00  0.00    +0.000 C 
ATOM      5  C   UNL     1       1.704  11.375  18.868  0.00  0.00    +0.000 A 
ATOM      6  C   UNL     1       2.061  12.664  18.430  0.00  0.00    +0.000 A 
ATOM      7  C   UNL     1       1.841  13.783  19.227  0.00  0.00    +0.000 A 
ATOM      8  C   UNL     1       1.293  13.624  20.489  0.00  0.00    +0.000 A 
ATOM      9  C   UNL     1       0.885  12.348  20.920  0.00  0.00    +0.000 A 
ATOM     10  C   UNL     1       1.055  11.205  20.107  0.00  0.00    +0.000 A 
ATOM     11  C   UNL     1       0.623   9.808  20.580  0.00  0.00    +0.000 C 
ATOM     12  C   UNL     1      -0.803   9.767  21.214  0.00  0.00    +0.000 C 
ATOM     13  C   UNL     1      -0.645   9.110  22.586  0.00  0.00    +0.000 C 
ATOM     14  C   UNL     1       0.758   9.483  23.020  0.00  0.00    +0.000 C 
ATOM     15  C   UNL     1       1.543   9.321  21.730  0.00  0.00    +0.000 C 
ATOM     16  C   UNL     1       0.652   8.811  19.385  0.00  0.00    +0.000 C 
ATOM     17  O   UNL     1       1.130  14.641  21.378  0.00  0.00    +0.000 OA
ATOM     18  C   UNL     1       1.414  15.942  20.876  0.00  0.00    +0.000 C 
ATOM     19  C   UNL     1       2.247  16.053  19.602  0.00  0.00    +0.000 C 
ATOM     20  O   UNL     1       2.161  14.983  18.674  0.00  0.00    +0.000 OA
ENDROOT
BRANCH   1  26
ATOM     21  C   UNL     1       2.252   4.104  18.445  0.00  0.00    +0.000 A 
ATOM     22  C   UNL     1       2.165   3.994  19.837  0.00  0.00    +0.000 A 
ATOM     23  C   UNL     1       2.352   5.127  20.609  0.00  0.00    +0.000 A 
ATOM     24  F   UNL     1       2.309   5.038  21.945  0.00  0.00    +0.000 F 
ATOM     25  C   UNL     1       2.593   6.357  20.017  0.00  0.00    +0.000 A 
ATOM     26  C   UNL     1       2.489   6.503  18.636  0.00  0.00    +0.000 A 
ATOM     27  C   UNL     1       2.376   5.363  17.838  0.00  0.00    +0.000 A 
BRANCH  21  29
ATOM     28  N   UNL     1       1.918   1.708  18.320  0.00  0.00    +0.000 N 
ATOM     29  C   UNL     1       2.227   2.857  17.649  0.00  0.00    +0.000 C 
ATOM     30  O   UNL     1       2.408   2.865  16.440  0.00  0.00    +0.000 OA
ATOM     31  H   UNL     1       1.764   0.884  17.754  0.00  0.00    +0.000 HD
ATOM     32  H   UNL     1       1.524   1.712  19.252  0.00  0.00    +0.000 HD
ENDBRANCH  21  29
ENDBRANCH   1  26
TORSDOF 2
ENDMDL
MODEL 3
REMARK VINA RESULT:      -8.0      1.870      2.228
REMARK  Name = 
REMARK  2 active torsions:
REMARK  status: ('A' for Active; 'I' for Inactive)
REMARK    1  A    between atoms: C_2  and  C_4
REMARK    2  A    between atoms: C_9  and  C_10
REMARK                            x       y       z     vdW  Elec       q    Type
REMARK                         _______ _______ _______ _____ _____    ______ ____
ROOT
ATOM      1  C   UNL     1      -0.093   9.201  21.680  0.00  0.00    +0.000 C 
ATOM      2  O   UNL     1      -0.594   8.373  22.440  0.00  0.00    +0.000 OA
ATOM      3  N   UNL     1      -0.298  10.580  21.802  0.00  0.00    +0.000 N 
ATOM      4  C   UNL     1      -1.175  11.018  22.875  0.00  0.00    +0.000 C 
ATOM      5  C   UNL     1      -1.738  12.406  22.654  0.00  0.00    +0.000 A 
ATOM      6  C   UNL     1      -2.784  12.818  23.502  0.00  0.00    +0.000 A 
ATOM      7  C   UNL     1      -3.397  14.057  23.340  0.00  0.00    +0.000 A 
ATOM      8  C   UNL     1      -2.996  14.886  22.305  0.00  0.00    +0.000 A 
ATOM      9  C   UNL     1      -1.919  14.509  21.482  0.00  0.00    +0.000 A 
ATOM     10  C   UNL     1      -1.251  13.277  21.659  0.00  0.00    +0.000 A 
ATOM     11  C   UNL     1      -0.083  12.856  20.753  0.00  0.00    +0.000 C 
ATOM     12  C   UNL     1       0.980  13.977  20.528  0.00  0.00    +0.000 C 
ATOM     13  C   UNL     1       1.140  14.120  19.013  0.00  0.00    +0.000 C 
ATOM     14  C   UNL     1      -0.218  13.742  18.457  0.00  0.00    +0.000 C 
ATOM     15  C   UNL     1      -0.595  12.552  19.321  0.00  0.00    +0.000 C 
ATOM     16  C   UNL     1       0.639  11.617  21.359  0.00  0.00    +0.000 C 
ATOM     17  O   UNL     1      -3.598  16.069  22.007  0.00  0.00    +0.000 OA
ATOM     18  C   UNL     1      -4.588  16.501  22.932  0.00  0.00    +0.000 C 
ATOM     19  C   UNL     1      -5.176  15.467  23.888  0.00  0.00    +0.000 C 
ATOM     20  O   UNL     1      -4.346  14.378  24.258  0.00  0.00    +0.000 OA
ENDROOT
BRANCH   1  26
ATOM     21  C   UNL     1       2.287   7.024  19.708  0.00  0.00    +0.000 A 
ATOM     22  C   UNL     1       2.483   7.800  18.561  0.00  0.00    +0.000 A 
ATOM     23  C   UNL     1       1.728   8.947  18.392  0.00  0.00    +0.000 A 
ATOM     24  F   UNL     1       1.874   9.685  17.285  0.00  0.00    +0.000 F 
ATOM     25  C   UNL     1       0.812   9.340  19.356  0.00  0.00    +0.000 A 
ATOM     26  C   UNL     1       0.753   8.678  20.579  0.00  0.00    +0.000 A 
ATOM     27  C   UNL     1       1.450   7.478  20.738  0.00  0.00    +0.000 A 
BRANCH  21  29
ATOM     28  N   UNL     1       2.719   4.956  20.892  0.00  0.00    +0.000 N 
ATOM     29  C   UNL     1       2.971   5.714  19.784  0.00  0.00    +0.000 C 
ATOM     30  O   UNL     1       3.673   5.303  18.871  0.00  0.00    +0.000 OA
ATOM     31  H   UNL     1       3.072   4.008  20.878  0.00  0.00    +0.000 HD
ATOM     32  H   UNL     1       1.959   5.159  21.529  0.00  0.00    +0.000 HD
ENDBRANCH  21  29
ENDBRANCH   1  26
TORSDOF 2
ENDMDL
MODEL 4
REMARK VINA RESULT:      -8.0      1.056      1.134
REMARK  Name = 
REMARK  2 active torsions:
REMARK  status: ('A' for Active; 'I' for Inactive)
REMARK    1  A    between atoms: C_2  and  C_4
REMARK    2  A    between atoms: C_9  and  C_10
REMARK                            x       y       z     vdW  Elec       q    Type
REMARK                         _______ _______ _______ _____ _____    ______ ____
ROOT
ATOM      1  C   UNL     1       0.698   9.999  20.988  0.00  0.00    +0.000 C 
ATOM      2  O   UNL     1       1.107  10.095  22.144  0.00  0.00    +0.000 OA
ATOM      3  N   UNL     1      -0.319  10.804  20.461  0.00  0.00    +0.000 N 
ATOM      4  C   UNL     1      -0.919  11.773  21.363  0.00  0.00    +0.000 C 
ATOM      5  C   UNL     1      -2.288  12.236  20.912  0.00  0.00    +0.000 A 
ATOM      6  C   UNL     1      -3.052  12.975  21.835  0.00  0.00    +0.000 A 
ATOM      7  C   UNL     1      -4.341  13.399  21.527  0.00  0.00    +0.000 A 
ATOM      8  C   UNL     1      -4.897  13.058  20.306  0.00  0.00    +0.000 A 
ATOM      9  C   UNL     1      -4.127  12.363  19.354  0.00  0.00    +0.000 A 
ATOM     10  C   UNL     1      -2.800  11.966  19.628  0.00  0.00    +0.000 A 
ATOM     11  C   UNL     1      -1.960  11.194  18.597  0.00  0.00    +0.000 C 
ATOM     12  C   UNL     1      -2.020  11.794  17.157  0.00  0.00    +0.000 C 
ATOM     13  C   UNL     1      -2.427  10.648  16.229  0.00  0.00    +0.000 C 
ATOM     14  C   UNL     1      -3.282   9.749  17.099  0.00  0.00    +0.000 C 
ATOM     15  C   UNL     1      -2.520   9.760  18.412  0.00  0.00    +0.000 C 
ATOM     16  C   UNL     1      -0.471  11.157  19.046  0.00  0.00    +0.000 C 
ATOM     17  O   UNL     1      -6.180  13.341  19.952  0.00  0.00    +0.000 OA
ATOM     18  C   UNL     1      -6.897  14.166  20.864  0.00  0.00    +0.000 C 
ATOM     19  C   UNL     1      -6.359  14.298  22.286  0.00  0.00    +0.000 C 
ATOM     20  O   UNL     1      -4.958  14.165  22.465  0.00  0.00    +0.000 OA
ENDROOT
BRANCH   1  26
ATOM     21  C   UNL     1       2.217   6.725  19.860  0.00  0.00    +0.000 A 
ATOM     22  C   UNL     1       2.671   7.059  18.580  0.00  0.00    +0.000 A 
ATOM     23  C   UNL     1       2.347   8.299  18.058  0.00  0.00    +0.000 A 
ATOM     24  F   UNL     1       2.740   8.625  16.820  0.00  0.00    +0.000 F 
ATOM     25  C   UNL     1       1.611   9.210  18.800  0.00  0.00    +0.000 A 
ATOM     26  C   UNL     1       1.325   8.956  20.139  0.00  0.00    +0.000 A 
ATOM     27  C   UNL     1       1.576   7.685  20.659  0.00  0.00    +0.000 A 
BRANCH  21  29
ATOM     28  N   UNL     1       3.526   4.688  19.859  0.00  0.00    +0.000 N 
ATOM     29  C   UNL     1       2.419   5.336  20.327  0.00  0.00    +0.000 C 
ATOM     30  O   UNL     1       1.668   4.818  21.142  0.00  0.00    +0.000 OA
ATOM     31  H   UNL     1       3.739   3.795  20.285  0.00  0.00    +0.000 HD
ATOM     32  H   UNL     1       4.283   5.172  19.393  0.00  0.00    +0.000 HD
ENDBRANCH  21  29
ENDBRANCH   1  26
TORSDOF 2
ENDMDL
MODEL 5
REMARK VINA RESULT:      -7.9      2.837      8.022
REMARK  Name = 
REMARK  2 active torsions:
REMARK  status: ('A' for Active; 'I' for Inactive)
REMARK    1  A    between atoms: C_2  and  C_4
REMARK    2  A    between atoms: C_9  and  C_10
REMARK                            x       y       z     vdW  Elec       q    Type
REMARK                         _______ _______ _______ _____ _____    ______ ____
ROOT
ATOM      1  C   UNL     1      -0.720  10.498  22.920  0.00  0.00    +0.000 C 
ATOM      2  O   UNL     1      -0.417   9.902  23.952  0.00  0.00    +0.000 OA
ATOM      3  N   UNL     1      -0.409  10.027  21.639  0.00  0.00    +0.000 N 
ATOM      4  C   UNL     1       0.336   8.781  21.563  0.00  0.00    +0.000 C 
ATOM      5  C   UNL     1       1.051   8.595  20.242  0.00  0.00    +0.000 A 
ATOM      6  C   UNL     1       1.993   7.552  20.163  0.00  0.00    +0.000 A 
ATOM      7  C   UNL     1       2.735   7.338  19.006  0.00  0.00    +0.000 A 
ATOM      8  C   UNL     1       2.571   8.187  17.924  0.00  0.00    +0.000 A 
ATOM      9  C   UNL     1       1.597   9.202  17.971  0.00  0.00    +0.000 A 
ATOM     10  C   UNL     1       0.799   9.406  19.118  0.00  0.00    +0.000 A 
ATOM     11  C   UNL     1      -0.255  10.523  19.178  0.00  0.00    +0.000 C 
ATOM     12  C   UNL     1      -1.164  10.604  17.912  0.00  0.00    +0.000 C 
ATOM     13  C   UNL     1      -1.084  12.048  17.415  0.00  0.00    +0.000 C 
ATOM     14  C   UNL     1       0.300  12.508  17.825  0.00  0.00    +0.000 C 
ATOM     15  C   UNL     1       0.434  11.912  19.216  0.00  0.00    +0.000 C 
ATOM     16  C   UNL     1      -1.170  10.322  20.421  0.00  0.00    +0.000 C 
ATOM     17  O   UNL     1       3.317   8.119  16.788  0.00  0.00    +0.000 OA
ATOM     18  C   UNL     1       4.194   7.002  16.699  0.00  0.00    +0.000 C 
ATOM     19  C   UNL     1       4.536   6.256  17.986  0.00  0.00    +0.000 C 
ATOM     20  O   UNL     1       3.563   6.260  19.018  0.00  0.00    +0.000 OA
ENDROOT
BRANCH   1  26
ATOM     21  C   UNL     1      -3.440  13.029  23.623  0.00  0.00    +0.000 A 
ATOM     22  C   UNL     1      -2.834  14.213  23.189  0.00  0.00    +0.000 A 
ATOM     23  C   UNL     1      -1.503  14.182  22.808  0.00  0.00    +0.000 A 
ATOM     24  F   UNL     1      -0.893  15.310  22.424  0.00  0.00    +0.000 F 
ATOM     25  C   UNL     1      -0.788  12.994  22.828  0.00  0.00    +0.000 A 
ATOM     26  C   UNL     1      -1.438  11.788  23.075  0.00  0.00    +0.000 A 
ATOM     27  C   UNL     1      -2.757  11.807  23.532  0.00  0.00    +0.000 A 
BRANCH  21  29
ATOM     28  N   UNL     1      -5.384  14.353  24.200  0.00  0.00    +0.000 N 
ATOM     29  C   UNL     1      -4.803  13.117  24.192  0.00  0.00    +0.000 C 
ATOM     30  O   UNL     1      -5.403  12.122  24.575  0.00  0.00    +0.000 OA
ATOM     31  H   UNL     1      -6.362  14.388  24.457  0.00  0.00    +0.000 HD
ATOM     32  H   UNL     1      -5.016  15.130  23.668  0.00  0.00    +0.000 HD
ENDBRANCH  21  29
ENDBRANCH   1  26
TORSDOF 2
ENDMDL
MODEL 6
REMARK VINA RESULT:      -7.8      3.738      4.824
REMARK  Name = 
REMARK  2 active torsions:
REMARK  status: ('A' for Active; 'I' for Inactive)
REMARK    1  A    between atoms: C_2  and  C_4
REMARK    2  A    between atoms: C_9  and  C_10
REMARK                            x       y       z     vdW  Elec       q    Type
REMARK                         _______ _______ _______ _____ _____    ______ ____
ROOT
ATOM      1  C   UNL     1       2.732   7.982  18.099  0.00  0.00    +0.000 C 
ATOM      2  O   UNL     1       3.402   8.136  17.079  0.00  0.00    +0.000 OA
ATOM      3  N   UNL     1       1.943   8.992  18.662  0.00  0.00    +0.000 N 
ATOM      4  C   UNL     1       1.963  10.284  17.997  0.00  0.00    +0.000 C 
ATOM      5  C   UNL     1       1.519  11.421  18.893  0.00  0.00    +0.000 A 
ATOM      6  C   UNL     1       1.740  12.730  18.426  0.00  0.00    +0.000 A 
ATOM      7  C   UNL     1       1.412  13.837  19.204  0.00  0.00    +0.000 A 
ATOM      8  C   UNL     1       0.891  13.649  20.473  0.00  0.00    +0.000 A 
ATOM      9  C   UNL     1       0.618  12.347  20.932  0.00  0.00    +0.000 A 
ATOM     10  C   UNL     1       0.899  11.211  20.140  0.00  0.00    +0.000 A 
ATOM     11  C   UNL     1       0.616   9.787  20.645  0.00  0.00    +0.000 C 
ATOM     12  C   UNL     1      -0.795   9.613  21.291  0.00  0.00    +0.000 C 
ATOM     13  C   UNL     1      -0.562   9.004  22.675  0.00  0.00    +0.000 C 
ATOM     14  C   UNL     1       0.799   9.527  23.089  0.00  0.00    +0.000 C 
ATOM     15  C   UNL     1       1.587   9.420  21.796  0.00  0.00    +0.000 C 
ATOM     16  C   UNL     1       0.739   8.774  19.469  0.00  0.00    +0.000 C 
ATOM     17  O   UNL     1       0.631  14.662  21.342  0.00  0.00    +0.000 OA
ATOM     18  C   UNL     1       0.777  15.974  20.813  0.00  0.00    +0.000 C 
ATOM     19  C   UNL     1       1.586  16.143  19.530  0.00  0.00    +0.000 C 
ATOM     20  O   UNL     1       1.604  15.051  18.624  0.00  0.00    +0.000 OA
ENDROOT
BRANCH   1  26
ATOM     21  C   UNL     1       3.973   4.587  19.209  0.00  0.00    +0.000 A 
ATOM     22  C   UNL     1       2.834   4.069  19.834  0.00  0.00    +0.000 A 
ATOM     23  C   UNL     1       1.733   4.890  20.005  0.00  0.00    +0.000 A 
ATOM     24  F   UNL     1       0.646   4.425  20.633  0.00  0.00    +0.000 F 
ATOM     25  C   UNL     1       1.744   6.195  19.539  0.00  0.00    +0.000 A 
ATOM     26  C   UNL     1       2.797   6.650  18.751  0.00  0.00    +0.000 A 
ATOM     27  C   UNL     1       3.946   5.866  18.631  0.00  0.00    +0.000 A 
BRANCH  21  29
ATOM     28  N   UNL     1       5.072   2.477  19.662  0.00  0.00    +0.000 N 
ATOM     29  C   UNL     1       5.197   3.755  19.196  0.00  0.00    +0.000 C 
ATOM     30  O   UNL     1       6.248   4.170  18.731  0.00  0.00    +0.000 OA
ATOM     31  H   UNL     1       5.868   1.868  19.523  0.00  0.00    +0.000 HD
ATOM     32  H   UNL     1       4.173   2.039  19.813  0.00  0.00    +0.000 HD
ENDBRANCH  21  29
ENDBRANCH   1  26
TORSDOF 2
ENDMDL
MODEL 7
REMARK VINA RESULT:      -7.7      4.640      7.857
REMARK  Name = 
REMARK  2 active torsions:
REMARK  status: ('A' for Active; 'I' for Inactive)
REMARK    1  A    between atoms: C_2  and  C_4
REMARK    2  A    between atoms: C_9  and  C_10
REMARK                            x       y       z     vdW  Elec       q    Type
REMARK                         _______ _______ _______ _____ _____    ______ ____
ROOT
ATOM      1  C   UNL     1      -4.082  14.548  21.045  0.00  0.00    +0.000 C 
ATOM      2  O   UNL     1      -4.466  15.700  21.241  0.00  0.00    +0.000 OA
ATOM      3  N   UNL     1      -2.742  14.212  20.813  0.00  0.00    +0.000 N 
ATOM      4  C   UNL     1      -1.789  15.309  20.781  0.00  0.00    +0.000 C 
ATOM      5  C   UNL     1      -0.507  14.962  20.057  0.00  0.00    +0.000 A 
ATOM      6  C   UNL     1       0.369  16.022  19.756  0.00  0.00    +0.000 A 
ATOM      7  C   UNL     1       1.547  15.806  19.047  0.00  0.00    +0.000 A 
ATOM      8  C   UNL     1       1.848  14.530  18.600  0.00  0.00    +0.000 A 
ATOM      9  C   UNL     1       1.008  13.453  18.936  0.00  0.00    +0.000 A 
ATOM     10  C   UNL     1      -0.168  13.643  19.696  0.00  0.00    +0.000 A 
ATOM     11  C   UNL     1      -1.095  12.470  20.053  0.00  0.00    +0.000 C 
ATOM     12  C   UNL     1      -0.345  11.212  20.593  0.00  0.00    +0.000 C 
ATOM     13  C   UNL     1      -0.804  10.034  19.732  0.00  0.00    +0.000 C 
ATOM     14  C   UNL     1      -1.114  10.655  18.385  0.00  0.00    +0.000 C 
ATOM     15  C   UNL     1      -1.812  11.944  18.782  0.00  0.00    +0.000 C 
ATOM     16  C   UNL     1      -2.127  12.919  21.128  0.00  0.00    +0.000 C 
ATOM     17  O   UNL     1       2.922  14.236  17.819  0.00  0.00    +0.000 OA
ATOM     18  C   UNL     1       3.836  15.307  17.608  0.00  0.00    +0.000 C 
ATOM     19  C   UNL     1       3.351  16.727  17.885  0.00  0.00    +0.000 C 
ATOM     20  O   UNL     1       2.348  16.889  18.876  0.00  0.00    +0.000 OA
ENDROOT
BRANCH   1  26
ATOM     21  C   UNL     1      -6.401  11.800  19.877  0.00  0.00    +0.000 A 
ATOM     22  C   UNL     1      -7.196  11.609  21.012  0.00  0.00    +0.000 A 
ATOM     23  C   UNL     1      -6.868  12.280  22.178  0.00  0.00    +0.000 A 
ATOM     24  F   UNL     1      -7.594  12.086  23.286  0.00  0.00    +0.000 F 
ATOM     25  C   UNL     1      -5.789  13.149  22.216  0.00  0.00    +0.000 A 
ATOM     26  C   UNL     1      -5.117  13.485  21.043  0.00  0.00    +0.000 A 
ATOM     27  C   UNL     1      -5.383  12.765  19.877  0.00  0.00    +0.000 A 
BRANCH  21  29
ATOM     28  N   UNL     1      -6.433  11.502  17.474  0.00  0.00    +0.000 N 
ATOM     29  C   UNL     1      -6.658  10.942  18.699  0.00  0.00    +0.000 C 
ATOM     30  O   UNL     1      -6.991   9.772  18.819  0.00  0.00    +0.000 OA
ATOM     31  H   UNL     1      -6.474  10.877  16.679  0.00  0.00    +0.000 HD
ATOM     32  H   UNL     1      -5.925  12.369  17.357  0.00  0.00    +0.000 HD
ENDBRANCH  21  29
ENDBRANCH   1  26
TORSDOF 2
ENDMDL
MODEL 8
REMARK VINA RESULT:      -7.7      3.066      8.389
REMARK  Name = 
REMARK  2 active torsions:
REMARK  status: ('A' for Active; 'I' for Inactive)
REMARK    1  A    between atoms: C_2  and  C_4
REMARK    2  A    between atoms: C_9  and  C_10
REMARK                            x       y       z     vdW  Elec       q    Type
REMARK                         _______ _______ _______ _____ _____    ______ ____
ROOT
ATOM      1  C   UNL     1      -0.544  12.273  18.646  0.00  0.00    +0.000 C 
ATOM      2  O   UNL     1      -0.496  12.622  17.468  0.00  0.00    +0.000 OA
ATOM      3  N   UNL     1       0.276  11.275  19.188  0.00  0.00    +0.000 N 
ATOM      4  C   UNL     1       1.198  10.620  18.274  0.00  0.00    +0.000 C 
ATOM      5  C   UNL     1       1.670   9.271  18.772  0.00  0.00    +0.000 A 
ATOM      6  C   UNL     1       2.361   8.454  17.857  0.00  0.00    +0.000 A 
ATOM      7  C   UNL     1       2.787   7.177  18.210  0.00  0.00    +0.000 A 
ATOM      8  C   UNL     1       2.498   6.687  19.472  0.00  0.00    +0.000 A 
ATOM      9  C   UNL     1       1.853   7.510  20.414  0.00  0.00    +0.000 A 
ATOM     10  C   UNL     1       1.454   8.827  20.092  0.00  0.00    +0.000 A 
ATOM     11  C   UNL     1       0.737   9.724  21.113  0.00  0.00    +0.000 C 
ATOM     12  C   UNL     1       1.401   9.731  22.526  0.00  0.00    +0.000 C 
ATOM     13  C   UNL     1       0.295   9.382  23.523  0.00  0.00    +0.000 C 
ATOM     14  C   UNL     1      -0.649   8.494  22.738  0.00  0.00    +0.000 C 
ATOM     15  C   UNL     1      -0.692   9.189  21.389  0.00  0.00    +0.000 C 
ATOM     16  C   UNL     1       0.691  11.189  20.591  0.00  0.00    +0.000 C 
ATOM     17  O   UNL     1       2.786   5.420  19.877  0.00  0.00    +0.000 OA
ATOM     18  C   UNL     1       3.563   4.650  18.967  0.00  0.00    +0.000 C 
ATOM     19  C   UNL     1       3.635   5.115  17.515  0.00  0.00    +0.000 C 
ATOM     20  O   UNL     1       3.505   6.507  17.271  0.00  0.00    +0.000 OA
ENDROOT
BRANCH   1  26
ATOM     21  C   UNL     1      -3.742  13.043  20.510  0.00  0.00    +0.000 A 
ATOM     22  C   UNL     1      -3.478  14.330  20.990  0.00  0.00    +0.000 A 
ATOM     23  C   UNL     1      -2.212  14.862  20.815  0.00  0.00    +0.000 A 
ATOM     24  F   UNL     1      -1.927  16.078  21.298  0.00  0.00    +0.000 F 
ATOM     25  C   UNL     1      -1.228  14.146  20.151  0.00  0.00    +0.000 A 
ATOM     26  C   UNL     1      -1.543  12.952  19.509  0.00  0.00    +0.000 A 
ATOM     27  C   UNL     1      -2.789  12.364  19.736  0.00  0.00    +0.000 A 
BRANCH  21  29
ATOM     28  N   UNL     1      -5.368  12.404  22.187  0.00  0.00    +0.000 N 
ATOM     29  C   UNL     1      -5.039  12.425  20.862  0.00  0.00    +0.000 C 
ATOM     30  O   UNL     1      -5.807  12.013  20.003  0.00  0.00    +0.000 OA
ATOM     31  H   UNL     1      -6.310  12.111  22.413  0.00  0.00    +0.000 HD
ATOM     32  H   UNL     1      -4.875  12.954  22.878  0.00  0.00    +0.000 HD
ENDBRANCH  21  29
ENDBRANCH   1  26
TORSDOF 2
ENDMDL
MODEL 9
REMARK VINA RESULT:      -7.6      3.087      8.491
REMARK  Name = 
REMARK  2 active torsions:
REMARK  status: ('A' for Active; 'I' for Inactive)
REMARK    1  A    between atoms: C_2  and  C_4
REMARK    2  A    between atoms: C_9  and  C_10
REMARK                            x       y       z     vdW  Elec       q    Type
REMARK                         _______ _______ _______ _____ _____    ______ ____
ROOT
ATOM      1  C   UNL     1      -1.821  11.341  18.047  0.00  0.00    +0.000 C 
ATOM      2  O   UNL     1      -1.916  11.495  16.830  0.00  0.00    +0.000 OA
ATOM      3  N   UNL     1      -0.725  10.723  18.661  0.00  0.00    +0.000 N 
ATOM      4  C   UNL     1       0.322  10.226  17.783  0.00  0.00    +0.000 C 
ATOM      5  C   UNL     1       1.190   9.169  18.433  0.00  0.00    +0.000 A 
ATOM      6  C   UNL     1       2.063   8.451  17.594  0.00  0.00    +0.000 A 
ATOM      7  C   UNL     1       2.861   7.426  18.093  0.00  0.00    +0.000 A 
ATOM      8  C   UNL     1       2.771   7.082  19.432  0.00  0.00    +0.000 A 
ATOM      9  C   UNL     1       1.939   7.823  20.291  0.00  0.00    +0.000 A 
ATOM     10  C   UNL     1       1.157   8.899  19.815  0.00  0.00    +0.000 A 
ATOM     11  C   UNL     1       0.236   9.702  20.748  0.00  0.00    +0.000 C 
ATOM     12  C   UNL     1       0.912  10.126  22.090  0.00  0.00    +0.000 C 
ATOM     13  C   UNL     1      -0.009   9.637  23.209  0.00  0.00    +0.000 C 
ATOM     14  C   UNL     1      -0.670   8.400  22.636  0.00  0.00    +0.000 C 
ATOM     15  C   UNL     1      -0.959   8.828  21.208  0.00  0.00    +0.000 C 
ATOM     16  C   UNL     1      -0.260  10.988  20.026  0.00  0.00    +0.000 C 
ATOM     17  O   UNL     1       3.435   6.035  19.991  0.00  0.00    +0.000 OA
ATOM     18  C   UNL     1       4.377   5.387  19.144  0.00  0.00    +0.000 C 
ATOM     19  C   UNL     1       4.263   5.614  17.639  0.00  0.00    +0.000 C 
ATOM     20  O   UNL     1       3.717   6.851  17.208  0.00  0.00    +0.000 OA
ENDROOT
BRANCH   1  26
ATOM     21  C   UNL     1      -5.323  12.072  19.269  0.00  0.00    +0.000 A 
ATOM     22  C   UNL     1      -5.066  12.915  20.354  0.00  0.00    +0.000 A 
ATOM     23  C   UNL     1      -3.754  13.114  20.750  0.00  0.00    +0.000 A 
ATOM     24  F   UNL     1      -3.488  13.889  21.809  0.00  0.00    +0.000 F 
ATOM     25  C   UNL     1      -2.709  12.512  20.067  0.00  0.00    +0.000 A 
ATOM     26  C   UNL     1      -2.949  11.831  18.877  0.00  0.00    +0.000 A 
ATOM     27  C   UNL     1      -4.266  11.557  18.503  0.00  0.00    +0.000 A 
BRANCH  21  29
ATOM     28  N   UNL     1      -7.061  10.406  18.999  0.00  0.00    +0.000 N 
ATOM     29  C   UNL     1      -6.733  11.732  18.974  0.00  0.00    +0.000 C 
ATOM     30  O   UNL     1      -7.574  12.598  18.783  0.00  0.00    +0.000 OA
ATOM     31  H   UNL     1      -8.046  10.185  18.938  0.00  0.00    +0.000 HD
ATOM     32  H   UNL     1      -6.451   9.703  19.396  0.00  0.00    +0.000 HD
ENDBRANCH  21  29
ENDBRANCH   1  26
TORSDOF 2
ENDMDL
