MODEL 1
REMARK VINA RESULT:      -8.1      0.000      0.000
REMARK  Name = 
REMARK  6 active torsions:
REMARK  status: ('A' for Active; 'I' for Inactive)
REMARK    1  A    between atoms: S_2  and  N_4
REMARK    2  A    between atoms: S_2  and  C_21
REMARK    3  A    between atoms: N_4  and  C_5
REMARK    4  A    between atoms: C_7  and  S_8
REMARK    5  A    between atoms: S_8  and  N_11
REMARK    6  A    between atoms: C_19  and  O_20
REMARK                            x       y       z     vdW  Elec       q    Type
REMARK                         _______ _______ _______ _____ _____    ______ ____
ROOT
ATOM      1  C   UNL     1       3.788   5.924  18.496  0.00  0.00    +0.000 A 
ATOM      2  C   UNL     1       5.008   6.126  17.852  0.00  0.00    +0.000 A 
ATOM      3  C   UNL     1       5.522   5.109  17.036  0.00  0.00    +0.000 A 
ATOM      4  C   UNL     1       4.828   3.896  16.887  0.00  0.00    +0.000 A 
ATOM      5  C   UNL     1       3.605   3.709  17.528  0.00  0.00    +0.000 A 
ATOM      6  C   UNL     1       3.095   4.718  18.336  0.00  0.00    +0.000 A 
ENDROOT
BRANCH   3   7
ATOM      7  S   UNL     1       7.135   5.294  16.281  0.00  0.00    +0.000 S 
ATOM      8  O   UNL     1       7.540   6.671  16.457  0.00  0.00    +0.000 OA
ATOM      9  O   UNL     1       7.956   4.208  16.782  0.00  0.00    +0.000 OA
BRANCH   7  10
ATOM     10  N   UNL     1       6.841   5.013  14.616  0.00  0.00    +0.000 NA
ATOM     11  C   UNL     1       7.947   5.398  13.703  0.00  0.00    +0.000 C 
ATOM     12  C   UNL     1       7.534   5.295  12.239  0.00  0.00    +0.000 C 
ATOM     13  C   UNL     1       6.972   3.916  11.924  0.00  0.00    +0.000 C 
ATOM     14  C   UNL     1       5.785   3.638  12.833  0.00  0.00    +0.000 C 
ATOM     15  C   UNL     1       6.189   3.713  14.302  0.00  0.00    +0.000 C 
ENDBRANCH   7  10
ENDBRANCH   3   7
BRANCH   1  16
ATOM     16  N   UNL     1       3.202   6.958  19.290  0.00  0.00    +0.000 N 
ATOM     17  H   UNL     1       2.690   6.593  20.096  0.00  0.00    +0.000 HD
BRANCH  16  19
ATOM     18  O   UNL     1       3.162   9.118  17.993  0.00  0.00    +0.000 OA
ATOM     19  S   UNL     1       2.250   8.109  18.490  0.00  0.00    +0.000 S 
ATOM     20  O   UNL     1       1.337   7.426  17.595  0.00  0.00    +0.000 OA
BRANCH  19  21
ATOM     21  C   UNL     1       1.268   8.887  19.763  0.00  0.00    +0.000 A 
ATOM     22  C   UNL     1       1.209   8.328  21.046  0.00  0.00    +0.000 A 
ATOM     23  C   UNL     1       0.627   9.056  22.090  0.00  0.00    +0.000 A 
ATOM     24  C   UNL     1       0.114  10.336  21.857  0.00  0.00    +0.000 A 
ATOM     25  C   UNL     1       0.122  10.860  20.566  0.00  0.00    +0.000 A 
ATOM     26  C   UNL     1       0.707  10.146  19.519  0.00  0.00    +0.000 A 
ATOM     27  O   UNL     1      -0.427  12.071  20.247  0.00  0.00    +0.000 OA
ATOM     28  C   UNL     1      -0.479  12.942  21.376  0.00  0.00    +0.000 C 
ATOM     29  C   UNL     1      -0.971  12.261  22.647  0.00  0.00    +0.000 C 
ATOM     30  O   UNL     1      -0.331  11.021  22.951  0.00  0.00    +0.000 OA
ENDBRANCH  19  21
ENDBRANCH  16  19
ENDBRANCH   1  16
BRANCH   6  31
ATOM     31  O   UNL     1       1.913   4.557  19.008  0.00  0.00    +0.000 OA
ATOM     32  H   UNL     1       2.031   3.879  19.693  0.00  0.00    +0.000 HD
ENDBRANCH   6  31
TORSDOF 6
ENDMDL
MODEL 2
REMARK VINA RESULT:      -8.0      0.812      1.436
REMARK  Name = 
REMARK  6 active torsions:
REMARK  status: ('A' for Active; 'I' for Inactive)
REMARK    1  A    between atoms: S_2  and  N_4
REMARK    2  A    between atoms: S_2  and  C_21
REMARK    3  A    between atoms: N_4  and  C_5
REMARK    4  A    between atoms: C_7  and  S_8
REMARK    5  A    between atoms: S_8  and  N_11
REMARK    6  A    between atoms: C_19  and  O_20
REMARK                            x       y       z     vdW  Elec       q    Type
REMARK                         _______ _______ _______ _____ _____    ______ ____
ROOT
ATOM      1  C   UNL     1       3.743   6.035  18.345  0.00  0.00    +0.000 A 
ATOM      2  C   UNL     1       4.952   6.209  17.673  0.00  0.00    +0.000 A 
ATOM      3  C   UNL     1       5.538   5.107  17.035  0.00  0.00    +0.000 A 
ATOM      4  C   UNL     1       4.927   3.843  17.090  0.00  0.00    +0.000 A 
ATOM      5  C   UNL     1       3.715   3.683  17.757  0.00  0.00    +0.000 A 
ATOM      6  C   UNL     1       3.132   4.776  18.389  0.00  0.00    +0.000 A 
ENDROOT
BRANCH   3   7
ATOM      7  S   UNL     1       7.141   5.273  16.254  0.00  0.00    +0.000 S 
ATOM      8  O   UNL     1       7.553   6.651  16.398  0.00  0.00    +0.000 OA
ATOM      9  O   UNL     1       7.966   4.193  16.764  0.00  0.00    +0.000 OA
BRANCH   7  10
ATOM     10  N   UNL     1       6.824   4.960  14.599  0.00  0.00    +0.000 NA
ATOM     11  C   UNL     1       7.921   5.320  13.664  0.00  0.00    +0.000 C 
ATOM     12  C   UNL     1       7.487   5.191  12.208  0.00  0.00    +0.000 C 
ATOM     13  C   UNL     1       6.912   3.810  11.927  0.00  0.00    +0.000 C 
ATOM     14  C   UNL     1       5.735   3.558  12.858  0.00  0.00    +0.000 C 
ATOM     15  C   UNL     1       6.160   3.659  14.319  0.00  0.00    +0.000 C 
ENDBRANCH   7  10
ENDBRANCH   3   7
BRANCH   1  16
ATOM     16  N   UNL     1       3.083   7.144  18.960  0.00  0.00    +0.000 N 
ATOM     17  H   UNL     1       2.571   6.879  19.804  0.00  0.00    +0.000 HD
BRANCH  16  19
ATOM     18  O   UNL     1       2.982   8.922  17.177  0.00  0.00    +0.000 OA
ATOM     19  S   UNL     1       2.093   8.103  17.975  0.00  0.00    +0.000 S 
ATOM     20  O   UNL     1       1.094   7.262  17.348  0.00  0.00    +0.000 OA
BRANCH  19  21
ATOM     21  C   UNL     1       1.238   9.209  19.088  0.00  0.00    +0.000 A 
ATOM     22  C   UNL     1       0.310  10.131  18.587  0.00  0.00    +0.000 A 
ATOM     23  C   UNL     1      -0.515  10.831  19.476  0.00  0.00    +0.000 A 
ATOM     24  C   UNL     1      -0.419  10.608  20.852  0.00  0.00    +0.000 A 
ATOM     25  C   UNL     1       0.548   9.734  21.346  0.00  0.00    +0.000 A 
ATOM     26  C   UNL     1       1.369   9.023  20.470  0.00  0.00    +0.000 A 
ATOM     27  O   UNL     1       0.751   9.520  22.681  0.00  0.00    +0.000 OA
ATOM     28  C   UNL     1      -0.420   9.803  23.446  0.00  0.00    +0.000 C 
ATOM     29  C   UNL     1      -1.112  11.098  23.041  0.00  0.00    +0.000 C 
ATOM     30  O   UNL     1      -1.336  11.246  21.637  0.00  0.00    +0.000 OA
ENDBRANCH  19  21
ENDBRANCH  16  19
ENDBRANCH   1  16
BRANCH   6  31
ATOM     31  O   UNL     1       1.958   4.650  19.081  0.00  0.00    +0.000 OA
ATOM     32  H   UNL     1       1.613   5.537  19.278  0.00  0.00    +0.000 HD
ENDBRANCH   6  31
TORSDOF 6
ENDMDL
MODEL 3
REMARK VINA RESULT:      -8.0      3.074      5.237
REMARK  Name = 
REMARK  6 active torsions:
REMARK  status: ('A' for Active; 'I' for Inactive)
REMARK    1  A    between atoms: S_2  and  N_4
REMARK    2  A    between atoms: S_2  and  C_21
REMARK    3  A    between atoms: N_4  and  C_5
REMARK    4  A    between atoms: C_7  and  S_8
REMARK    5  A    between atoms: S_8  and  N_11
REMARK    6  A    between atoms: C_19  and  O_20
REMARK                            x       y       z     vdW  Elec       q    Type
REMARK                         _______ _______ _______ _____ _____    ______ ____
ROOT
ATOM      1  C   UNL     1       1.432   9.464  20.140  0.00  0.00    +0.000 A 
ATOM      2  C   UNL     1       1.931   8.164  20.202  0.00  0.00    +0.000 A 
ATOM      3  C   UNL     1       2.180   7.475  19.007  0.00  0.00    +0.000 A 
ATOM      4  C   UNL     1       1.911   8.079  17.767  0.00  0.00    +0.000 A 
ATOM      5  C   UNL     1       1.421   9.382  17.718  0.00  0.00    +0.000 A 
ATOM      6  C   UNL     1       1.175  10.066  18.902  0.00  0.00    +0.000 A 
ENDROOT
BRANCH   3   7
ATOM      7  S   UNL     1       2.719   5.768  19.052  0.00  0.00    +0.000 S 
ATOM      8  O   UNL     1       2.727   5.352  20.437  0.00  0.00    +0.000 OA
ATOM      9  O   UNL     1       1.928   5.055  18.066  0.00  0.00    +0.000 OA
BRANCH   7  10
ATOM     10  N   UNL     1       4.336   5.835  18.486  0.00  0.00    +0.000 NA
ATOM     11  C   UNL     1       5.341   5.173  19.356  0.00  0.00    +0.000 C 
ATOM     12  C   UNL     1       6.765   5.442  18.882  0.00  0.00    +0.000 C 
ATOM     13  C   UNL     1       6.933   5.075  17.414  0.00  0.00    +0.000 C 
ATOM     14  C   UNL     1       5.935   5.867  16.582  0.00  0.00    +0.000 C 
ATOM     15  C   UNL     1       4.504   5.588  17.028  0.00  0.00    +0.000 C 
ENDBRANCH   7  10
ENDBRANCH   3   7
BRANCH   1  16
ATOM     16  N   UNL     1       1.219  10.221  21.334  0.00  0.00    +0.000 N 
ATOM     17  H   UNL     1       2.066  10.308  21.901  0.00  0.00    +0.000 HD
BRANCH  16  19
ATOM     18  O   UNL     1      -0.721   8.648  21.664  0.00  0.00    +0.000 OA
ATOM     19  S   UNL     1      -0.079   9.766  22.322  0.00  0.00    +0.000 S 
ATOM     20  O   UNL     1       0.384   9.658  23.691  0.00  0.00    +0.000 OA
BRANCH  19  21
ATOM     21  C   UNL     1      -1.232  11.130  22.257  0.00  0.00    +0.000 A 
ATOM     22  C   UNL     1      -1.433  11.823  21.056  0.00  0.00    +0.000 A 
ATOM     23  C   UNL     1      -2.491  12.734  20.954  0.00  0.00    +0.000 A 
ATOM     24  C   UNL     1      -3.346  12.946  22.040  0.00  0.00    +0.000 A 
ATOM     25  C   UNL     1      -3.103  12.298  23.249  0.00  0.00    +0.000 A 
ATOM     26  C   UNL     1      -2.057  11.381  23.360  0.00  0.00    +0.000 A 
ATOM     27  O   UNL     1      -3.850  12.509  24.375  0.00  0.00    +0.000 OA
ATOM     28  C   UNL     1      -5.162  12.974  24.059  0.00  0.00    +0.000 C 
ATOM     29  C   UNL     1      -5.182  14.059  22.990  0.00  0.00    +0.000 C 
ATOM     30  O   UNL     1      -4.418  13.763  21.819  0.00  0.00    +0.000 OA
ENDBRANCH  19  21
ENDBRANCH  16  19
ENDBRANCH   1  16
BRANCH   6  31
ATOM     31  O   UNL     1       0.663  11.336  18.894  0.00  0.00    +0.000 OA
ATOM     32  H   UNL     1      -0.220  11.320  19.299  0.00  0.00    +0.000 HD
ENDBRANCH   6  31
TORSDOF 6
ENDMDL
MODEL 4
REMARK VINA RESULT:      -7.9      2.461      8.983
REMARK  Name = 
REMARK  6 active torsions:
REMARK  status: ('A' for Active; 'I' for Inactive)
REMARK    1  A    between atoms: S_2  and  N_4
REMARK    2  A    between atoms: S_2  and  C_21
REMARK    3  A    between atoms: N_4  and  C_5
REMARK    4  A    between atoms: C_7  and  S_8
REMARK    5  A    between atoms: S_8  and  N_11
REMARK    6  A    between atoms: C_19  and  O_20
REMARK                            x       y       z     vdW  Elec       q    Type
REMARK                         _______ _______ _______ _____ _____    ______ ____
ROOT
ATOM      1  C   UNL     1       2.163   6.164  19.233  0.00  0.00    +0.000 A 
ATOM      2  C   UNL     1       2.083   7.423  18.638  0.00  0.00    +0.000 A 
ATOM      3  C   UNL     1       1.614   8.504  19.398  0.00  0.00    +0.000 A 
ATOM      4  C   UNL     1       1.210   8.316  20.731  0.00  0.00    +0.000 A 
ATOM      5  C   UNL     1       1.302   7.056  21.316  0.00  0.00    +0.000 A 
ATOM      6  C   UNL     1       1.769   5.984  20.564  0.00  0.00    +0.000 A 
ENDROOT
BRANCH   3   7
ATOM      7  S   UNL     1       1.399  10.109  18.634  0.00  0.00    +0.000 S 
ATOM      8  O   UNL     1       1.984  11.092  19.518  0.00  0.00    +0.000 OA
ATOM      9  O   UNL     1       1.851   9.981  17.261  0.00  0.00    +0.000 OA
BRANCH   7  10
ATOM     10  N   UNL     1      -0.302  10.327  18.613  0.00  0.00    +0.000 NA
ATOM     11  C   UNL     1      -0.775  11.665  19.053  0.00  0.00    +0.000 C 
ATOM     12  C   UNL     1      -2.293  11.711  19.187  0.00  0.00    +0.000 C 
ATOM     13  C   UNL     1      -2.971  11.244  17.907  0.00  0.00    +0.000 C 
ATOM     14  C   UNL     1      -2.509   9.833  17.580  0.00  0.00    +0.000 C 
ATOM     15  C   UNL     1      -0.993   9.776  17.417  0.00  0.00    +0.000 C 
ENDBRANCH   7  10
ENDBRANCH   3   7
BRANCH   1  16
ATOM     16  N   UNL     1       2.691   5.049  18.511  0.00  0.00    +0.000 N 
ATOM     17  H   UNL     1       2.081   4.229  18.553  0.00  0.00    +0.000 HD
BRANCH  16  19
ATOM     18  O   UNL     1       4.742   5.452  19.918  0.00  0.00    +0.000 OA
ATOM     19  S   UNL     1       4.284   4.585  18.852  0.00  0.00    +0.000 S 
ATOM     20  O   UNL     1       4.338   3.144  18.990  0.00  0.00    +0.000 OA
BRANCH  19  21
ATOM     21  C   UNL     1       5.229   5.017  17.398  0.00  0.00    +0.000 A 
ATOM     22  C   UNL     1       6.409   5.763  17.522  0.00  0.00    +0.000 A 
ATOM     23  C   UNL     1       7.255   5.903  16.416  0.00  0.00    +0.000 A 
ATOM     24  C   UNL     1       6.931   5.299  15.198  0.00  0.00    +0.000 A 
ATOM     25  C   UNL     1       5.727   4.610  15.066  0.00  0.00    +0.000 A 
ATOM     26  C   UNL     1       4.879   4.456  16.164  0.00  0.00    +0.000 A 
ATOM     27  O   UNL     1       5.307   4.056  13.889  0.00  0.00    +0.000 OA
ATOM     28  C   UNL     1       6.402   3.762  13.023  0.00  0.00    +0.000 C 
ATOM     29  C   UNL     1       7.433   4.881  12.943  0.00  0.00    +0.000 C 
ATOM     30  O   UNL     1       7.865   5.390  14.206  0.00  0.00    +0.000 OA
ENDBRANCH  19  21
ENDBRANCH  16  19
ENDBRANCH   1  16
BRANCH   6  31
ATOM     31  O   UNL     1       1.844   4.725  21.096  0.00  0.00    +0.000 OA
ATOM     32  H   UNL     1       1.021   4.540  21.581  0.00  0.00    +0.000 HD
ENDBRANCH   6  31
TORSDOF 6
ENDMDL
MODEL 5
REMARK VINA RESULT:      -7.9      3.960      5.856
REMARK  Name = 
REMARK  6 active torsions:
REMARK  status: ('A' for Active; 'I' for Inactive)
REMARK    1  A    between atoms: S_2  and  N_4
REMARK    2  A    between atoms: S_2  and  C_21
REMARK    3  A    between atoms: N_4  and  C_5
REMARK    4  A    between atoms: C_7  and  S_8
REMARK    5  A    between atoms: S_8  and  N_11
REMARK    6  A    between atoms: C_19  and  O_20
REMARK                            x       y       z     vdW  Elec       q    Type
REMARK                         _______ _______ _______ _____ _____    ______ ____
ROOT
ATOM      1  C   UNL     1       0.810   8.938  19.860  0.00  0.00    +0.000 A 
ATOM      2  C   UNL     1       1.580   7.776  19.866  0.00  0.00    +0.000 A 
ATOM      3  C   UNL     1       2.453   7.535  18.796  0.00  0.00    +0.000 A 
ATOM      4  C   UNL     1       2.535   8.441  17.724  0.00  0.00    +0.000 A 
ATOM      5  C   UNL     1       1.766   9.603  17.734  0.00  0.00    +0.000 A 
ATOM      6  C   UNL     1       0.902   9.843  18.795  0.00  0.00    +0.000 A 
ENDROOT
BRANCH   3   7
ATOM      7  S   UNL     1       3.377   6.003  18.720  0.00  0.00    +0.000 S 
ATOM      8  O   UNL     1       3.703   5.761  17.332  0.00  0.00    +0.000 OA
ATOM      9  O   UNL     1       4.420   6.096  19.724  0.00  0.00    +0.000 OA
BRANCH   7  10
ATOM     10  N   UNL     1       2.249   4.820  19.236  0.00  0.00    +0.000 NA
ATOM     11  C   UNL     1       1.900   3.791  18.223  0.00  0.00    +0.000 C 
ATOM     12  C   UNL     1       0.757   2.899  18.694  0.00  0.00    +0.000 C 
ATOM     13  C   UNL     1       1.059   2.294  20.058  0.00  0.00    +0.000 C 
ATOM     14  C   UNL     1       1.308   3.413  21.059  0.00  0.00    +0.000 C 
ATOM     15  C   UNL     1       2.467   4.299  20.613  0.00  0.00    +0.000 C 
ENDBRANCH   7  10
ENDBRANCH   3   7
BRANCH   1  16
ATOM     16  N   UNL     1      -0.049   9.249  20.959  0.00  0.00    +0.000 N 
ATOM     17  H   UNL     1      -0.991   9.514  20.660  0.00  0.00    +0.000 HD
BRANCH  16  19
ATOM     18  O   UNL     1       0.587   9.665  23.362  0.00  0.00    +0.000 OA
ATOM     19  S   UNL     1       0.518  10.368  22.097  0.00  0.00    +0.000 S 
ATOM     20  O   UNL     1       1.682  11.042  21.558  0.00  0.00    +0.000 OA
BRANCH  19  21
ATOM     21  C   UNL     1      -0.778  11.587  22.258  0.00  0.00    +0.000 A 
ATOM     22  C   UNL     1      -0.903  12.609  21.308  0.00  0.00    +0.000 A 
ATOM     23  C   UNL     1      -2.045  13.419  21.313  0.00  0.00    +0.000 A 
ATOM     24  C   UNL     1      -3.056  13.206  22.255  0.00  0.00    +0.000 A 
ATOM     25  C   UNL     1      -2.896  12.228  23.233  0.00  0.00    +0.000 A 
ATOM     26  C   UNL     1      -1.767  11.408  23.232  0.00  0.00    +0.000 A 
ATOM     27  O   UNL     1      -3.807  12.010  24.230  0.00  0.00    +0.000 OA
ATOM     28  C   UNL     1      -5.113  12.448  23.857  0.00  0.00    +0.000 C 
ATOM     29  C   UNL     1      -5.127  13.812  23.179  0.00  0.00    +0.000 C 
ATOM     30  O   UNL     1      -4.184  13.965  22.117  0.00  0.00    +0.000 OA
ENDBRANCH  19  21
ENDBRANCH  16  19
ENDBRANCH   1  16
BRANCH   6  31
ATOM     31  O   UNL     1       0.107  10.957  18.823  0.00  0.00    +0.000 OA
ATOM     32  H   UNL     1      -0.741  10.727  19.238  0.00  0.00    +0.000 HD
ENDBRANCH   6  31
TORSDOF 6
ENDMDL
MODEL 6
REMARK VINA RESULT:      -7.8      2.304      9.150
REMARK  Name = 
REMARK  6 active torsions:
REMARK  status: ('A' for Active; 'I' for Inactive)
REMARK    1  A    between atoms: S_2  and  N_4
REMARK    2  A    between atoms: S_2  and  C_21
REMARK    3  A    between atoms: N_4  and  C_5
REMARK    4  A    between atoms: C_7  and  S_8
REMARK    5  A    between atoms: S_8  and  N_11
REMARK    6  A    between atoms: C_19  and  O_20
REMARK                            x       y       z     vdW  Elec       q    Type
REMARK                         _______ _______ _______ _____ _____    ______ ____
ROOT
ATOM      1  C   UNL     1       2.321   6.144  19.169  0.00  0.00    +0.000 A 
ATOM      2  C   UNL     1       2.121   7.338  18.477  0.00  0.00    +0.000 A 
ATOM      3  C   UNL     1       1.646   8.456  19.176  0.00  0.00    +0.000 A 
ATOM      4  C   UNL     1       1.356   8.369  20.549  0.00  0.00    +0.000 A 
ATOM      5  C   UNL     1       1.569   7.173  21.231  0.00  0.00    +0.000 A 
ATOM      6  C   UNL     1       2.041   6.064  20.538  0.00  0.00    +0.000 A 
ENDROOT
BRANCH   3   7
ATOM      7  S   UNL     1       1.277   9.972  18.297  0.00  0.00    +0.000 S 
ATOM      8  O   UNL     1       2.423  10.286  17.474  0.00  0.00    +0.000 OA
ATOM      9  O   UNL     1      -0.038   9.803  17.709  0.00  0.00    +0.000 OA
BRANCH   7  10
ATOM     10  N   UNL     1       1.154  11.146  19.541  0.00  0.00    +0.000 NA
ATOM     11  C   UNL     1       1.929  12.393  19.316  0.00  0.00    +0.000 C 
ATOM     12  C   UNL     1       1.918  13.294  20.546  0.00  0.00    +0.000 C 
ATOM     13  C   UNL     1       0.496  13.569  21.013  0.00  0.00    +0.000 C 
ATOM     14  C   UNL     1      -0.196  12.248  21.315  0.00  0.00    +0.000 C 
ATOM     15  C   UNL     1      -0.216  11.346  20.086  0.00  0.00    +0.000 C 
ENDBRANCH   7  10
ENDBRANCH   3   7
BRANCH   1  16
ATOM     16  N   UNL     1       2.859   4.998  18.505  0.00  0.00    +0.000 N 
ATOM     17  H   UNL     1       2.281   4.164  18.631  0.00  0.00    +0.000 HD
BRANCH  16  19
ATOM     18  O   UNL     1       4.938   5.543  19.818  0.00  0.00    +0.000 OA
ATOM     19  S   UNL     1       4.480   4.613  18.808  0.00  0.00    +0.000 S 
ATOM     20  O   UNL     1       4.598   3.183  19.005  0.00  0.00    +0.000 OA
BRANCH  19  21
ATOM     21  C   UNL     1       5.357   5.018  17.304  0.00  0.00    +0.000 A 
ATOM     22  C   UNL     1       6.551   5.747  17.361  0.00  0.00    +0.000 A 
ATOM     23  C   UNL     1       7.343   5.864  16.213  0.00  0.00    +0.000 A 
ATOM     24  C   UNL     1       6.949   5.253  15.018  0.00  0.00    +0.000 A 
ATOM     25  C   UNL     1       5.730   4.581  14.955  0.00  0.00    +0.000 A 
ATOM     26  C   UNL     1       4.937   4.450  16.095  0.00  0.00    +0.000 A 
ATOM     27  O   UNL     1       5.243   4.022  13.805  0.00  0.00    +0.000 OA
ATOM     28  C   UNL     1       6.289   3.703  12.889  0.00  0.00    +0.000 C 
ATOM     29  C   UNL     1       7.330   4.807  12.746  0.00  0.00    +0.000 C 
ATOM     30  O   UNL     1       7.833   5.322  13.980  0.00  0.00    +0.000 OA
ENDBRANCH  19  21
ENDBRANCH  16  19
ENDBRANCH   1  16
BRANCH   6  31
ATOM     31  O   UNL     1       2.231   4.864  21.168  0.00  0.00    +0.000 OA
ATOM     32  H   UNL     1       1.385   4.573  21.550  0.00  0.00    +0.000 HD
ENDBRANCH   6  31
TORSDOF 6
ENDMDL
MODEL 7
REMARK VINA RESULT:      -7.8      3.292      5.154
REMARK  Name = 
REMARK  6 active torsions:
REMARK  status: ('A' for Active; 'I' for Inactive)
REMARK    1  A    between atoms: S_2  and  N_4
REMARK    2  A    between atoms: S_2  and  C_21
REMARK    3  A    between atoms: N_4  and  C_5
REMARK    4  A    between atoms: C_7  and  S_8
REMARK    5  A    between atoms: S_8  and  N_11
REMARK    6  A    between atoms: C_19  and  O_20
REMARK                            x       y       z     vdW  Elec       q    Type
REMARK                         _______ _______ _______ _____ _____    ______ ____
ROOT
ATOM      1  C   UNL     1       1.577   8.942  20.233  0.00  0.00    +0.000 A 
ATOM      2  C   UNL     1       1.837   7.597  20.493  0.00  0.00    +0.000 A 
ATOM      3  C   UNL     1       2.099   6.737  19.418  0.00  0.00    +0.000 A 
ATOM      4  C   UNL     1       2.078   7.218  18.098  0.00  0.00    +0.000 A 
ATOM      5  C   UNL     1       1.826   8.566  17.852  0.00  0.00    +0.000 A 
ATOM      6  C   UNL     1       1.568   9.420  18.917  0.00  0.00    +0.000 A 
ENDROOT
BRANCH   3   7
ATOM      7  S   UNL     1       2.331   4.985  19.708  0.00  0.00    +0.000 S 
ATOM      8  O   UNL     1       2.537   4.804  21.128  0.00  0.00    +0.000 OA
ATOM      9  O   UNL     1       1.250   4.302  19.021  0.00  0.00    +0.000 OA
BRANCH   7  10
ATOM     10  N   UNL     1       3.792   4.625  18.888  0.00  0.00    +0.000 NA
ATOM     11  C   UNL     1       3.652   4.346  17.435  0.00  0.00    +0.000 C 
ATOM     12  C   UNL     1       4.959   3.851  16.826  0.00  0.00    +0.000 C 
ATOM     13  C   UNL     1       6.102   4.810  17.128  0.00  0.00    +0.000 C 
ATOM     14  C   UNL     1       6.242   4.965  18.634  0.00  0.00    +0.000 C 
ATOM     15  C   UNL     1       4.949   5.484  19.255  0.00  0.00    +0.000 C 
ENDBRANCH   7  10
ENDBRANCH   3   7
BRANCH   1  16
ATOM     16  N   UNL     1       1.362   9.864  21.305  0.00  0.00    +0.000 N 
ATOM     17  H   UNL     1       2.203  10.015  21.868  0.00  0.00    +0.000 HD
BRANCH  16  19
ATOM     18  O   UNL     1      -0.674   8.452  21.760  0.00  0.00    +0.000 OA
ATOM     19  S   UNL     1       0.042   9.576  22.326  0.00  0.00    +0.000 S 
ATOM     20  O   UNL     1       0.504   9.549  23.699  0.00  0.00    +0.000 OA
BRANCH  19  21
ATOM     21  C   UNL     1      -1.020  11.002  22.149  0.00  0.00    +0.000 A 
ATOM     22  C   UNL     1      -1.165  11.619  20.900  0.00  0.00    +0.000 A 
ATOM     23  C   UNL     1      -2.162  12.586  20.721  0.00  0.00    +0.000 A 
ATOM     24  C   UNL     1      -3.011  12.928  21.777  0.00  0.00    +0.000 A 
ATOM     25  C   UNL     1      -2.821  12.353  23.032  0.00  0.00    +0.000 A 
ATOM     26  C   UNL     1      -1.837  11.382  23.221  0.00  0.00    +0.000 A 
ATOM     27  O   UNL     1      -3.563  12.691  24.130  0.00  0.00    +0.000 OA
ATOM     28  C   UNL     1      -4.839  13.215  23.765  0.00  0.00    +0.000 C 
ATOM     29  C   UNL     1      -4.780  14.220  22.622  0.00  0.00    +0.000 C 
ATOM     30  O   UNL     1      -4.026  13.794  21.485  0.00  0.00    +0.000 OA
ENDBRANCH  19  21
ENDBRANCH  16  19
ENDBRANCH   1  16
BRANCH   6  31
ATOM     31  O   UNL     1       1.284  10.743  18.712  0.00  0.00    +0.000 OA
ATOM     32  H   UNL     1       1.293  10.921  17.756  0.00  0.00    +0.000 HD
ENDBRANCH   6  31
TORSDOF 6
ENDMDL
MODEL 8
REMARK VINA RESULT:      -7.8      1.466      2.059
REMARK  Name = 
REMARK  6 active torsions:
REMARK  status: ('A' for Active; 'I' for Inactive)
REMARK    1  A    between atoms: S_2  and  N_4
REMARK    2  A    between atoms: S_2  and  C_21
REMARK    3  A    between atoms: N_4  and  C_5
REMARK    4  A    between atoms: C_7  and  S_8
REMARK    5  A    between atoms: S_8  and  N_11
REMARK    6  A    between atoms: C_19  and  O_20
REMARK                            x       y       z     vdW  Elec       q    Type
REMARK                         _______ _______ _______ _____ _____    ______ ____
ROOT
ATOM      1  C   UNL     1       3.096   4.742  17.727  0.00  0.00    +0.000 A 
ATOM      2  C   UNL     1       4.220   5.344  17.164  0.00  0.00    +0.000 A 
ATOM      3  C   UNL     1       5.234   4.532  16.638  0.00  0.00    +0.000 A 
ATOM      4  C   UNL     1       5.127   3.131  16.696  0.00  0.00    +0.000 A 
ATOM      5  C   UNL     1       3.995   2.541  17.252  0.00  0.00    +0.000 A 
ATOM      6  C   UNL     1       2.989   3.347  17.773  0.00  0.00    +0.000 A 
ENDROOT
BRANCH   3   7
ATOM      7  S   UNL     1       6.737   5.271  16.006  0.00  0.00    +0.000 S 
ATOM      8  O   UNL     1       6.660   6.693  16.255  0.00  0.00    +0.000 OA
ATOM      9  O   UNL     1       7.839   4.483  16.527  0.00  0.00    +0.000 OA
BRANCH   7  10
ATOM     10  N   UNL     1       6.646   5.001  14.315  0.00  0.00    +0.000 NA
ATOM     11  C   UNL     1       7.882   5.316  13.554  0.00  0.00    +0.000 C 
ATOM     12  C   UNL     1       7.656   5.232  12.049  0.00  0.00    +0.000 C 
ATOM     13  C   UNL     1       7.059   3.887  11.658  0.00  0.00    +0.000 C 
ATOM     14  C   UNL     1       5.750   3.684  12.405  0.00  0.00    +0.000 C 
ATOM     15  C   UNL     1       5.964   3.740  13.914  0.00  0.00    +0.000 C 
ENDBRANCH   7  10
ENDBRANCH   3   7
BRANCH   1  16
ATOM     16  N   UNL     1       2.014   5.535  18.222  0.00  0.00    +0.000 N 
ATOM     17  H   UNL     1       1.797   6.327  17.613  0.00  0.00    +0.000 HD
BRANCH  16  19
ATOM     18  O   UNL     1       0.972   5.490  20.515  0.00  0.00    +0.000 OA
ATOM     19  S   UNL     1       2.109   6.065  19.828  0.00  0.00    +0.000 S 
ATOM     20  O   UNL     1       3.458   5.854  20.316  0.00  0.00    +0.000 OA
BRANCH  19  21
ATOM     21  C   UNL     1       1.835   7.829  19.767  0.00  0.00    +0.000 A 
ATOM     22  C   UNL     1       1.873   8.504  18.540  0.00  0.00    +0.000 A 
ATOM     23  C   UNL     1       1.438   9.833  18.471  0.00  0.00    +0.000 A 
ATOM     24  C   UNL     1       0.963  10.480  19.615  0.00  0.00    +0.000 A 
ATOM     25  C   UNL     1       0.984   9.821  20.842  0.00  0.00    +0.000 A 
ATOM     26  C   UNL     1       1.407   8.494  20.922  0.00  0.00    +0.000 A 
ATOM     27  O   UNL     1       0.604  10.412  22.016  0.00  0.00    +0.000 OA
ATOM     28  C   UNL     1      -0.303  11.491  21.795  0.00  0.00    +0.000 C 
ATOM     29  C   UNL     1       0.108  12.407  20.649  0.00  0.00    +0.000 C 
ATOM     30  O   UNL     1       0.453  11.735  19.436  0.00  0.00    +0.000 OA
ENDBRANCH  19  21
ENDBRANCH  16  19
ENDBRANCH   1  16
BRANCH   6  31
ATOM     31  O   UNL     1       1.877   2.802  18.357  0.00  0.00    +0.000 OA
ATOM     32  H   UNL     1       1.382   2.303  17.685  0.00  0.00    +0.000 HD
ENDBRANCH   6  31
TORSDOF 6
ENDMDL
MODEL 9
REMARK VINA RESULT:      -7.8      2.484      3.529
REMARK  Name = 
REMARK  6 active torsions:
REMARK  status: ('A' for Active; 'I' for Inactive)
REMARK    1  A    between atoms: S_2  and  N_4
REMARK    2  A    between atoms: S_2  and  C_21
REMARK    3  A    between atoms: N_4  and  C_5
REMARK    4  A    between atoms: C_7  and  S_8
REMARK    5  A    between atoms: S_8  and  N_11
REMARK    6  A    between atoms: C_19  and  O_20
REMARK                            x       y       z     vdW  Elec       q    Type
REMARK                         _______ _______ _______ _____ _____    ______ ____
ROOT
ATOM      1  C   UNL     1       2.851   4.186  17.779  0.00  0.00    +0.000 A 
ATOM      2  C   UNL     1       3.807   4.891  17.048  0.00  0.00    +0.000 A 
ATOM      3  C   UNL     1       4.766   4.175  16.318  0.00  0.00    +0.000 A 
ATOM      4  C   UNL     1       4.777   2.770  16.341  0.00  0.00    +0.000 A 
ATOM      5  C   UNL     1       3.812   2.077  17.067  0.00  0.00    +0.000 A 
ATOM      6  C   UNL     1       2.860   2.786  17.790  0.00  0.00    +0.000 A 
ENDROOT
BRANCH   3   7
ATOM      7  S   UNL     1       6.071   5.049  15.456  0.00  0.00    +0.000 S 
ATOM      8  O   UNL     1       6.782   4.081  14.652  0.00  0.00    +0.000 OA
ATOM      9  O   UNL     1       5.459   6.216  14.849  0.00  0.00    +0.000 OA
BRANCH   7  10
ATOM     10  N   UNL     1       7.103   5.586  16.715  0.00  0.00    +0.000 NA
ATOM     11  C   UNL     1       6.926   7.005  17.119  0.00  0.00    +0.000 C 
ATOM     12  C   UNL     1       8.004   7.452  18.100  0.00  0.00    +0.000 C 
ATOM     13  C   UNL     1       8.082   6.511  19.294  0.00  0.00    +0.000 C 
ATOM     14  C   UNL     1       8.362   5.099  18.804  0.00  0.00    +0.000 C 
ATOM     15  C   UNL     1       7.277   4.628  17.840  0.00  0.00    +0.000 C 
ENDBRANCH   7  10
ENDBRANCH   3   7
BRANCH   1  16
ATOM     16  N   UNL     1       1.821   4.876  18.489  0.00  0.00    +0.000 N 
ATOM     17  H   UNL     1       1.296   5.520  17.893  0.00  0.00    +0.000 HD
BRANCH  16  19
ATOM     18  O   UNL     1       1.289   5.261  20.922  0.00  0.00    +0.000 OA
ATOM     19  S   UNL     1       2.258   5.663  19.924  0.00  0.00    +0.000 S 
ATOM     20  O   UNL     1       3.678   5.480  20.149  0.00  0.00    +0.000 OA
BRANCH  19  21
ATOM     21  C   UNL     1       1.987   7.403  19.618  0.00  0.00    +0.000 A 
ATOM     22  C   UNL     1       2.202   7.933  18.340  0.00  0.00    +0.000 A 
ATOM     23  C   UNL     1       1.776   9.236  18.053  0.00  0.00    +0.000 A 
ATOM     24  C   UNL     1       1.134   9.999  19.032  0.00  0.00    +0.000 A 
ATOM     25  C   UNL     1       0.977   9.486  20.318  0.00  0.00    +0.000 A 
ATOM     26  C   UNL     1       1.390   8.186  20.613  0.00  0.00    +0.000 A 
ATOM     27  O   UNL     1       0.426  10.199  21.347  0.00  0.00    +0.000 OA
ATOM     28  C   UNL     1      -0.444  11.225  20.871  0.00  0.00    +0.000 C 
ATOM     29  C   UNL     1       0.127  12.013  19.699  0.00  0.00    +0.000 C 
ATOM     30  O   UNL     1       0.650  11.213  18.636  0.00  0.00    +0.000 OA
ENDBRANCH  19  21
ENDBRANCH  16  19
ENDBRANCH   1  16
BRANCH   6  31
ATOM     31  O   UNL     1       1.916   2.139  18.542  0.00  0.00    +0.000 OA
ATOM     32  H   UNL     1       1.766   2.644  19.359  0.00  0.00    +0.000 HD
ENDBRANCH   6  31
TORSDOF 6
ENDMDL
