MODEL 1
REMARK VINA RESULT:      -8.4      0.000      0.000
REMARK  Name = 
REMARK  6 active torsions:
REMARK  status: ('A' for Active; 'I' for Inactive)
REMARK    1  A    between atoms: C_1  and  C_2
REMARK    2  A    between atoms: C_2  and  S_3
REMARK    3  A    between atoms: C_2  and  C_10
REMARK    4  A    between atoms: S_3  and  C_4
REMARK    5  A    between atoms: N_8  and  C_9
REMARK    6  A    between atoms: C_14  and  C_15
REMARK                            x       y       z     vdW  Elec       q    Type
REMARK                         _______ _______ _______ _____ _____    ______ ____
ROOT
ATOM      1  C   UNL     1       4.518   5.118  17.305  0.00  0.00    +0.000 A 
ATOM      2  C   UNL     1       3.577   4.079  17.270  0.00  0.00    +0.000 A 
ATOM      3  C   UNL     1       2.298   4.246  17.809  0.00  0.00    +0.000 A 
ATOM      4  C   UNL     1       1.924   5.459  18.387  0.00  0.00    +0.000 A 
ATOM      5  C   UNL     1       2.828   6.519  18.428  0.00  0.00    +0.000 A 
ATOM      6  C   UNL     1       4.115   6.335  17.890  0.00  0.00    +0.000 A 
ENDROOT
BRANCH   5   7
ATOM      7  C   UNL     1       2.515   7.808  19.048  0.00  0.00    +0.000 C 
ATOM      8  C   UNL     1       1.606   8.736  18.682  0.00  0.00    +0.000 C 
ATOM      9  C   UNL     1       1.812  10.133  17.996  0.00  0.00    +0.000 C 
ATOM     10  C   UNL     1       0.996  10.690  19.120  0.00  0.00    +0.000 A 
ATOM     11  C   UNL     1       0.628  11.814  19.819  0.00  0.00    +0.000 A 
ATOM     12  C   UNL     1      -0.048  11.621  21.035  0.00  0.00    +0.000 A 
ATOM     13  C   UNL     1      -0.309  10.322  21.527  0.00  0.00    +0.000 A 
ATOM     14  C   UNL     1       0.128   9.198  20.828  0.00  0.00    +0.000 A 
ATOM     15  C   UNL     1       0.728   9.450  19.626  0.00  0.00    +0.000 A 
ENDBRANCH   5   7
BRANCH   1  17
ATOM     16  C   UNL     1       6.978   4.596  17.840  0.00  0.00    +0.000 C 
ATOM     17  C   UNL     1       5.947   4.978  16.769  0.00  0.00    +0.000 C 
BRANCH  17  18
ATOM     18  S   UNL     1       5.991   3.727  15.418  0.00  0.00    +0.000 S 
BRANCH  18  19
ATOM     19  C   UNL     1       6.906   4.538  14.199  0.00  0.00    +0.000 A 
ATOM     20  N   UNL     1       7.794   5.493  14.360  0.00  0.00    +0.000 NA
ATOM     21  N   UNL     1       8.305   5.807  13.117  0.00  0.00    +0.000 NA
ATOM     22  C   UNL     1       7.700   5.044  12.234  0.00  0.00    +0.000 A 
ATOM     23  N   UNL     1       6.803   4.237  12.869  0.00  0.00    +0.000 N 
ATOM     24  C   UNL     1       5.966   3.253  12.243  0.00  0.00    +0.000 C 
ENDBRANCH  18  19
ENDBRANCH  17  18
ENDBRANCH   1  17
TORSDOF 4
ENDMDL
MODEL 2
REMARK VINA RESULT:      -8.2      2.518      4.279
REMARK  Name = 
REMARK  6 active torsions:
REMARK  status: ('A' for Active; 'I' for Inactive)
REMARK    1  A    between atoms: C_1  and  C_2
REMARK    2  A    between atoms: C_2  and  S_3
REMARK    3  A    between atoms: C_2  and  C_10
REMARK    4  A    between atoms: S_3  and  C_4
REMARK    5  A    between atoms: N_8  and  C_9
REMARK    6  A    between atoms: C_14  and  C_15
REMARK                            x       y       z     vdW  Elec       q    Type
REMARK                         _______ _______ _______ _____ _____    ______ ____
ROOT
ATOM      1  C   UNL     1       2.641   6.871  19.367  0.00  0.00    +0.000 A 
ATOM      2  C   UNL     1       3.070   7.437  18.158  0.00  0.00    +0.000 A 
ATOM      3  C   UNL     1       2.493   8.613  17.669  0.00  0.00    +0.000 A 
ATOM      4  C   UNL     1       1.482   9.258  18.381  0.00  0.00    +0.000 A 
ATOM      5  C   UNL     1       1.039   8.732  19.593  0.00  0.00    +0.000 A 
ATOM      6  C   UNL     1       1.621   7.543  20.070  0.00  0.00    +0.000 A 
ENDROOT
BRANCH   5   7
ATOM      7  C   UNL     1      -0.040   9.337  20.376  0.00  0.00    +0.000 C 
ATOM      8  C   UNL     1       0.032  10.221  21.393  0.00  0.00    +0.000 C 
ATOM      9  C   UNL     1      -0.186  10.005  22.933  0.00  0.00    +0.000 C 
ATOM     10  C   UNL     1      -1.160  11.140  22.849  0.00  0.00    +0.000 A 
ATOM     11  C   UNL     1      -2.203  11.799  23.453  0.00  0.00    +0.000 A 
ATOM     12  C   UNL     1      -2.903  12.737  22.677  0.00  0.00    +0.000 A 
ATOM     13  C   UNL     1      -2.562  12.967  21.325  0.00  0.00    +0.000 A 
ATOM     14  C   UNL     1      -1.538  12.241  20.718  0.00  0.00    +0.000 A 
ATOM     15  C   UNL     1      -0.858  11.386  21.539  0.00  0.00    +0.000 A 
ENDBRANCH   5   7
BRANCH   1  17
ATOM     16  C   UNL     1       2.209   4.775  20.793  0.00  0.00    +0.000 C 
ATOM     17  C   UNL     1       3.205   5.562  19.930  0.00  0.00    +0.000 C 
BRANCH  17  18
ATOM     18  S   UNL     1       3.789   4.486  18.553  0.00  0.00    +0.000 S 
BRANCH  18  19
ATOM     19  C   UNL     1       5.495   4.756  18.578  0.00  0.00    +0.000 A 
ATOM     20  N   UNL     1       6.232   5.158  19.589  0.00  0.00    +0.000 NA
ATOM     21  N   UNL     1       7.545   5.189  19.166  0.00  0.00    +0.000 NA
ATOM     22  C   UNL     1       7.565   4.820  17.905  0.00  0.00    +0.000 A 
ATOM     23  N   UNL     1       6.295   4.547  17.489  0.00  0.00    +0.000 N 
ATOM     24  C   UNL     1       5.916   4.097  16.181  0.00  0.00    +0.000 C 
ENDBRANCH  18  19
ENDBRANCH  17  18
ENDBRANCH   1  17
TORSDOF 4
ENDMDL
MODEL 3
REMARK VINA RESULT:      -8.1      2.619      3.242
REMARK  Name = 
REMARK  6 active torsions:
REMARK  status: ('A' for Active; 'I' for Inactive)
REMARK    1  A    between atoms: C_1  and  C_2
REMARK    2  A    between atoms: C_2  and  S_3
REMARK    3  A    between atoms: C_2  and  C_10
REMARK    4  A    between atoms: S_3  and  C_4
REMARK    5  A    between atoms: N_8  and  C_9
REMARK    6  A    between atoms: C_14  and  C_15
REMARK                            x       y       z     vdW  Elec       q    Type
REMARK                         _______ _______ _______ _____ _____    ______ ____
ROOT
ATOM      1  C   UNL     1       3.061   3.695  19.244  0.00  0.00    +0.000 A 
ATOM      2  C   UNL     1       2.055   3.101  20.019  0.00  0.00    +0.000 A 
ATOM      3  C   UNL     1       1.128   3.881  20.717  0.00  0.00    +0.000 A 
ATOM      4  C   UNL     1       1.179   5.273  20.650  0.00  0.00    +0.000 A 
ATOM      5  C   UNL     1       2.157   5.899  19.879  0.00  0.00    +0.000 A 
ATOM      6  C   UNL     1       3.089   5.103  19.188  0.00  0.00    +0.000 A 
ENDROOT
BRANCH   5   7
ATOM      7  C   UNL     1       2.288   7.354  19.790  0.00  0.00    +0.000 C 
ATOM      8  C   UNL     1       1.652   8.224  18.977  0.00  0.00    +0.000 C 
ATOM      9  C   UNL     1       2.181   8.999  17.718  0.00  0.00    +0.000 C 
ATOM     10  C   UNL     1       1.673  10.234  18.394  0.00  0.00    +0.000 A 
ATOM     11  C   UNL     1       1.714  11.606  18.450  0.00  0.00    +0.000 A 
ATOM     12  C   UNL     1       1.135  12.220  19.572  0.00  0.00    +0.000 A 
ATOM     13  C   UNL     1       0.562  11.451  20.611  0.00  0.00    +0.000 A 
ATOM     14  C   UNL     1       0.587  10.058  20.559  0.00  0.00    +0.000 A 
ATOM     15  C   UNL     1       1.113   9.522  19.417  0.00  0.00    +0.000 A 
ENDBRANCH   5   7
BRANCH   1  17
ATOM     16  C   UNL     1       3.648   1.514  18.013  0.00  0.00    +0.000 C 
ATOM     17  C   UNL     1       4.129   2.892  18.492  0.00  0.00    +0.000 C 
BRANCH  17  18
ATOM     18  S   UNL     1       4.735   3.855  17.044  0.00  0.00    +0.000 S 
BRANCH  18  19
ATOM     19  C   UNL     1       6.048   4.748  17.724  0.00  0.00    +0.000 A 
ATOM     20  N   UNL     1       7.002   4.303  18.511  0.00  0.00    +0.000 NA
ATOM     21  N   UNL     1       7.859   5.354  18.768  0.00  0.00    +0.000 NA
ATOM     22  C   UNL     1       7.391   6.410  18.142  0.00  0.00    +0.000 A 
ATOM     23  N   UNL     1       6.247   6.078  17.480  0.00  0.00    +0.000 N 
ATOM     24  C   UNL     1       5.458   6.960  16.667  0.00  0.00    +0.000 C 
ENDBRANCH  18  19
ENDBRANCH  17  18
ENDBRANCH   1  17
TORSDOF 4
ENDMDL
MODEL 4
REMARK VINA RESULT:      -8.0      2.230      3.722
REMARK  Name = 
REMARK  6 active torsions:
REMARK  status: ('A' for Active; 'I' for Inactive)
REMARK    1  A    between atoms: C_1  and  C_2
REMARK    2  A    between atoms: C_2  and  S_3
REMARK    3  A    between atoms: C_2  and  C_10
REMARK    4  A    between atoms: S_3  and  C_4
REMARK    5  A    between atoms: N_8  and  C_9
REMARK    6  A    between atoms: C_14  and  C_15
REMARK                            x       y       z     vdW  Elec       q    Type
REMARK                         _______ _______ _______ _____ _____    ______ ____
ROOT
ATOM      1  C   UNL     1       4.532   3.718  16.735  0.00  0.00    +0.000 A 
ATOM      2  C   UNL     1       4.068   2.430  17.042  0.00  0.00    +0.000 A 
ATOM      3  C   UNL     1       2.889   2.244  17.769  0.00  0.00    +0.000 A 
ATOM      4  C   UNL     1       2.140   3.338  18.199  0.00  0.00    +0.000 A 
ATOM      5  C   UNL     1       2.562   4.633  17.902  0.00  0.00    +0.000 A 
ATOM      6  C   UNL     1       3.755   4.808  17.177  0.00  0.00    +0.000 A 
ENDROOT
BRANCH   5   7
ATOM      7  C   UNL     1       1.843   5.827  18.349  0.00  0.00    +0.000 C 
ATOM      8  C   UNL     1       2.216   6.767  19.242  0.00  0.00    +0.000 C 
ATOM      9  C   UNL     1       1.720   7.016  20.711  0.00  0.00    +0.000 C 
ATOM     10  C   UNL     1       1.470   8.427  20.278  0.00  0.00    +0.000 A 
ATOM     11  C   UNL     1       0.832   9.612  20.553  0.00  0.00    +0.000 A 
ATOM     12  C   UNL     1       0.808  10.578  19.535  0.00  0.00    +0.000 A 
ATOM     13  C   UNL     1       1.392  10.325  18.273  0.00  0.00    +0.000 A 
ATOM     14  C   UNL     1       1.980   9.091  17.999  0.00  0.00    +0.000 A 
ATOM     15  C   UNL     1       2.023   8.215  19.047  0.00  0.00    +0.000 A 
ENDBRANCH   5   7
BRANCH   1  17
ATOM     16  C   UNL     1       5.774   3.637  14.484  0.00  0.00    +0.000 C 
ATOM     17  C   UNL     1       5.839   3.984  15.979  0.00  0.00    +0.000 C 
BRANCH  17  18
ATOM     18  S   UNL     1       6.324   5.751  16.166  0.00  0.00    +0.000 S 
BRANCH  18  19
ATOM     19  C   UNL     1       7.150   5.743  17.682  0.00  0.00    +0.000 A 
ATOM     20  N   UNL     1       7.335   4.725  18.493  0.00  0.00    +0.000 NA
ATOM     21  N   UNL     1       8.088   5.171  19.561  0.00  0.00    +0.000 NA
ATOM     22  C   UNL     1       8.325   6.450  19.375  0.00  0.00    +0.000 A 
ATOM     23  N   UNL     1       7.745   6.855  18.209  0.00  0.00    +0.000 N 
ATOM     24  C   UNL     1       7.802   8.179  17.657  0.00  0.00    +0.000 C 
ENDBRANCH  18  19
ENDBRANCH  17  18
ENDBRANCH   1  17
TORSDOF 4
ENDMDL
MODEL 5
REMARK VINA RESULT:      -8.0      5.548      7.463
REMARK  Name = 
REMARK  6 active torsions:
REMARK  status: ('A' for Active; 'I' for Inactive)
REMARK    1  A    between atoms: C_1  and  C_2
REMARK    2  A    between atoms: C_2  and  S_3
REMARK    3  A    between atoms: C_2  and  C_10
REMARK    4  A    between atoms: S_3  and  C_4
REMARK    5  A    between atoms: N_8  and  C_9
REMARK    6  A    between atoms: C_14  and  C_15
REMARK                            x       y       z     vdW  Elec       q    Type
REMARK                         _______ _______ _______ _____ _____    ______ ____
ROOT
ATOM      1  C   UNL     1       6.676   6.199  17.169  0.00  0.00    +0.000 A 
ATOM      2  C   UNL     1       7.208   5.288  18.093  0.00  0.00    +0.000 A 
ATOM      3  C   UNL     1       8.111   5.704  19.077  0.00  0.00    +0.000 A 
ATOM      4  C   UNL     1       8.496   7.041  19.167  0.00  0.00    +0.000 A 
ATOM      5  C   UNL     1       7.978   7.978  18.274  0.00  0.00    +0.000 A 
ATOM      6  C   UNL     1       7.077   7.545  17.283  0.00  0.00    +0.000 A 
ENDROOT
BRANCH   5   7
ATOM      7  C   UNL     1       8.363   9.391  18.291  0.00  0.00    +0.000 C 
ATOM      8  C   UNL     1       9.239  10.030  19.093  0.00  0.00    +0.000 C 
ATOM      9  C   UNL     1       8.978  11.015  20.288  0.00  0.00    +0.000 C 
ATOM     10  C   UNL     1       9.907  11.954  19.582  0.00  0.00    +0.000 A 
ATOM     11  C   UNL     1      10.352  13.247  19.462  0.00  0.00    +0.000 A 
ATOM     12  C   UNL     1      11.143  13.552  18.342  0.00  0.00    +0.000 A 
ATOM     13  C   UNL     1      11.441  12.571  17.369  0.00  0.00    +0.000 A 
ATOM     14  C   UNL     1      10.927  11.280  17.483  0.00  0.00    +0.000 A 
ATOM     15  C   UNL     1      10.213  11.031  18.621  0.00  0.00    +0.000 A 
ENDBRANCH   5   7
BRANCH   1  17
ATOM     16  C   UNL     1       6.421   5.235  14.798  0.00  0.00    +0.000 C 
ATOM     17  C   UNL     1       5.718   5.793  16.044  0.00  0.00    +0.000 C 
BRANCH  17  18
ATOM     18  S   UNL     1       4.514   4.545  16.665  0.00  0.00    +0.000 S 
BRANCH  18  19
ATOM     19  C   UNL     1       3.686   5.421  17.901  0.00  0.00    +0.000 A 
ATOM     20  N   UNL     1       3.214   6.647  17.842  0.00  0.00    +0.000 NA
ATOM     21  N   UNL     1       2.590   6.915  19.043  0.00  0.00    +0.000 NA
ATOM     22  C   UNL     1       2.715   5.851  19.803  0.00  0.00    +0.000 A 
ATOM     23  N   UNL     1       3.407   4.888  19.129  0.00  0.00    +0.000 N 
ATOM     24  C   UNL     1       3.725   3.579  19.623  0.00  0.00    +0.000 C 
ENDBRANCH  18  19
ENDBRANCH  17  18
ENDBRANCH   1  17
TORSDOF 4
ENDMDL
MODEL 6
REMARK VINA RESULT:      -7.9      1.160      1.768
REMARK  Name = 
REMARK  6 active torsions:
REMARK  status: ('A' for Active; 'I' for Inactive)
REMARK    1  A    between atoms: C_1  and  C_2
REMARK    2  A    between atoms: C_2  and  S_3
REMARK    3  A    between atoms: C_2  and  C_10
REMARK    4  A    between atoms: S_3  and  C_4
REMARK    5  A    between atoms: N_8  and  C_9
REMARK    6  A    between atoms: C_14  and  C_15
REMARK                            x       y       z     vdW  Elec       q    Type
REMARK                         _______ _______ _______ _____ _____    ______ ____
ROOT
ATOM      1  C   UNL     1       4.979   4.637  18.098  0.00  0.00    +0.000 A 
ATOM      2  C   UNL     1       4.941   3.521  18.947  0.00  0.00    +0.000 A 
ATOM      3  C   UNL     1       3.932   3.378  19.905  0.00  0.00    +0.000 A 
ATOM      4  C   UNL     1       2.931   4.341  20.030  0.00  0.00    +0.000 A 
ATOM      5  C   UNL     1       2.928   5.457  19.195  0.00  0.00    +0.000 A 
ATOM      6  C   UNL     1       3.954   5.593  18.241  0.00  0.00    +0.000 A 
ENDROOT
BRANCH   5   7
ATOM      7  C   UNL     1       1.928   6.522  19.293  0.00  0.00    +0.000 C 
ATOM      8  C   UNL     1       1.954   7.657  20.021  0.00  0.00    +0.000 C 
ATOM      9  C   UNL     1       1.172   8.033  21.330  0.00  0.00    +0.000 C 
ATOM     10  C   UNL     1       0.737   9.262  20.594  0.00  0.00    +0.000 A 
ATOM     11  C   UNL     1      -0.153  10.306  20.537  0.00  0.00    +0.000 A 
ATOM     12  C   UNL     1      -0.184  11.059  19.352  0.00  0.00    +0.000 A 
ATOM     13  C   UNL     1       0.648  10.732  18.257  0.00  0.00    +0.000 A 
ATOM     14  C   UNL     1       1.499   9.630  18.317  0.00  0.00    +0.000 A 
ATOM     15  C   UNL     1       1.526   8.973  19.516  0.00  0.00    +0.000 A 
ENDBRANCH   5   7
BRANCH   1  17
ATOM     16  C   UNL     1       7.500   4.612  17.593  0.00  0.00    +0.000 C 
ATOM     17  C   UNL     1       6.083   4.867  17.060  0.00  0.00    +0.000 C 
BRANCH  17  18
ATOM     18  S   UNL     1       5.793   3.801  15.587  0.00  0.00    +0.000 S 
BRANCH  18  19
ATOM     19  C   UNL     1       6.785   4.553  14.391  0.00  0.00    +0.000 A 
ATOM     20  N   UNL     1       7.707   5.473  14.572  0.00  0.00    +0.000 NA
ATOM     21  N   UNL     1       8.276   5.744  13.344  0.00  0.00    +0.000 NA
ATOM     22  C   UNL     1       7.673   4.993  12.451  0.00  0.00    +0.000 A 
ATOM     23  N   UNL     1       6.720   4.234  13.063  0.00  0.00    +0.000 N 
ATOM     24  C   UNL     1       5.866   3.275  12.421  0.00  0.00    +0.000 C 
ENDBRANCH  18  19
ENDBRANCH  17  18
ENDBRANCH   1  17
TORSDOF 4
ENDMDL
MODEL 7
REMARK VINA RESULT:      -7.9      6.485     10.266
REMARK  Name = 
REMARK  6 active torsions:
REMARK  status: ('A' for Active; 'I' for Inactive)
REMARK    1  A    between atoms: C_1  and  C_2
REMARK    2  A    between atoms: C_2  and  S_3
REMARK    3  A    between atoms: C_2  and  C_10
REMARK    4  A    between atoms: S_3  and  C_4
REMARK    5  A    between atoms: N_8  and  C_9
REMARK    6  A    between atoms: C_14  and  C_15
REMARK                            x       y       z     vdW  Elec       q    Type
REMARK                         _______ _______ _______ _____ _____    ______ ____
ROOT
ATOM      1  C   UNL     1       0.338  10.665  20.273  0.00  0.00    +0.000 A 
ATOM      2  C   UNL     1       0.837  11.884  19.793  0.00  0.00    +0.000 A 
ATOM      3  C   UNL     1       1.683  11.928  18.681  0.00  0.00    +0.000 A 
ATOM      4  C   UNL     1       2.044  10.757  18.016  0.00  0.00    +0.000 A 
ATOM      5  C   UNL     1       1.557   9.527  18.456  0.00  0.00    +0.000 A 
ATOM      6  C   UNL     1       0.713   9.495  19.582  0.00  0.00    +0.000 A 
ENDROOT
BRANCH   5   7
ATOM      7  C   UNL     1       1.920   8.256  17.826  0.00  0.00    +0.000 C 
ATOM      8  C   UNL     1       2.897   7.385  18.155  0.00  0.00    +0.000 C 
ATOM      9  C   UNL     1       4.269   7.096  17.449  0.00  0.00    +0.000 C 
ATOM     10  C   UNL     1       3.852   5.658  17.457  0.00  0.00    +0.000 A 
ATOM     11  C   UNL     1       4.058   4.404  16.935  0.00  0.00    +0.000 A 
ATOM     12  C   UNL     1       3.086   3.428  17.207  0.00  0.00    +0.000 A 
ATOM     13  C   UNL     1       1.932   3.737  17.963  0.00  0.00    +0.000 A 
ATOM     14  C   UNL     1       1.716   5.033  18.430  0.00  0.00    +0.000 A 
ATOM     15  C   UNL     1       2.724   5.922  18.182  0.00  0.00    +0.000 A 
ENDBRANCH   5   7
BRANCH   1  17
ATOM     16  C   UNL     1      -0.064   9.526  22.544  0.00  0.00    +0.000 C 
ATOM     17  C   UNL     1      -0.557  10.551  21.512  0.00  0.00    +0.000 C 
BRANCH  17  18
ATOM     18  S   UNL     1      -0.715  12.196  22.325  0.00  0.00    +0.000 S 
BRANCH  18  19
ATOM     19  C   UNL     1      -2.419  12.314  22.579  0.00  0.00    +0.000 A 
ATOM     20  N   UNL     1      -3.109  11.901  23.619  0.00  0.00    +0.000 NA
ATOM     21  N   UNL     1      -4.429  12.247  23.412  0.00  0.00    +0.000 NA
ATOM     22  C   UNL     1      -4.505  12.845  22.244  0.00  0.00    +0.000 A 
ATOM     23  N   UNL     1      -3.265  12.902  21.680  0.00  0.00    +0.000 N 
ATOM     24  C   UNL     1      -2.942  13.499  20.415  0.00  0.00    +0.000 C 
ENDBRANCH  18  19
ENDBRANCH  17  18
ENDBRANCH   1  17
TORSDOF 4
ENDMDL
MODEL 8
REMARK VINA RESULT:      -7.9      1.979      2.723
REMARK  Name = 
REMARK  6 active torsions:
REMARK  status: ('A' for Active; 'I' for Inactive)
REMARK    1  A    between atoms: C_1  and  C_2
REMARK    2  A    between atoms: C_2  and  S_3
REMARK    3  A    between atoms: C_2  and  C_10
REMARK    4  A    between atoms: S_3  and  C_4
REMARK    5  A    between atoms: N_8  and  C_9
REMARK    6  A    between atoms: C_14  and  C_15
REMARK                            x       y       z     vdW  Elec       q    Type
REMARK                         _______ _______ _______ _____ _____    ______ ____
ROOT
ATOM      1  C   UNL     1       3.284   4.046  19.439  0.00  0.00    +0.000 A 
ATOM      2  C   UNL     1       2.278   3.101  19.686  0.00  0.00    +0.000 A 
ATOM      3  C   UNL     1       1.083   3.467  20.313  0.00  0.00    +0.000 A 
ATOM      4  C   UNL     1       0.860   4.789  20.700  0.00  0.00    +0.000 A 
ATOM      5  C   UNL     1       1.832   5.759  20.459  0.00  0.00    +0.000 A 
ATOM      6  C   UNL     1       3.033   5.376  19.835  0.00  0.00    +0.000 A 
ENDROOT
BRANCH   5   7
ATOM      7  C   UNL     1       1.678   7.157  20.866  0.00  0.00    +0.000 C 
ATOM      8  C   UNL     1       0.842   8.101  20.388  0.00  0.00    +0.000 C 
ATOM      9  C   UNL     1       1.139   9.340  19.470  0.00  0.00    +0.000 C 
ATOM     10  C   UNL     1       0.446  10.153  20.518  0.00  0.00    +0.000 A 
ATOM     11  C   UNL     1       0.228  11.408  21.033  0.00  0.00    +0.000 A 
ATOM     12  C   UNL     1      -0.392  11.485  22.291  0.00  0.00    +0.000 A 
ATOM     13  C   UNL     1      -0.746  10.317  23.004  0.00  0.00    +0.000 A 
ATOM     14  C   UNL     1      -0.459   9.056  22.486  0.00  0.00    +0.000 A 
ATOM     15  C   UNL     1       0.091   9.046  21.235  0.00  0.00    +0.000 A 
ENDBRANCH   5   7
BRANCH   1  17
ATOM     16  C   UNL     1       4.517   3.229  17.336  0.00  0.00    +0.000 C 
ATOM     17  C   UNL     1       4.629   3.695  18.795  0.00  0.00    +0.000 C 
BRANCH  17  18
ATOM     18  S   UNL     1       5.763   5.144  18.879  0.00  0.00    +0.000 S 
BRANCH  18  19
ATOM     19  C   UNL     1       6.493   5.127  17.314  0.00  0.00    +0.000 A 
ATOM     20  N   UNL     1       7.545   4.443  16.923  0.00  0.00    +0.000 NA
ATOM     21  N   UNL     1       7.739   4.702  15.581  0.00  0.00    +0.000 NA
ATOM     22  C   UNL     1       6.809   5.548  15.200  0.00  0.00    +0.000 A 
ATOM     23  N   UNL     1       6.007   5.851  16.261  0.00  0.00    +0.000 N 
ATOM     24  C   UNL     1       4.869   6.726  16.233  0.00  0.00    +0.000 C 
ENDBRANCH  18  19
ENDBRANCH  17  18
ENDBRANCH   1  17
TORSDOF 4
ENDMDL
MODEL 9
REMARK VINA RESULT:      -7.9      6.402     10.350
REMARK  Name = 
REMARK  6 active torsions:
REMARK  status: ('A' for Active; 'I' for Inactive)
REMARK    1  A    between atoms: C_1  and  C_2
REMARK    2  A    between atoms: C_2  and  S_3
REMARK    3  A    between atoms: C_2  and  C_10
REMARK    4  A    between atoms: S_3  and  C_4
REMARK    5  A    between atoms: N_8  and  C_9
REMARK    6  A    between atoms: C_14  and  C_15
REMARK                            x       y       z     vdW  Elec       q    Type
REMARK                         _______ _______ _______ _____ _____    ______ ____
ROOT
ATOM      1  C   UNL     1      -0.108   9.946  20.665  0.00  0.00    +0.000 A 
ATOM      2  C   UNL     1      -0.446  10.746  19.563  0.00  0.00    +0.000 A 
ATOM      3  C   UNL     1       0.133  10.527  18.309  0.00  0.00    +0.000 A 
ATOM      4  C   UNL     1       1.056   9.499  18.123  0.00  0.00    +0.000 A 
ATOM      5  C   UNL     1       1.407   8.675  19.191  0.00  0.00    +0.000 A 
ATOM      6  C   UNL     1       0.824   8.910  20.450  0.00  0.00    +0.000 A 
ENDROOT
BRANCH   5   7
ATOM      7  C   UNL     1       2.392   7.598  19.075  0.00  0.00    +0.000 C 
ATOM      8  C   UNL     1       2.531   6.665  18.110  0.00  0.00    +0.000 C 
ATOM      9  C   UNL     1       2.189   5.133  18.133  0.00  0.00    +0.000 C 
ATOM     10  C   UNL     1       3.595   4.917  17.666  0.00  0.00    +0.000 A 
ATOM     11  C   UNL     1       4.627   4.023  17.518  0.00  0.00    +0.000 A 
ATOM     12  C   UNL     1       5.891   4.548  17.203  0.00  0.00    +0.000 A 
ATOM     13  C   UNL     1       6.091   5.941  17.073  0.00  0.00    +0.000 A 
ATOM     14  C   UNL     1       5.041   6.832  17.288  0.00  0.00    +0.000 A 
ATOM     15  C   UNL     1       3.825   6.258  17.535  0.00  0.00    +0.000 A 
ENDBRANCH   5   7
BRANCH   1  17
ATOM     16  C   UNL     1       0.125   9.473  23.181  0.00  0.00    +0.000 C 
ATOM     17  C   UNL     1      -0.677  10.165  22.070  0.00  0.00    +0.000 C 
BRANCH  17  18
ATOM     18  S   UNL     1      -0.776  11.968  22.433  0.00  0.00    +0.000 S 
BRANCH  18  19
ATOM     19  C   UNL     1      -2.471  12.200  22.669  0.00  0.00    +0.000 A 
ATOM     20  N   UNL     1      -3.192  11.864  23.715  0.00  0.00    +0.000 NA
ATOM     21  N   UNL     1      -4.487  12.283  23.486  0.00  0.00    +0.000 NA
ATOM     22  C   UNL     1      -4.517  12.849  22.300  0.00  0.00    +0.000 A 
ATOM     23  N   UNL     1      -3.273  12.810  21.744  0.00  0.00    +0.000 N 
ATOM     24  C   UNL     1      -2.905  13.347  20.465  0.00  0.00    +0.000 C 
ENDBRANCH  18  19
ENDBRANCH  17  18
ENDBRANCH   1  17
TORSDOF 4
ENDMDL
