MODEL 1
REMARK VINA RESULT:      -8.7      0.000      0.000
REMARK  Name = 
REMARK  6 active torsions:
REMARK  status: ('A' for Active; 'I' for Inactive)
REMARK    1  A    between atoms: C_1  and  C_2
REMARK    2  A    between atoms: N_4  and  C_5
REMARK    3  A    between atoms: C_9  and  C_10
REMARK    4  A    between atoms: N_12  and  C_13
REMARK    5  A    between atoms: C_18  and  N_19
REMARK    6  A    between atoms: C_20  and  C_22
REMARK                            x       y       z     vdW  Elec       q    Type
REMARK                         _______ _______ _______ _____ _____    ______ ____
ROOT
ATOM      1  C   UNL     1       1.777   7.564  20.315  0.00  0.00    +0.000 C 
ATOM      2  O   UNL     1       2.315   7.709  19.222  0.00  0.00    +0.000 OA
ATOM      3  N   UNL     1       1.752   6.398  21.065  0.00  0.00    +0.000 N 
ATOM      4  H   UNL     1       1.117   6.346  21.853  0.00  0.00    +0.000 HD
ENDROOT
BRANCH   1  13
ATOM      5  C   UNL     1      -1.342  11.911  18.310  0.00  0.00    +0.000 C 
ATOM      6  C   UNL     1      -0.991  11.749  19.741  0.00  0.00    +0.000 A 
ATOM      7  N   UNL     1      -1.358  12.660  20.653  0.00  0.00    +0.000 NA
ATOM      8  N   UNL     1      -0.851  12.179  21.812  0.00  0.00    +0.000 N 
ATOM      9  C   UNL     1      -1.028  12.914  23.039  0.00  0.00    +0.000 C 
ATOM     10  C   UNL     1      -0.182  10.989  21.674  0.00  0.00    +0.000 A 
ATOM     11  N   UNL     1       0.435  10.264  22.636  0.00  0.00    +0.000 NA
ATOM     12  C   UNL     1       1.039   9.142  22.149  0.00  0.00    +0.000 A 
ATOM     13  C   UNL     1       1.026   8.730  20.822  0.00  0.00    +0.000 A 
ATOM     14  C   UNL     1       0.364   9.518  19.874  0.00  0.00    +0.000 A 
ATOM     15  C   UNL     1      -0.258  10.687  20.322  0.00  0.00    +0.000 A 
ENDBRANCH   1  13
BRANCH   3  16
ATOM     16  C   UNL     1       2.381   5.183  20.679  0.00  0.00    +0.000 A 
ATOM     17  C   UNL     1       1.990   3.933  21.180  0.00  0.00    +0.000 A 
ATOM     18  C   UNL     1       2.620   2.756  20.770  0.00  0.00    +0.000 A 
ATOM     19  C   UNL     1       3.645   2.823  19.846  0.00  0.00    +0.000 A 
ATOM     20  F   UNL     1       4.266   1.695  19.467  0.00  0.00    +0.000 F 
ATOM     21  C   UNL     1       4.093   4.053  19.366  0.00  0.00    +0.000 A 
ATOM     22  C   UNL     1       3.444   5.235  19.762  0.00  0.00    +0.000 A 
BRANCH  21  23
ATOM     23  N   UNL     1       5.214   4.034  18.512  0.00  0.00    +0.000 N 
ATOM     24  C   UNL     1       5.109   4.045  17.139  0.00  0.00    +0.000 C 
ATOM     25  O   UNL     1       4.065   4.018  16.502  0.00  0.00    +0.000 OA
ATOM     26  H   UNL     1       6.065   4.426  18.898  0.00  0.00    +0.000 HD
BRANCH  24  27
ATOM     27  C   UNL     1       6.395   4.158  16.393  0.00  0.00    +0.000 C 
ATOM     28  C   UNL     1       6.923   5.553  16.140  0.00  0.00    +0.000 C 
ATOM     29  C   UNL     1       6.578   4.669  14.980  0.00  0.00    +0.000 C 
ENDBRANCH  24  27
ENDBRANCH  21  23
ENDBRANCH   3  16
TORSDOF 4
ENDMDL
MODEL 2
REMARK VINA RESULT:      -8.5      5.776      8.064
REMARK  Name = 
REMARK  6 active torsions:
REMARK  status: ('A' for Active; 'I' for Inactive)
REMARK    1  A    between atoms: C_1  and  C_2
REMARK    2  A    between atoms: N_4  and  C_5
REMARK    3  A    between atoms: C_9  and  C_10
REMARK    4  A    between atoms: N_12  and  C_13
REMARK    5  A    between atoms: C_18  and  N_19
REMARK    6  A    between atoms: C_20  and  C_22
REMARK                            x       y       z     vdW  Elec       q    Type
REMARK                         _______ _______ _______ _____ _____    ______ ____
ROOT
ATOM      1  C   UNL     1       8.004   8.548  18.008  0.00  0.00    +0.000 C 
ATOM      2  O   UNL     1       8.603   7.819  18.793  0.00  0.00    +0.000 OA
ATOM      3  N   UNL     1       7.002   8.158  17.133  0.00  0.00    +0.000 N 
ATOM      4  H   UNL     1       6.721   8.803  16.404  0.00  0.00    +0.000 HD
ENDROOT
BRANCH   1  13
ATOM      5  C   UNL     1      12.333  11.760  19.902  0.00  0.00    +0.000 C 
ATOM      6  C   UNL     1      11.168  12.309  19.169  0.00  0.00    +0.000 A 
ATOM      7  N   UNL     1      11.044  13.626  18.948  0.00  0.00    +0.000 NA
ATOM      8  N   UNL     1       9.871  13.733  18.281  0.00  0.00    +0.000 N 
ATOM      9  C   UNL     1       9.382  15.028  17.883  0.00  0.00    +0.000 C 
ATOM     10  C   UNL     1       9.247  12.531  18.060  0.00  0.00    +0.000 A 
ATOM     11  N   UNL     1       8.068  12.308  17.431  0.00  0.00    +0.000 NA
ATOM     12  C   UNL     1       7.716  10.991  17.417  0.00  0.00    +0.000 A 
ATOM     13  C   UNL     1       8.466   9.949  17.952  0.00  0.00    +0.000 A 
ATOM     14  C   UNL     1       9.680  10.242  18.583  0.00  0.00    +0.000 A 
ATOM     15  C   UNL     1      10.077  11.581  18.636  0.00  0.00    +0.000 A 
ENDBRANCH   1  13
BRANCH   3  16
ATOM     16  C   UNL     1       6.494   6.833  17.035  0.00  0.00    +0.000 A 
ATOM     17  C   UNL     1       7.228   5.778  16.474  0.00  0.00    +0.000 A 
ATOM     18  C   UNL     1       6.706   4.486  16.405  0.00  0.00    +0.000 A 
ATOM     19  C   UNL     1       5.442   4.238  16.906  0.00  0.00    +0.000 A 
ATOM     20  F   UNL     1       4.930   3.000  16.821  0.00  0.00    +0.000 F 
ATOM     21  C   UNL     1       4.666   5.273  17.424  0.00  0.00    +0.000 A 
ATOM     22  C   UNL     1       5.200   6.569  17.513  0.00  0.00    +0.000 A 
BRANCH  21  23
ATOM     23  N   UNL     1       3.349   4.950  17.811  0.00  0.00    +0.000 N 
ATOM     24  C   UNL     1       3.020   4.556  19.089  0.00  0.00    +0.000 C 
ATOM     25  O   UNL     1       3.808   4.387  20.009  0.00  0.00    +0.000 OA
ATOM     26  H   UNL     1       2.613   5.401  17.280  0.00  0.00    +0.000 HD
BRANCH  24  27
ATOM     27  C   UNL     1       1.564   4.383  19.357  0.00  0.00    +0.000 C 
ATOM     28  C   UNL     1       1.180   3.486  20.514  0.00  0.00    +0.000 C 
ATOM     29  C   UNL     1       0.746   3.131  19.124  0.00  0.00    +0.000 C 
ENDBRANCH  24  27
ENDBRANCH  21  23
ENDBRANCH   3  16
TORSDOF 4
ENDMDL
MODEL 3
REMARK VINA RESULT:      -8.3      1.160      1.903
REMARK  Name = 
REMARK  6 active torsions:
REMARK  status: ('A' for Active; 'I' for Inactive)
REMARK    1  A    between atoms: C_1  and  C_2
REMARK    2  A    between atoms: N_4  and  C_5
REMARK    3  A    between atoms: C_9  and  C_10
REMARK    4  A    between atoms: N_12  and  C_13
REMARK    5  A    between atoms: C_18  and  N_19
REMARK    6  A    between atoms: C_20  and  C_22
REMARK                            x       y       z     vdW  Elec       q    Type
REMARK                         _______ _______ _______ _____ _____    ______ ____
ROOT
ATOM      1  C   UNL     1       1.944   7.975  19.096  0.00  0.00    +0.000 C 
ATOM      2  O   UNL     1       2.092   7.727  17.904  0.00  0.00    +0.000 OA
ATOM      3  N   UNL     1       2.205   7.111  20.149  0.00  0.00    +0.000 N 
ATOM      4  H   UNL     1       1.863   7.358  21.070  0.00  0.00    +0.000 HD
ENDROOT
BRANCH   1  13
ATOM      5  C   UNL     1      -1.066  10.495  23.247  0.00  0.00    +0.000 C 
ATOM      6  C   UNL     1      -0.717  11.163  21.970  0.00  0.00    +0.000 A 
ATOM      7  N   UNL     1      -1.140  12.405  21.698  0.00  0.00    +0.000 NA
ATOM      8  N   UNL     1      -0.644  12.652  20.463  0.00  0.00    +0.000 N 
ATOM      9  C   UNL     1      -0.913  13.910  19.814  0.00  0.00    +0.000 C 
ATOM     10  C   UNL     1       0.088  11.615  19.942  0.00  0.00    +0.000 A 
ATOM     11  N   UNL     1       0.705  11.554  18.737  0.00  0.00    +0.000 NA
ATOM     12  C   UNL     1       1.318  10.356  18.517  0.00  0.00    +0.000 A 
ATOM     13  C   UNL     1       1.359   9.293  19.411  0.00  0.00    +0.000 A 
ATOM     14  C   UNL     1       0.709   9.419  20.644  0.00  0.00    +0.000 A 
ATOM     15  C   UNL     1       0.053  10.624  20.911  0.00  0.00    +0.000 A 
ENDBRANCH   1  13
BRANCH   3  16
ATOM     16  C   UNL     1       2.717   5.793  19.997  0.00  0.00    +0.000 A 
ATOM     17  C   UNL     1       2.298   4.719  20.796  0.00  0.00    +0.000 A 
ATOM     18  C   UNL     1       2.811   3.434  20.612  0.00  0.00    +0.000 A 
ATOM     19  C   UNL     1       3.744   3.212  19.617  0.00  0.00    +0.000 A 
ATOM     20  F   UNL     1       4.253   1.981  19.453  0.00  0.00    +0.000 F 
ATOM     21  C   UNL     1       4.219   4.267  18.839  0.00  0.00    +0.000 A 
ATOM     22  C   UNL     1       3.687   5.556  19.010  0.00  0.00    +0.000 A 
BRANCH  21  23
ATOM     23  N   UNL     1       5.249   3.969  17.923  0.00  0.00    +0.000 N 
ATOM     24  C   UNL     1       5.042   3.890  16.564  0.00  0.00    +0.000 C 
ATOM     25  O   UNL     1       3.965   4.008  15.998  0.00  0.00    +0.000 OA
ATOM     26  H   UNL     1       6.184   4.224  18.218  0.00  0.00    +0.000 HD
BRANCH  24  27
ATOM     27  C   UNL     1       6.266   3.698  15.734  0.00  0.00    +0.000 C 
ATOM     28  C   UNL     1       6.991   4.947  15.280  0.00  0.00    +0.000 C 
ATOM     29  C   UNL     1       6.416   4.011  14.261  0.00  0.00    +0.000 C 
ENDBRANCH  24  27
ENDBRANCH  21  23
ENDBRANCH   3  16
TORSDOF 4
ENDMDL
MODEL 4
REMARK VINA RESULT:      -8.3      3.724      9.478
REMARK  Name = 
REMARK  6 active torsions:
REMARK  status: ('A' for Active; 'I' for Inactive)
REMARK    1  A    between atoms: C_1  and  C_2
REMARK    2  A    between atoms: N_4  and  C_5
REMARK    3  A    between atoms: C_9  and  C_10
REMARK    4  A    between atoms: N_12  and  C_13
REMARK    5  A    between atoms: C_18  and  N_19
REMARK    6  A    between atoms: C_20  and  C_22
REMARK                            x       y       z     vdW  Elec       q    Type
REMARK                         _______ _______ _______ _____ _____    ______ ____
ROOT
ATOM      1  C   UNL     1       1.833   8.865  18.480  0.00  0.00    +0.000 C 
ATOM      2  O   UNL     1       2.034   9.488  17.442  0.00  0.00    +0.000 OA
ATOM      3  N   UNL     1       1.038   9.278  19.539  0.00  0.00    +0.000 N 
ATOM      4  H   UNL     1       1.103   8.773  20.415  0.00  0.00    +0.000 HD
ENDROOT
BRANCH   1  13
ATOM      5  C   UNL     1       5.472   5.614  15.509  0.00  0.00    +0.000 C 
ATOM      6  C   UNL     1       4.915   5.223  16.825  0.00  0.00    +0.000 A 
ATOM      7  N   UNL     1       5.208   4.037  17.379  0.00  0.00    +0.000 NA
ATOM      8  N   UNL     1       4.514   4.043  18.541  0.00  0.00    +0.000 N 
ATOM      9  C   UNL     1       4.564   2.901  19.418  0.00  0.00    +0.000 C 
ATOM     10  C   UNL     1       3.797   5.194  18.753  0.00  0.00    +0.000 A 
ATOM     11  N   UNL     1       3.006   5.499  19.809  0.00  0.00    +0.000 NA
ATOM     12  C   UNL     1       2.406   6.717  19.687  0.00  0.00    +0.000 A 
ATOM     13  C   UNL     1       2.578   7.599  18.627  0.00  0.00    +0.000 A 
ATOM     14  C   UNL     1       3.415   7.231  17.567  0.00  0.00    +0.000 A 
ATOM     15  C   UNL     1       4.041   5.983  17.640  0.00  0.00    +0.000 A 
ENDBRANCH   1  13
BRANCH   3  16
ATOM     16  C   UNL     1       0.306  10.497  19.564  0.00  0.00    +0.000 A 
ATOM     17  C   UNL     1       0.878  11.718  19.952  0.00  0.00    +0.000 A 
ATOM     18  C   UNL     1       0.135  12.900  19.952  0.00  0.00    +0.000 A 
ATOM     19  C   UNL     1      -1.189  12.869  19.557  0.00  0.00    +0.000 A 
ATOM     20  F   UNL     1      -1.910  14.001  19.577  0.00  0.00    +0.000 F 
ATOM     21  C   UNL     1      -1.802  11.664  19.215  0.00  0.00    +0.000 A 
ATOM     22  C   UNL     1      -1.048  10.479  19.193  0.00  0.00    +0.000 A 
BRANCH  21  23
ATOM     23  N   UNL     1      -3.182  11.710  18.930  0.00  0.00    +0.000 N 
ATOM     24  C   UNL     1      -3.698  11.438  17.683  0.00  0.00    +0.000 C 
ATOM     25  O   UNL     1      -3.046  11.184  16.680  0.00  0.00    +0.000 OA
ATOM     26  H   UNL     1      -3.797  11.534  19.716  0.00  0.00    +0.000 HD
BRANCH  24  27
ATOM     27  C   UNL     1      -5.186  11.402  17.593  0.00  0.00    +0.000 C 
ATOM     28  C   UNL     1      -5.879  12.673  17.151  0.00  0.00    +0.000 C 
ATOM     29  C   UNL     1      -6.163  12.106  18.510  0.00  0.00    +0.000 C 
ENDBRANCH  24  27
ENDBRANCH  21  23
ENDBRANCH   3  16
TORSDOF 4
ENDMDL
MODEL 5
REMARK VINA RESULT:      -8.3      3.792      9.612
REMARK  Name = 
REMARK  6 active torsions:
REMARK  status: ('A' for Active; 'I' for Inactive)
REMARK    1  A    between atoms: C_1  and  C_2
REMARK    2  A    between atoms: N_4  and  C_5
REMARK    3  A    between atoms: C_9  and  C_10
REMARK    4  A    between atoms: N_12  and  C_13
REMARK    5  A    between atoms: C_18  and  N_19
REMARK    6  A    between atoms: C_20  and  C_22
REMARK                            x       y       z     vdW  Elec       q    Type
REMARK                         _______ _______ _______ _____ _____    ______ ____
ROOT
ATOM      1  C   UNL     1       1.973   8.287  18.734  0.00  0.00    +0.000 C 
ATOM      2  O   UNL     1       1.746   8.131  19.930  0.00  0.00    +0.000 OA
ATOM      3  N   UNL     1       1.501   9.322  17.941  0.00  0.00    +0.000 N 
ATOM      4  H   UNL     1       1.594   9.239  16.936  0.00  0.00    +0.000 HD
ENDROOT
BRANCH   1  13
ATOM      5  C   UNL     1       2.041   2.587  18.345  0.00  0.00    +0.000 C 
ATOM      6  C   UNL     1       3.080   3.459  17.746  0.00  0.00    +0.000 A 
ATOM      7  N   UNL     1       4.138   2.941  17.108  0.00  0.00    +0.000 NA
ATOM      8  N   UNL     1       4.850   4.028  16.728  0.00  0.00    +0.000 N 
ATOM      9  C   UNL     1       6.093   3.865  16.017  0.00  0.00    +0.000 C 
ATOM     10  C   UNL     1       4.279   5.221  17.093  0.00  0.00    +0.000 A 
ATOM     11  N   UNL     1       4.746   6.472  16.865  0.00  0.00    +0.000 NA
ATOM     12  C   UNL     1       3.947   7.440  17.398  0.00  0.00    +0.000 A 
ATOM     13  C   UNL     1       2.758   7.219  18.083  0.00  0.00    +0.000 A 
ATOM     14  C   UNL     1       2.323   5.904  18.280  0.00  0.00    +0.000 A 
ATOM     15  C   UNL     1       3.117   4.874  17.765  0.00  0.00    +0.000 A 
ENDBRANCH   1  13
BRANCH   3  16
ATOM     16  C   UNL     1       0.689  10.388  18.416  0.00  0.00    +0.000 A 
ATOM     17  C   UNL     1       1.210  11.485  19.118  0.00  0.00    +0.000 A 
ATOM     18  C   UNL     1       0.388  12.523  19.559  0.00  0.00    +0.000 A 
ATOM     19  C   UNL     1      -0.967  12.474  19.292  0.00  0.00    +0.000 A 
ATOM     20  F   UNL     1      -1.762  13.461  19.733  0.00  0.00    +0.000 F 
ATOM     21  C   UNL     1      -1.526  11.375  18.641  0.00  0.00    +0.000 A 
ATOM     22  C   UNL     1      -0.694  10.341  18.178  0.00  0.00    +0.000 A 
BRANCH  21  23
ATOM     23  N   UNL     1      -2.929  11.359  18.508  0.00  0.00    +0.000 N 
ATOM     24  C   UNL     1      -3.565  11.312  17.287  0.00  0.00    +0.000 C 
ATOM     25  O   UNL     1      -3.015  11.334  16.194  0.00  0.00    +0.000 OA
ATOM     26  H   UNL     1      -3.438  10.968  19.291  0.00  0.00    +0.000 HD
BRANCH  24  27
ATOM     27  C   UNL     1      -5.048  11.166  17.335  0.00  0.00    +0.000 C 
ATOM     28  C   UNL     1      -5.868  12.433  17.219  0.00  0.00    +0.000 C 
ATOM     29  C   UNL     1      -5.961  11.599  18.462  0.00  0.00    +0.000 C 
ENDBRANCH  24  27
ENDBRANCH  21  23
ENDBRANCH   3  16
TORSDOF 4
ENDMDL
MODEL 6
REMARK VINA RESULT:      -8.2      3.625      9.416
REMARK  Name = 
REMARK  6 active torsions:
REMARK  status: ('A' for Active; 'I' for Inactive)
REMARK    1  A    between atoms: C_1  and  C_2
REMARK    2  A    between atoms: N_4  and  C_5
REMARK    3  A    between atoms: C_9  and  C_10
REMARK    4  A    between atoms: N_12  and  C_13
REMARK    5  A    between atoms: C_18  and  N_19
REMARK    6  A    between atoms: C_20  and  C_22
REMARK                            x       y       z     vdW  Elec       q    Type
REMARK                         _______ _______ _______ _____ _____    ______ ____
ROOT
ATOM      1  C   UNL     1       1.795   8.133  19.563  0.00  0.00    +0.000 C 
ATOM      2  O   UNL     1       1.489   8.369  20.728  0.00  0.00    +0.000 OA
ATOM      3  N   UNL     1       1.546   8.951  18.471  0.00  0.00    +0.000 N 
ATOM      4  H   UNL     1       1.670   8.566  17.543  0.00  0.00    +0.000 HD
ENDROOT
BRANCH   1  13
ATOM      5  C   UNL     1       5.228   5.611  15.756  0.00  0.00    +0.000 C 
ATOM      6  C   UNL     1       4.587   4.890  16.881  0.00  0.00    +0.000 A 
ATOM      7  N   UNL     1       4.746   3.569  17.039  0.00  0.00    +0.000 NA
ATOM      8  N   UNL     1       4.011   3.285  18.140  0.00  0.00    +0.000 N 
ATOM      9  C   UNL     1       3.920   1.928  18.618  0.00  0.00    +0.000 C 
ATOM     10  C   UNL     1       3.396   4.379  18.694  0.00  0.00    +0.000 A 
ATOM     11  N   UNL     1       2.596   4.420  19.786  0.00  0.00    +0.000 NA
ATOM     12  C   UNL     1       2.118   5.671  20.045  0.00  0.00    +0.000 A 
ATOM     13  C   UNL     1       2.413   6.815  19.314  0.00  0.00    +0.000 A 
ATOM     14  C   UNL     1       3.252   6.710  18.199  0.00  0.00    +0.000 A 
ATOM     15  C   UNL     1       3.757   5.445  17.884  0.00  0.00    +0.000 A 
ENDBRANCH   1  13
BRANCH   3  16
ATOM     16  C   UNL     1       0.909  10.220  18.550  0.00  0.00    +0.000 A 
ATOM     17  C   UNL     1       1.624  11.425  18.621  0.00  0.00    +0.000 A 
ATOM     18  C   UNL     1       0.969  12.656  18.684  0.00  0.00    +0.000 A 
ATOM     19  C   UNL     1      -0.413  12.690  18.667  0.00  0.00    +0.000 A 
ATOM     20  F   UNL     1      -1.044  13.872  18.748  0.00  0.00    +0.000 F 
ATOM     21  C   UNL     1      -1.154  11.509  18.647  0.00  0.00    +0.000 A 
ATOM     22  C   UNL     1      -0.494  10.272  18.562  0.00  0.00    +0.000 A 
BRANCH  21  23
ATOM     23  N   UNL     1      -2.555  11.635  18.743  0.00  0.00    +0.000 N 
ATOM     24  C   UNL     1      -3.400  11.424  17.675  0.00  0.00    +0.000 C 
ATOM     25  O   UNL     1      -3.054  11.164  16.532  0.00  0.00    +0.000 OA
ATOM     26  H   UNL     1      -2.947  11.470  19.662  0.00  0.00    +0.000 HD
BRANCH  24  27
ATOM     27  C   UNL     1      -4.857  11.469  17.986  0.00  0.00    +0.000 C 
ATOM     28  C   UNL     1      -5.692  12.475  17.225  0.00  0.00    +0.000 C 
ATOM     29  C   UNL     1      -5.591  12.572  18.717  0.00  0.00    +0.000 C 
ENDBRANCH  24  27
ENDBRANCH  21  23
ENDBRANCH   3  16
TORSDOF 4
ENDMDL
MODEL 7
REMARK VINA RESULT:      -8.1      3.829      9.624
REMARK  Name = 
REMARK  6 active torsions:
REMARK  status: ('A' for Active; 'I' for Inactive)
REMARK    1  A    between atoms: C_1  and  C_2
REMARK    2  A    between atoms: N_4  and  C_5
REMARK    3  A    between atoms: C_9  and  C_10
REMARK    4  A    between atoms: N_12  and  C_13
REMARK    5  A    between atoms: C_18  and  N_19
REMARK    6  A    between atoms: C_20  and  C_22
REMARK                            x       y       z     vdW  Elec       q    Type
REMARK                         _______ _______ _______ _____ _____    ______ ____
ROOT
ATOM      1  C   UNL     1       1.814   9.007  18.491  0.00  0.00    +0.000 C 
ATOM      2  O   UNL     1       2.013   9.608  17.440  0.00  0.00    +0.000 OA
ATOM      3  N   UNL     1       1.056   9.462  19.560  0.00  0.00    +0.000 N 
ATOM      4  H   UNL     1       1.123   8.968  20.442  0.00  0.00    +0.000 HD
ENDROOT
BRANCH   1  13
ATOM      5  C   UNL     1       5.425   5.684  15.566  0.00  0.00    +0.000 C 
ATOM      6  C   UNL     1       4.828   5.296  16.866  0.00  0.00    +0.000 A 
ATOM      7  N   UNL     1       5.074   4.097  17.413  0.00  0.00    +0.000 NA
ATOM      8  N   UNL     1       4.355   4.111  18.560  0.00  0.00    +0.000 N 
ATOM      9  C   UNL     1       4.353   2.959  19.426  0.00  0.00    +0.000 C 
ATOM     10  C   UNL     1       3.666   5.279  18.769  0.00  0.00    +0.000 A 
ATOM     11  N   UNL     1       2.861   5.596  19.810  0.00  0.00    +0.000 NA
ATOM     12  C   UNL     1       2.298   6.832  19.687  0.00  0.00    +0.000 A 
ATOM     13  C   UNL     1       2.520   7.720  18.641  0.00  0.00    +0.000 A 
ATOM     14  C   UNL     1       3.369   7.338  17.596  0.00  0.00    +0.000 A 
ATOM     15  C   UNL     1       3.958   6.072  17.669  0.00  0.00    +0.000 A 
ENDBRANCH   1  13
BRANCH   3  16
ATOM     16  C   UNL     1       0.366  10.705  19.582  0.00  0.00    +0.000 A 
ATOM     17  C   UNL     1       0.911  11.866  20.152  0.00  0.00    +0.000 A 
ATOM     18  C   UNL     1       0.212  13.074  20.145  0.00  0.00    +0.000 A 
ATOM     19  C   UNL     1      -1.039  13.131  19.560  0.00  0.00    +0.000 A 
ATOM     20  F   UNL     1      -1.720  14.288  19.572  0.00  0.00    +0.000 F 
ATOM     21  C   UNL     1      -1.630  11.985  19.031  0.00  0.00    +0.000 A 
ATOM     22  C   UNL     1      -0.918  10.774  19.018  0.00  0.00    +0.000 A 
BRANCH  21  23
ATOM     23  N   UNL     1      -2.951  12.113  18.554  0.00  0.00    +0.000 N 
ATOM     24  C   UNL     1      -4.039  12.243  19.389  0.00  0.00    +0.000 C 
ATOM     25  O   UNL     1      -4.009  12.210  20.611  0.00  0.00    +0.000 OA
ATOM     26  H   UNL     1      -3.045  12.520  17.631  0.00  0.00    +0.000 HD
BRANCH  24  27
ATOM     27  C   UNL     1      -5.343  12.502  18.714  0.00  0.00    +0.000 C 
ATOM     28  C   UNL     1      -6.173  11.294  18.336  0.00  0.00    +0.000 C 
ATOM     29  C   UNL     1      -5.682  12.223  17.266  0.00  0.00    +0.000 C 
ENDBRANCH  24  27
ENDBRANCH  21  23
ENDBRANCH   3  16
TORSDOF 4
ENDMDL
MODEL 8
REMARK VINA RESULT:      -8.1      1.707      2.269
REMARK  Name = 
REMARK  6 active torsions:
REMARK  status: ('A' for Active; 'I' for Inactive)
REMARK    1  A    between atoms: C_1  and  C_2
REMARK    2  A    between atoms: N_4  and  C_5
REMARK    3  A    between atoms: C_9  and  C_10
REMARK    4  A    between atoms: N_12  and  C_13
REMARK    5  A    between atoms: C_18  and  N_19
REMARK    6  A    between atoms: C_20  and  C_22
REMARK                            x       y       z     vdW  Elec       q    Type
REMARK                         _______ _______ _______ _____ _____    ______ ____
ROOT
ATOM      1  C   UNL     1       1.763   8.586  18.751  0.00  0.00    +0.000 C 
ATOM      2  O   UNL     1       1.689   8.464  17.532  0.00  0.00    +0.000 OA
ATOM      3  N   UNL     1       2.104   7.589  19.653  0.00  0.00    +0.000 N 
ATOM      4  H   UNL     1       1.944   7.756  20.639  0.00  0.00    +0.000 HD
ENDROOT
BRANCH   1  13
ATOM      5  C   UNL     1      -1.122  10.767  23.174  0.00  0.00    +0.000 C 
ATOM      6  C   UNL     1      -0.575  11.590  22.070  0.00  0.00    +0.000 A 
ATOM      7  N   UNL     1      -0.773  12.915  22.027  0.00  0.00    +0.000 NA
ATOM      8  N   UNL     1      -0.151  13.299  20.888  0.00  0.00    +0.000 N 
ATOM      9  C   UNL     1      -0.167  14.682  20.486  0.00  0.00    +0.000 C 
ATOM     10  C   UNL     1       0.446  12.268  20.207  0.00  0.00    +0.000 A 
ATOM     11  N   UNL     1       1.136  12.327  19.044  0.00  0.00    +0.000 NA
ATOM     12  C   UNL     1       1.567  11.104  18.621  0.00  0.00    +0.000 A 
ATOM     13  C   UNL     1       1.371   9.903  19.291  0.00  0.00    +0.000 A 
ATOM     14  C   UNL     1       0.656   9.906  20.494  0.00  0.00    +0.000 A 
ATOM     15  C   UNL     1       0.180  11.135  20.962  0.00  0.00    +0.000 A 
ENDBRANCH   1  13
BRANCH   3  16
ATOM     16  C   UNL     1       2.451   6.260  19.285  0.00  0.00    +0.000 A 
ATOM     17  C   UNL     1       2.048   5.138  20.025  0.00  0.00    +0.000 A 
ATOM     18  C   UNL     1       2.394   3.845  19.629  0.00  0.00    +0.000 A 
ATOM     19  C   UNL     1       3.142   3.664  18.481  0.00  0.00    +0.000 A 
ATOM     20  F   UNL     1       3.493   2.422  18.111  0.00  0.00    +0.000 F 
ATOM     21  C   UNL     1       3.601   4.759  17.751  0.00  0.00    +0.000 A 
ATOM     22  C   UNL     1       3.234   6.059  18.137  0.00  0.00    +0.000 A 
BRANCH  21  23
ATOM     23  N   UNL     1       4.448   4.485  16.657  0.00  0.00    +0.000 N 
ATOM     24  C   UNL     1       5.812   4.345  16.784  0.00  0.00    +0.000 C 
ATOM     25  O   UNL     1       6.452   4.491  17.817  0.00  0.00    +0.000 OA
ATOM     26  H   UNL     1       4.018   3.991  15.885  0.00  0.00    +0.000 HD
BRANCH  24  27
ATOM     27  C   UNL     1       6.536   3.925  15.551  0.00  0.00    +0.000 C 
ATOM     28  C   UNL     1       6.960   5.019  14.595  0.00  0.00    +0.000 C 
ATOM     29  C   UNL     1       6.003   3.961  14.135  0.00  0.00    +0.000 C 
ENDBRANCH  24  27
ENDBRANCH  21  23
ENDBRANCH   3  16
TORSDOF 4
ENDMDL
MODEL 9
REMARK VINA RESULT:      -8.1      3.753      9.709
REMARK  Name = 
REMARK  6 active torsions:
REMARK  status: ('A' for Active; 'I' for Inactive)
REMARK    1  A    between atoms: C_1  and  C_2
REMARK    2  A    between atoms: N_4  and  C_5
REMARK    3  A    between atoms: C_9  and  C_10
REMARK    4  A    between atoms: N_12  and  C_13
REMARK    5  A    between atoms: C_18  and  N_19
REMARK    6  A    between atoms: C_20  and  C_22
REMARK                            x       y       z     vdW  Elec       q    Type
REMARK                         _______ _______ _______ _____ _____    ______ ____
ROOT
ATOM      1  C   UNL     1       1.944   8.727  18.387  0.00  0.00    +0.000 C 
ATOM      2  O   UNL     1       2.206   9.099  17.247  0.00  0.00    +0.000 OA
ATOM      3  N   UNL     1       1.285   9.467  19.357  0.00  0.00    +0.000 N 
ATOM      4  H   UNL     1       1.299   9.129  20.312  0.00  0.00    +0.000 HD
ENDROOT
BRANCH   1  13
ATOM      5  C   UNL     1       5.044   4.489  16.135  0.00  0.00    +0.000 C 
ATOM      6  C   UNL     1       4.395   4.408  17.465  0.00  0.00    +0.000 A 
ATOM      7  N   UNL     1       4.465   3.294  18.206  0.00  0.00    +0.000 NA
ATOM      8  N   UNL     1       3.753   3.598  19.316  0.00  0.00    +0.000 N 
ATOM      9  C   UNL     1       3.584   2.617  20.358  0.00  0.00    +0.000 C 
ATOM     10  C   UNL     1       3.240   4.870  19.315  0.00  0.00    +0.000 A 
ATOM     11  N   UNL     1       2.486   5.466  20.270  0.00  0.00    +0.000 NA
ATOM     12  C   UNL     1       2.108   6.732  19.933  0.00  0.00    +0.000 A 
ATOM     13  C   UNL     1       2.457   7.394  18.762  0.00  0.00    +0.000 A 
ATOM     14  C   UNL     1       3.244   6.729  17.815  0.00  0.00    +0.000 A 
ATOM     15  C   UNL     1       3.645   5.422  18.108  0.00  0.00    +0.000 A 
ENDBRANCH   1  13
BRANCH   3  16
ATOM     16  C   UNL     1       0.785  10.783  19.159  0.00  0.00    +0.000 A 
ATOM     17  C   UNL     1       1.618  11.879  18.890  0.00  0.00    +0.000 A 
ATOM     18  C   UNL     1       1.094  13.157  18.687  0.00  0.00    +0.000 A 
ATOM     19  C   UNL     1      -0.274  13.346  18.745  0.00  0.00    +0.000 A 
ATOM     20  F   UNL     1      -0.777  14.578  18.571  0.00  0.00    +0.000 F 
ATOM     21  C   UNL     1      -1.126  12.289  19.061  0.00  0.00    +0.000 A 
ATOM     22  C   UNL     1      -0.600  10.999  19.243  0.00  0.00    +0.000 A 
BRANCH  21  23
ATOM     23  N   UNL     1      -2.494  12.595  19.206  0.00  0.00    +0.000 N 
ATOM     24  C   UNL     1      -3.069  12.892  20.422  0.00  0.00    +0.000 C 
ATOM     25  O   UNL     1      -2.501  12.873  21.504  0.00  0.00    +0.000 OA
ATOM     26  H   UNL     1      -2.941  12.998  18.391  0.00  0.00    +0.000 HD
BRANCH  24  27
ATOM     27  C   UNL     1      -4.496  13.323  20.374  0.00  0.00    +0.000 C 
ATOM     28  C   UNL     1      -5.536  12.307  20.793  0.00  0.00    +0.000 C 
ATOM     29  C   UNL     1      -5.550  12.850  19.396  0.00  0.00    +0.000 C 
ENDBRANCH  24  27
ENDBRANCH  21  23
ENDBRANCH   3  16
TORSDOF 4
ENDMDL
