MODEL 1
REMARK VINA RESULT:      -8.7      0.000      0.000
REMARK  Name = 
REMARK  7 active torsions:
REMARK  status: ('A' for Active; 'I' for Inactive)
REMARK    1  A    between atoms: C_1  and  C_2
REMARK    2  A    between atoms: N_6  and  C_7
REMARK    3  A    between atoms: C_7  and  C_8
REMARK    4  A    between atoms: C_12  and  C_13
REMARK    5  A    between atoms: C_16  and  C_17
REMARK    6  A    between atoms: C_20  and  S_21
REMARK    7  A    between atoms: S_21  and  N_22
REMARK                            x       y       z     vdW  Elec       q    Type
REMARK                         _______ _______ _______ _____ _____    ______ ____
ROOT
ATOM      1  C   UNL     1       7.456   6.682  17.596  0.00  0.00    +0.000 A 
ATOM      2  N   UNL     1       8.081   6.435  18.758  0.00  0.00    +0.000 NA
ATOM      3  O   UNL     1       8.616   7.663  19.116  0.00  0.00    +0.000 OA
ATOM      4  C   UNL     1       8.276   8.553  18.137  0.00  0.00    +0.000 A 
ATOM      5  N   UNL     1       7.578   7.996  17.169  0.00  0.00    +0.000 NA
ENDROOT
BRANCH   4   6
ATOM      6  C   UNL     1       8.709   9.935  18.346  0.00  0.00    +0.000 A 
ATOM      7  C   UNL     1       8.287  10.966  17.489  0.00  0.00    +0.000 A 
ATOM      8  C   UNL     1       8.684  12.296  17.708  0.00  0.00    +0.000 A 
ATOM      9  C   UNL     1       9.508  12.599  18.795  0.00  0.00    +0.000 A 
ATOM     10  C   UNL     1       9.941  11.592  19.640  0.00  0.00    +0.000 A 
ATOM     11  F   UNL     1      10.732  11.854  20.690  0.00  0.00    +0.000 F 
ATOM     12  C   UNL     1       9.547  10.272  19.425  0.00  0.00    +0.000 A 
BRANCH   9  13
ATOM     13  S   UNL     1      10.004  14.249  19.128  0.00  0.00    +0.000 S 
ATOM     14  O   UNL     1       9.279  14.742  20.274  0.00  0.00    +0.000 OA
ATOM     15  O   UNL     1      11.445  14.327  19.040  0.00  0.00    +0.000 OA
BRANCH  13  16
ATOM     16  N   UNL     1       9.442  15.089  17.787  0.00  0.00    +0.000 NA
ATOM     17  H   UNL     1       8.440  15.266  17.878  0.00  0.00    +0.000 HD
ATOM     18  H   UNL     1      10.001  15.927  17.629  0.00  0.00    +0.000 HD
ENDBRANCH  13  16
ENDBRANCH   9  13
ENDBRANCH   4   6
BRANCH   1  23
ATOM     19  C   UNL     1       4.597   4.367  16.639  0.00  0.00    +0.000 A 
ATOM     20  C   UNL     1       5.085   3.862  15.427  0.00  0.00    +0.000 A 
ATOM     21  C   UNL     1       6.352   4.222  14.966  0.00  0.00    +0.000 A 
ATOM     22  C   UNL     1       7.140   5.117  15.693  0.00  0.00    +0.000 A 
ATOM     23  C   UNL     1       6.666   5.676  16.884  0.00  0.00    +0.000 A 
ATOM     24  C   UNL     1       5.398   5.275  17.358  0.00  0.00    +0.000 A 
BRANCH  19  25
ATOM     25  C   UNL     1       3.257   3.913  17.169  0.00  0.00    +0.000 C 
BRANCH  25  31
ATOM     26  C   UNL     1       2.327   5.910  19.400  0.00  0.00    +0.000 C 
ATOM     27  C   UNL     1       2.801   4.516  19.604  0.00  0.00    +0.000 A 
ATOM     28  N   UNL     1       2.838   3.909  20.774  0.00  0.00    +0.000 NA
ATOM     29  C   UNL     1       3.304   2.647  20.532  0.00  0.00    +0.000 A 
ATOM     30  C   UNL     1       3.558   2.475  19.194  0.00  0.00    +0.000 A 
ATOM     31  N   UNL     1       3.255   3.676  18.608  0.00  0.00    +0.000 N 
ENDBRANCH  25  31
ENDBRANCH  19  25
ENDBRANCH   1  23
TORSDOF 6
ENDMDL
MODEL 2
REMARK VINA RESULT:      -8.7      1.224      1.391
REMARK  Name = 
REMARK  7 active torsions:
REMARK  status: ('A' for Active; 'I' for Inactive)
REMARK    1  A    between atoms: C_1  and  C_2
REMARK    2  A    between atoms: N_6  and  C_7
REMARK    3  A    between atoms: C_7  and  C_8
REMARK    4  A    between atoms: C_12  and  C_13
REMARK    5  A    between atoms: C_16  and  C_17
REMARK    6  A    between atoms: C_20  and  S_21
REMARK    7  A    between atoms: S_21  and  N_22
REMARK                            x       y       z     vdW  Elec       q    Type
REMARK                         _______ _______ _______ _____ _____    ______ ____
ROOT
ATOM      1  C   UNL     1       7.359   7.082  17.895  0.00  0.00    +0.000 A 
ATOM      2  N   UNL     1       8.270   6.945  18.871  0.00  0.00    +0.000 NA
ATOM      3  O   UNL     1       8.851   8.201  18.964  0.00  0.00    +0.000 OA
ATOM      4  C   UNL     1       8.247   8.995  18.030  0.00  0.00    +0.000 A 
ATOM      5  N   UNL     1       7.335   8.350  17.332  0.00  0.00    +0.000 NA
ENDROOT
BRANCH   4   6
ATOM      6  C   UNL     1       8.687  10.390  17.992  0.00  0.00    +0.000 A 
ATOM      7  C   UNL     1       7.864  11.397  17.458  0.00  0.00    +0.000 A 
ATOM      8  C   UNL     1       8.279  12.739  17.446  0.00  0.00    +0.000 A 
ATOM      9  C   UNL     1       9.526  13.080  17.976  0.00  0.00    +0.000 A 
ATOM     10  C   UNL     1      10.352  12.096  18.494  0.00  0.00    +0.000 A 
ATOM     11  F   UNL     1      11.553  12.395  19.008  0.00  0.00    +0.000 F 
ATOM     12  C   UNL     1       9.941  10.764  18.508  0.00  0.00    +0.000 A 
BRANCH   9  13
ATOM     13  S   UNL     1      10.075  14.746  18.013  0.00  0.00    +0.000 S 
ATOM     14  O   UNL     1      10.223  15.167  19.385  0.00  0.00    +0.000 OA
ATOM     15  O   UNL     1      11.133  14.908  17.041  0.00  0.00    +0.000 OA
BRANCH  13  16
ATOM     16  N   UNL     1       8.768  15.587  17.375  0.00  0.00    +0.000 NA
ATOM     17  H   UNL     1       8.485  15.173  16.485  0.00  0.00    +0.000 HD
ATOM     18  H   UNL     1       8.017  15.655  18.062  0.00  0.00    +0.000 HD
ENDBRANCH  13  16
ENDBRANCH   9  13
ENDBRANCH   4   6
BRANCH   1  23
ATOM     19  C   UNL     1       4.979   4.126  18.118  0.00  0.00    +0.000 A 
ATOM     20  C   UNL     1       4.538   4.066  16.790  0.00  0.00    +0.000 A 
ATOM     21  C   UNL     1       5.058   4.933  15.828  0.00  0.00    +0.000 A 
ATOM     22  C   UNL     1       6.005   5.896  16.183  0.00  0.00    +0.000 A 
ATOM     23  C   UNL     1       6.435   6.014  17.509  0.00  0.00    +0.000 A 
ATOM     24  C   UNL     1       5.929   5.108  18.465  0.00  0.00    +0.000 A 
BRANCH  19  25
ATOM     25  C   UNL     1       4.468   3.135  19.137  0.00  0.00    +0.000 C 
BRANCH  25  31
ATOM     26  C   UNL     1       2.512   5.231  20.403  0.00  0.00    +0.000 C 
ATOM     27  C   UNL     1       2.129   3.986  19.687  0.00  0.00    +0.000 A 
ATOM     28  N   UNL     1       0.886   3.625  19.439  0.00  0.00    +0.000 NA
ATOM     29  C   UNL     1       0.962   2.450  18.746  0.00  0.00    +0.000 A 
ATOM     30  C   UNL     1       2.272   2.081  18.566  0.00  0.00    +0.000 A 
ATOM     31  N   UNL     1       3.013   3.053  19.185  0.00  0.00    +0.000 N 
ENDBRANCH  25  31
ENDBRANCH  19  25
ENDBRANCH   1  23
TORSDOF 6
ENDMDL
MODEL 3
REMARK VINA RESULT:      -8.7      0.965      1.352
REMARK  Name = 
REMARK  7 active torsions:
REMARK  status: ('A' for Active; 'I' for Inactive)
REMARK    1  A    between atoms: C_1  and  C_2
REMARK    2  A    between atoms: N_6  and  C_7
REMARK    3  A    between atoms: C_7  and  C_8
REMARK    4  A    between atoms: C_12  and  C_13
REMARK    5  A    between atoms: C_16  and  C_17
REMARK    6  A    between atoms: C_20  and  S_21
REMARK    7  A    between atoms: S_21  and  N_22
REMARK                            x       y       z     vdW  Elec       q    Type
REMARK                         _______ _______ _______ _____ _____    ______ ____
ROOT
ATOM      1  C   UNL     1       7.360   6.951  17.810  0.00  0.00    +0.000 A 
ATOM      2  N   UNL     1       8.216   6.734  18.821  0.00  0.00    +0.000 NA
ATOM      3  O   UNL     1       8.799   7.974  19.034  0.00  0.00    +0.000 OA
ATOM      4  C   UNL     1       8.252   8.839  18.129  0.00  0.00    +0.000 A 
ATOM      5  N   UNL     1       7.375   8.256  17.339  0.00  0.00    +0.000 NA
ENDROOT
BRANCH   4   6
ATOM      6  C   UNL     1       8.702  10.229  18.216  0.00  0.00    +0.000 A 
ATOM      7  C   UNL     1       8.081  11.242  17.464  0.00  0.00    +0.000 A 
ATOM      8  C   UNL     1       8.499  12.579  17.569  0.00  0.00    +0.000 A 
ATOM      9  C   UNL     1       9.546  12.908  18.434  0.00  0.00    +0.000 A 
ATOM     10  C   UNL     1      10.175  11.919  19.170  0.00  0.00    +0.000 A 
ATOM     11  F   UNL     1      11.181  12.206  20.007  0.00  0.00    +0.000 F 
ATOM     12  C   UNL     1       9.760  10.592  19.069  0.00  0.00    +0.000 A 
BRANCH   9  13
ATOM     13  S   UNL     1      10.083  14.569  18.622  0.00  0.00    +0.000 S 
ATOM     14  O   UNL     1       9.502  15.123  19.821  0.00  0.00    +0.000 OA
ATOM     15  O   UNL     1      11.503  14.630  18.357  0.00  0.00    +0.000 OA
BRANCH  13  16
ATOM     16  N   UNL     1       9.365  15.346  17.318  0.00  0.00    +0.000 NA
ATOM     17  H   UNL     1       8.365  15.466  17.488  0.00  0.00    +0.000 HD
ATOM     18  H   UNL     1       9.859  16.212  17.102  0.00  0.00    +0.000 HD
ENDBRANCH  13  16
ENDBRANCH   9  13
ENDBRANCH   4   6
BRANCH   1  23
ATOM     19  C   UNL     1       4.782   4.160  17.697  0.00  0.00    +0.000 A 
ATOM     20  C   UNL     1       4.588   4.060  16.313  0.00  0.00    +0.000 A 
ATOM     21  C   UNL     1       5.334   4.845  15.433  0.00  0.00    +0.000 A 
ATOM     22  C   UNL     1       6.264   5.765  15.921  0.00  0.00    +0.000 A 
ATOM     23  C   UNL     1       6.451   5.923  17.299  0.00  0.00    +0.000 A 
ATOM     24  C   UNL     1       5.717   5.097  18.177  0.00  0.00    +0.000 A 
BRANCH  19  25
ATOM     25  C   UNL     1       4.026   3.253  18.639  0.00  0.00    +0.000 C 
BRANCH  25  31
ATOM     26  C   UNL     1       1.044   2.287  18.673  0.00  0.00    +0.000 C 
ATOM     27  C   UNL     1       1.594   3.477  19.372  0.00  0.00    +0.000 A 
ATOM     28  N   UNL     1       0.891   4.265  20.161  0.00  0.00    +0.000 NA
ATOM     29  C   UNL     1       1.760   5.213  20.623  0.00  0.00    +0.000 A 
ATOM     30  C   UNL     1       3.016   5.006  20.111  0.00  0.00    +0.000 A 
ATOM     31  N   UNL     1       2.903   3.909  19.297  0.00  0.00    +0.000 N 
ENDBRANCH  25  31
ENDBRANCH  19  25
ENDBRANCH   1  23
TORSDOF 6
ENDMDL
MODEL 4
REMARK VINA RESULT:      -8.6      6.121      7.605
REMARK  Name = 
REMARK  7 active torsions:
REMARK  status: ('A' for Active; 'I' for Inactive)
REMARK    1  A    between atoms: C_1  and  C_2
REMARK    2  A    between atoms: N_6  and  C_7
REMARK    3  A    between atoms: C_7  and  C_8
REMARK    4  A    between atoms: C_12  and  C_13
REMARK    5  A    between atoms: C_16  and  C_17
REMARK    6  A    between atoms: C_20  and  S_21
REMARK    7  A    between atoms: S_21  and  N_22
REMARK                            x       y       z     vdW  Elec       q    Type
REMARK                         _______ _______ _______ _____ _____    ______ ____
ROOT
ATOM      1  C   UNL     1       2.579   7.888  18.088  0.00  0.00    +0.000 A 
ATOM      2  N   UNL     1       2.359   8.881  17.212  0.00  0.00    +0.000 NA
ATOM      3  O   UNL     1       1.553   9.768  17.910  0.00  0.00    +0.000 OA
ATOM      4  C   UNL     1       1.346   9.235  19.150  0.00  0.00    +0.000 A 
ATOM      5  N   UNL     1       1.939   8.070  19.306  0.00  0.00    +0.000 NA
ENDROOT
BRANCH   4   6
ATOM      6  C   UNL     1       0.548  10.046  20.072  0.00  0.00    +0.000 A 
ATOM      7  C   UNL     1      -0.100  11.214  19.638  0.00  0.00    +0.000 A 
ATOM      8  C   UNL     1      -0.885  11.976  20.519  0.00  0.00    +0.000 A 
ATOM      9  C   UNL     1      -1.026  11.565  21.847  0.00  0.00    +0.000 A 
ATOM     10  C   UNL     1      -0.383  10.422  22.292  0.00  0.00    +0.000 A 
ATOM     11  F   UNL     1      -0.500  10.005  23.560  0.00  0.00    +0.000 F 
ATOM     12  C   UNL     1       0.396   9.665  21.418  0.00  0.00    +0.000 A 
BRANCH   9  13
ATOM     13  S   UNL     1      -2.022  12.465  22.978  0.00  0.00    +0.000 S 
ATOM     14  O   UNL     1      -2.963  11.567  23.602  0.00  0.00    +0.000 OA
ATOM     15  O   UNL     1      -1.170  13.343  23.749  0.00  0.00    +0.000 OA
BRANCH  13  16
ATOM     16  N   UNL     1      -2.901  13.486  21.975  0.00  0.00    +0.000 NA
ATOM     17  H   UNL     1      -3.198  14.316  22.491  0.00  0.00    +0.000 HD
ATOM     18  H   UNL     1      -2.378  13.688  21.123  0.00  0.00    +0.000 HD
ENDBRANCH  13  16
ENDBRANCH   9  13
ENDBRANCH   4   6
BRANCH   1  23
ATOM     19  C   UNL     1       3.894   4.333  17.798  0.00  0.00    +0.000 A 
ATOM     20  C   UNL     1       5.095   4.570  17.118  0.00  0.00    +0.000 A 
ATOM     21  C   UNL     1       5.497   5.873  16.818  0.00  0.00    +0.000 A 
ATOM     22  C   UNL     1       4.691   6.959  17.166  0.00  0.00    +0.000 A 
ATOM     23  C   UNL     1       3.464   6.756  17.806  0.00  0.00    +0.000 A 
ATOM     24  C   UNL     1       3.086   5.437  18.136  0.00  0.00    +0.000 A 
BRANCH  19  25
ATOM     25  C   UNL     1       3.503   2.927  18.186  0.00  0.00    +0.000 C 
BRANCH  25  31
ATOM     26  C   UNL     1       0.440   2.593  18.762  0.00  0.00    +0.000 C 
ATOM     27  C   UNL     1       1.528   2.643  19.773  0.00  0.00    +0.000 A 
ATOM     28  N   UNL     1       1.343   2.494  21.070  0.00  0.00    +0.000 NA
ATOM     29  C   UNL     1       2.581   2.579  21.642  0.00  0.00    +0.000 A 
ATOM     30  C   UNL     1       3.542   2.784  20.684  0.00  0.00    +0.000 A 
ATOM     31  N   UNL     1       2.865   2.845  19.495  0.00  0.00    +0.000 N 
ENDBRANCH  25  31
ENDBRANCH  19  25
ENDBRANCH   1  23
TORSDOF 6
ENDMDL
MODEL 5
REMARK VINA RESULT:      -8.6      6.235      7.877
REMARK  Name = 
REMARK  7 active torsions:
REMARK  status: ('A' for Active; 'I' for Inactive)
REMARK    1  A    between atoms: C_1  and  C_2
REMARK    2  A    between atoms: N_6  and  C_7
REMARK    3  A    between atoms: C_7  and  C_8
REMARK    4  A    between atoms: C_12  and  C_13
REMARK    5  A    between atoms: C_16  and  C_17
REMARK    6  A    between atoms: C_20  and  S_21
REMARK    7  A    between atoms: S_21  and  N_22
REMARK                            x       y       z     vdW  Elec       q    Type
REMARK                         _______ _______ _______ _____ _____    ______ ____
ROOT
ATOM      1  C   UNL     1       2.210   8.205  18.216  0.00  0.00    +0.000 A 
ATOM      2  N   UNL     1       2.328   9.290  17.435  0.00  0.00    +0.000 NA
ATOM      3  O   UNL     1       1.575  10.254  18.088  0.00  0.00    +0.000 OA
ATOM      4  C   UNL     1       1.057   9.671  19.210  0.00  0.00    +0.000 A 
ATOM      5  N   UNL     1       1.401   8.405  19.326  0.00  0.00    +0.000 NA
ENDROOT
BRANCH   4   6
ATOM      6  C   UNL     1       0.258  10.540  20.075  0.00  0.00    +0.000 A 
ATOM      7  C   UNL     1      -0.394  11.675  19.563  0.00  0.00    +0.000 A 
ATOM      8  C   UNL     1      -1.179  12.493  20.392  0.00  0.00    +0.000 A 
ATOM      9  C   UNL     1      -1.318  12.173  21.745  0.00  0.00    +0.000 A 
ATOM     10  C   UNL     1      -0.671  11.064  22.266  0.00  0.00    +0.000 A 
ATOM     11  F   UNL     1      -0.786  10.734  23.559  0.00  0.00    +0.000 F 
ATOM     12  C   UNL     1       0.108  10.251  21.444  0.00  0.00    +0.000 A 
BRANCH   9  13
ATOM     13  S   UNL     1      -2.315  13.146  22.813  0.00  0.00    +0.000 S 
ATOM     14  O   UNL     1      -1.491  13.691  23.865  0.00  0.00    +0.000 OA
ATOM     15  O   UNL     1      -3.183  13.975  22.009  0.00  0.00    +0.000 OA
BRANCH  13  16
ATOM     16  N   UNL     1      -3.330  12.009  23.518  0.00  0.00    +0.000 NA
ATOM     17  H   UNL     1      -4.181  11.905  22.962  0.00  0.00    +0.000 HD
ATOM     18  H   UNL     1      -2.830  11.137  23.684  0.00  0.00    +0.000 HD
ENDBRANCH  13  16
ENDBRANCH   9  13
ENDBRANCH   4   6
BRANCH   1  23
ATOM     19  C   UNL     1       2.961   4.492  17.899  0.00  0.00    +0.000 A 
ATOM     20  C   UNL     1       4.228   4.548  17.303  0.00  0.00    +0.000 A 
ATOM     21  C   UNL     1       4.850   5.776  17.070  0.00  0.00    +0.000 A 
ATOM     22  C   UNL     1       4.204   6.969  17.401  0.00  0.00    +0.000 A 
ATOM     23  C   UNL     1       2.920   6.952  17.956  0.00  0.00    +0.000 A 
ATOM     24  C   UNL     1       2.317   5.704  18.219  0.00  0.00    +0.000 A 
BRANCH  19  25
ATOM     25  C   UNL     1       2.327   3.159  18.217  0.00  0.00    +0.000 C 
BRANCH  25  31
ATOM     26  C   UNL     1       4.591   2.223  20.173  0.00  0.00    +0.000 C 
ATOM     27  C   UNL     1       3.188   2.549  20.538  0.00  0.00    +0.000 A 
ATOM     28  N   UNL     1       2.720   2.539  21.771  0.00  0.00    +0.000 NA
ATOM     29  C   UNL     1       1.410   2.918  21.684  0.00  0.00    +0.000 A 
ATOM     30  C   UNL     1       1.065   3.164  20.378  0.00  0.00    +0.000 A 
ATOM     31  N   UNL     1       2.196   2.908  19.648  0.00  0.00    +0.000 N 
ENDBRANCH  25  31
ENDBRANCH  19  25
ENDBRANCH   1  23
TORSDOF 6
ENDMDL
MODEL 6
REMARK VINA RESULT:      -8.6      1.116      1.569
REMARK  Name = 
REMARK  7 active torsions:
REMARK  status: ('A' for Active; 'I' for Inactive)
REMARK    1  A    between atoms: C_1  and  C_2
REMARK    2  A    between atoms: N_6  and  C_7
REMARK    3  A    between atoms: C_7  and  C_8
REMARK    4  A    between atoms: C_12  and  C_13
REMARK    5  A    between atoms: C_16  and  C_17
REMARK    6  A    between atoms: C_20  and  S_21
REMARK    7  A    between atoms: S_21  and  N_22
REMARK                            x       y       z     vdW  Elec       q    Type
REMARK                         _______ _______ _______ _____ _____    ______ ____
ROOT
ATOM      1  C   UNL     1       7.417   6.706  17.587  0.00  0.00    +0.000 A 
ATOM      2  N   UNL     1       8.082   6.448  18.724  0.00  0.00    +0.000 NA
ATOM      3  O   UNL     1       8.623   7.675  19.080  0.00  0.00    +0.000 OA
ATOM      4  C   UNL     1       8.244   8.575  18.124  0.00  0.00    +0.000 A 
ATOM      5  N   UNL     1       7.517   8.027  17.173  0.00  0.00    +0.000 NA
ENDROOT
BRANCH   4   6
ATOM      6  C   UNL     1       8.676   9.957  18.336  0.00  0.00    +0.000 A 
ATOM      7  C   UNL     1       9.662  10.272  19.288  0.00  0.00    +0.000 A 
ATOM      8  C   UNL     1      10.092  11.596  19.471  0.00  0.00    +0.000 A 
ATOM      9  C   UNL     1       9.535  12.616  18.696  0.00  0.00    +0.000 A 
ATOM     10  C   UNL     1       8.553  12.322  17.764  0.00  0.00    +0.000 A 
ATOM     11  F   UNL     1       8.001  13.280  17.007  0.00  0.00    +0.000 F 
ATOM     12  C   UNL     1       8.126  11.008  17.579  0.00  0.00    +0.000 A 
BRANCH   9  13
ATOM     13  S   UNL     1      10.062  14.282  18.867  0.00  0.00    +0.000 S 
ATOM     14  O   UNL     1      10.725  14.696  17.654  0.00  0.00    +0.000 OA
ATOM     15  O   UNL     1       8.988  15.050  19.456  0.00  0.00    +0.000 OA
BRANCH  13  16
ATOM     16  N   UNL     1      11.234  14.184  20.065  0.00  0.00    +0.000 NA
ATOM     17  H   UNL     1      11.948  13.501  19.804  0.00  0.00    +0.000 HD
ATOM     18  H   UNL     1      11.601  15.110  20.282  0.00  0.00    +0.000 HD
ENDBRANCH  13  16
ENDBRANCH   9  13
ENDBRANCH   4   6
BRANCH   1  23
ATOM     19  C   UNL     1       4.528   4.406  16.682  0.00  0.00    +0.000 A 
ATOM     20  C   UNL     1       4.991   3.899  15.461  0.00  0.00    +0.000 A 
ATOM     21  C   UNL     1       6.252   4.253  14.977  0.00  0.00    +0.000 A 
ATOM     22  C   UNL     1       7.058   5.144  15.689  0.00  0.00    +0.000 A 
ATOM     23  C   UNL     1       6.608   5.704  16.890  0.00  0.00    +0.000 A 
ATOM     24  C   UNL     1       5.348   5.310  17.387  0.00  0.00    +0.000 A 
BRANCH  19  25
ATOM     25  C   UNL     1       3.196   3.959  17.237  0.00  0.00    +0.000 C 
BRANCH  25  31
ATOM     26  C   UNL     1       2.239   5.805  19.583  0.00  0.00    +0.000 C 
ATOM     27  C   UNL     1       2.773   4.425  19.708  0.00  0.00    +0.000 A 
ATOM     28  N   UNL     1       2.861   3.763  20.845  0.00  0.00    +0.000 NA
ATOM     29  C   UNL     1       3.371   2.535  20.532  0.00  0.00    +0.000 A 
ATOM     30  C   UNL     1       3.601   2.438  19.182  0.00  0.00    +0.000 A 
ATOM     31  N   UNL     1       3.237   3.653  18.662  0.00  0.00    +0.000 N 
ENDBRANCH  25  31
ENDBRANCH  19  25
ENDBRANCH   1  23
TORSDOF 6
ENDMDL
MODEL 7
REMARK VINA RESULT:      -8.6      6.301      9.447
REMARK  Name = 
REMARK  7 active torsions:
REMARK  status: ('A' for Active; 'I' for Inactive)
REMARK    1  A    between atoms: C_1  and  C_2
REMARK    2  A    between atoms: N_6  and  C_7
REMARK    3  A    between atoms: C_7  and  C_8
REMARK    4  A    between atoms: C_12  and  C_13
REMARK    5  A    between atoms: C_16  and  C_17
REMARK    6  A    between atoms: C_20  and  S_21
REMARK    7  A    between atoms: S_21  and  N_22
REMARK                            x       y       z     vdW  Elec       q    Type
REMARK                         _______ _______ _______ _____ _____    ______ ____
ROOT
ATOM      1  C   UNL     1       1.075   8.175  20.686  0.00  0.00    +0.000 A 
ATOM      2  N   UNL     1       1.033   6.948  21.227  0.00  0.00    +0.000 NA
ATOM      3  O   UNL     1       1.940   6.220  20.472  0.00  0.00    +0.000 OA
ATOM      4  C   UNL     1       2.452   7.066  19.530  0.00  0.00    +0.000 A 
ATOM      5  N   UNL     1       1.940   8.277  19.606  0.00  0.00    +0.000 NA
ENDROOT
BRANCH   4   6
ATOM      6  C   UNL     1       3.475   6.502  18.647  0.00  0.00    +0.000 A 
ATOM      7  C   UNL     1       3.839   7.147  17.452  0.00  0.00    +0.000 A 
ATOM      8  C   UNL     1       4.838   6.616  16.620  0.00  0.00    +0.000 A 
ATOM      9  C   UNL     1       5.483   5.431  16.987  0.00  0.00    +0.000 A 
ATOM     10  C   UNL     1       5.126   4.779  18.155  0.00  0.00    +0.000 A 
ATOM     11  F   UNL     1       5.727   3.642  18.530  0.00  0.00    +0.000 F 
ATOM     12  C   UNL     1       4.135   5.306  18.983  0.00  0.00    +0.000 A 
BRANCH   9  13
ATOM     13  S   UNL     1       6.759   4.746  15.996  0.00  0.00    +0.000 S 
ATOM     14  O   UNL     1       6.896   5.526  14.790  0.00  0.00    +0.000 OA
ATOM     15  O   UNL     1       7.889   4.438  16.844  0.00  0.00    +0.000 OA
BRANCH  13  16
ATOM     16  N   UNL     1       6.130   3.253  15.553  0.00  0.00    +0.000 NA
ATOM     17  H   UNL     1       5.117   3.318  15.441  0.00  0.00    +0.000 HD
ATOM     18  H   UNL     1       6.619   2.888  14.735  0.00  0.00    +0.000 HD
ENDBRANCH  13  16
ENDBRANCH   9  13
ENDBRANCH   4   6
BRANCH   1  23
ATOM     19  C   UNL     1      -0.923  11.403  20.886  0.00  0.00    +0.000 A 
ATOM     20  C   UNL     1      -1.240  11.412  22.251  0.00  0.00    +0.000 A 
ATOM     21  C   UNL     1      -0.754  10.416  23.099  0.00  0.00    +0.000 A 
ATOM     22  C   UNL     1       0.031   9.377  22.594  0.00  0.00    +0.000 A 
ATOM     23  C   UNL     1       0.329   9.313  21.228  0.00  0.00    +0.000 A 
ATOM     24  C   UNL     1      -0.138  10.345  20.387  0.00  0.00    +0.000 A 
BRANCH  19  25
ATOM     25  C   UNL     1      -1.389  12.525  19.989  0.00  0.00    +0.000 C 
BRANCH  25  31
ATOM     26  C   UNL     1      -2.116  10.953  17.376  0.00  0.00    +0.000 C 
ATOM     27  C   UNL     1      -3.073  11.579  18.324  0.00  0.00    +0.000 A 
ATOM     28  N   UNL     1      -4.385  11.502  18.215  0.00  0.00    +0.000 NA
ATOM     29  C   UNL     1      -4.897  12.177  19.287  0.00  0.00    +0.000 A 
ATOM     30  C   UNL     1      -3.885  12.678  20.069  0.00  0.00    +0.000 A 
ATOM     31  N   UNL     1      -2.723  12.311  19.441  0.00  0.00    +0.000 N 
ENDBRANCH  25  31
ENDBRANCH  19  25
ENDBRANCH   1  23
TORSDOF 6
ENDMDL
MODEL 8
REMARK VINA RESULT:      -8.6      0.390      1.160
REMARK  Name = 
REMARK  7 active torsions:
REMARK  status: ('A' for Active; 'I' for Inactive)
REMARK    1  A    between atoms: C_1  and  C_2
REMARK    2  A    between atoms: N_6  and  C_7
REMARK    3  A    between atoms: C_7  and  C_8
REMARK    4  A    between atoms: C_12  and  C_13
REMARK    5  A    between atoms: C_16  and  C_17
REMARK    6  A    between atoms: C_20  and  S_21
REMARK    7  A    between atoms: S_21  and  N_22
REMARK                            x       y       z     vdW  Elec       q    Type
REMARK                         _______ _______ _______ _____ _____    ______ ____
ROOT
ATOM      1  C   UNL     1       7.445   6.718  17.485  0.00  0.00    +0.000 A 
ATOM      2  N   UNL     1       8.049   6.453  18.654  0.00  0.00    +0.000 NA
ATOM      3  O   UNL     1       8.577   7.676  19.040  0.00  0.00    +0.000 OA
ATOM      4  C   UNL     1       8.254   8.580  18.068  0.00  0.00    +0.000 A 
ATOM      5  N   UNL     1       7.574   8.038  17.080  0.00  0.00    +0.000 NA
ENDROOT
BRANCH   4   6
ATOM      6  C   UNL     1       8.681   9.960  18.306  0.00  0.00    +0.000 A 
ATOM      7  C   UNL     1       8.280  11.002  17.453  0.00  0.00    +0.000 A 
ATOM      8  C   UNL     1       8.672  12.329  17.698  0.00  0.00    +0.000 A 
ATOM      9  C   UNL     1       9.469  12.618  18.808  0.00  0.00    +0.000 A 
ATOM     10  C   UNL     1       9.883  11.599  19.650  0.00  0.00    +0.000 A 
ATOM     11  F   UNL     1      10.648  11.847  20.722  0.00  0.00    +0.000 F 
ATOM     12  C   UNL     1       9.494  10.282  19.409  0.00  0.00    +0.000 A 
BRANCH   9  13
ATOM     13  S   UNL     1       9.958  14.263  19.175  0.00  0.00    +0.000 S 
ATOM     14  O   UNL     1       9.282  14.704  20.371  0.00  0.00    +0.000 OA
ATOM     15  O   UNL     1      11.392  14.366  19.020  0.00  0.00    +0.000 OA
BRANCH  13  16
ATOM     16  N   UNL     1       9.319  15.139  17.892  0.00  0.00    +0.000 NA
ATOM     17  H   UNL     1       9.061  16.078  18.202  0.00  0.00    +0.000 HD
ATOM     18  H   UNL     1       9.956  15.122  17.096  0.00  0.00    +0.000 HD
ENDBRANCH  13  16
ENDBRANCH   9  13
ENDBRANCH   4   6
BRANCH   1  23
ATOM     19  C   UNL     1       4.730   4.215  16.581  0.00  0.00    +0.000 A 
ATOM     20  C   UNL     1       5.090   3.929  15.258  0.00  0.00    +0.000 A 
ATOM     21  C   UNL     1       6.236   4.495  14.695  0.00  0.00    +0.000 A 
ATOM     22  C   UNL     1       7.024   5.379  15.435  0.00  0.00    +0.000 A 
ATOM     23  C   UNL     1       6.669   5.721  16.744  0.00  0.00    +0.000 A 
ATOM     24  C   UNL     1       5.529   5.115  17.314  0.00  0.00    +0.000 A 
BRANCH  19  25
ATOM     25  C   UNL     1       3.533   3.540  17.208  0.00  0.00    +0.000 C 
BRANCH  25  31
ATOM     26  C   UNL     1       3.814   2.607  20.187  0.00  0.00    +0.000 C 
ATOM     27  C   UNL     1       3.191   3.869  19.713  0.00  0.00    +0.000 A 
ATOM     28  N   UNL     1       2.715   4.807  20.508  0.00  0.00    +0.000 NA
ATOM     29  C   UNL     1       2.259   5.803  19.692  0.00  0.00    +0.000 A 
ATOM     30  C   UNL     1       2.457   5.474  18.374  0.00  0.00    +0.000 A 
ATOM     31  N   UNL     1       3.033   4.231  18.390  0.00  0.00    +0.000 N 
ENDBRANCH  25  31
ENDBRANCH  19  25
ENDBRANCH   1  23
TORSDOF 6
ENDMDL
MODEL 9
REMARK VINA RESULT:      -8.5      1.517      2.023
REMARK  Name = 
REMARK  7 active torsions:
REMARK  status: ('A' for Active; 'I' for Inactive)
REMARK    1  A    between atoms: C_1  and  C_2
REMARK    2  A    between atoms: N_6  and  C_7
REMARK    3  A    between atoms: C_7  and  C_8
REMARK    4  A    between atoms: C_12  and  C_13
REMARK    5  A    between atoms: C_16  and  C_17
REMARK    6  A    between atoms: C_20  and  S_21
REMARK    7  A    between atoms: S_21  and  N_22
REMARK                            x       y       z     vdW  Elec       q    Type
REMARK                         _______ _______ _______ _____ _____    ______ ____
ROOT
ATOM      1  C   UNL     1       7.388   7.158  17.859  0.00  0.00    +0.000 A 
ATOM      2  N   UNL     1       8.285   6.956  18.837  0.00  0.00    +0.000 NA
ATOM      3  O   UNL     1       8.898   8.192  18.986  0.00  0.00    +0.000 OA
ATOM      4  C   UNL     1       8.324   9.039  18.080  0.00  0.00    +0.000 A 
ATOM      5  N   UNL     1       7.403   8.448  17.348  0.00  0.00    +0.000 NA
ENDROOT
BRANCH   4   6
ATOM      6  C   UNL     1       8.800  10.423  18.103  0.00  0.00    +0.000 A 
ATOM      7  C   UNL     1      10.054  10.750  18.648  0.00  0.00    +0.000 A 
ATOM      8  C   UNL     1      10.519  12.076  18.646  0.00  0.00    +0.000 A 
ATOM      9  C   UNL     1       9.725  13.084  18.092  0.00  0.00    +0.000 A 
ATOM     10  C   UNL     1       8.482  12.777  17.564  0.00  0.00    +0.000 A 
ATOM     11  F   UNL     1       7.700  13.724  17.028  0.00  0.00    +0.000 F 
ATOM     12  C   UNL     1       8.020  11.462  17.564  0.00  0.00    +0.000 A 
BRANCH   9  13
ATOM     13  S   UNL     1      10.275  14.750  18.038  0.00  0.00    +0.000 S 
ATOM     14  O   UNL     1       9.144  15.629  18.208  0.00  0.00    +0.000 OA
ATOM     15  O   UNL     1      11.470  14.870  18.843  0.00  0.00    +0.000 OA
BRANCH  13  16
ATOM     16  N   UNL     1      10.802  14.920  16.452  0.00  0.00    +0.000 NA
ATOM     17  H   UNL     1      10.453  15.796  16.059  0.00  0.00    +0.000 HD
ATOM     18  H   UNL     1      11.814  14.812  16.399  0.00  0.00    +0.000 HD
ENDBRANCH  13  16
ENDBRANCH   9  13
ENDBRANCH   4   6
BRANCH   1  23
ATOM     19  C   UNL     1       4.842   4.336  17.948  0.00  0.00    +0.000 A 
ATOM     20  C   UNL     1       4.503   4.268  16.591  0.00  0.00    +0.000 A 
ATOM     21  C   UNL     1       5.143   5.085  15.657  0.00  0.00    +0.000 A 
ATOM     22  C   UNL     1       6.110   6.005  16.067  0.00  0.00    +0.000 A 
ATOM     23  C   UNL     1       6.441   6.130  17.421  0.00  0.00    +0.000 A 
ATOM     24  C   UNL     1       5.813   5.274  18.350  0.00  0.00    +0.000 A 
BRANCH  19  25
ATOM     25  C   UNL     1       4.201   3.396  18.942  0.00  0.00    +0.000 C 
BRANCH  25  31
ATOM     26  C   UNL     1       1.373   2.079  18.632  0.00  0.00    +0.000 C 
ATOM     27  C   UNL     1       1.695   3.307  19.403  0.00  0.00    +0.000 A 
ATOM     28  N   UNL     1       0.819   3.984  20.120  0.00  0.00    +0.000 NA
ATOM     29  C   UNL     1       1.510   5.017  20.688  0.00  0.00    +0.000 A 
ATOM     30  C   UNL     1       2.831   4.977  20.315  0.00  0.00    +0.000 A 
ATOM     31  N   UNL     1       2.941   3.896  19.480  0.00  0.00    +0.000 N 
ENDBRANCH  25  31
ENDBRANCH  19  25
ENDBRANCH   1  23
TORSDOF 6
ENDMDL
