MODEL 1
REMARK VINA RESULT:      -8.3      0.000      0.000
REMARK  Name = 
REMARK  6 active torsions:
REMARK  status: ('A' for Active; 'I' for Inactive)
REMARK    1  A    between atoms: C_1  and  N_2
REMARK    2  A    between atoms: N_2  and  C_3
REMARK    3  A    between atoms: N_2  and  S_4
REMARK    4  A    between atoms: S_4  and  C_7
REMARK    5  A    between atoms: C_9  and  C_10
REMARK    6  A    between atoms: C_20  and  C_21
REMARK                            x       y       z     vdW  Elec       q    Type
REMARK                         _______ _______ _______ _____ _____    ______ ____
ROOT
ATOM      1  C   UNL     1       2.279   9.236  18.053  0.00  0.00    +0.000 C 
ATOM      2  O   UNL     1       2.529  10.090  17.209  0.00  0.00    +0.000 OA
ATOM      3  N   UNL     1       2.952   8.008  18.094  0.00  0.00    +0.000 N 
ATOM      4  C   UNL     1       4.109   7.851  17.211  0.00  0.00    +0.000 C 
ATOM      5  C   UNL     1       4.438   6.420  16.834  0.00  0.00    +0.000 A 
ATOM      6  C   UNL     1       5.084   6.152  15.619  0.00  0.00    +0.000 A 
ATOM      7  C   UNL     1       5.431   4.845  15.281  0.00  0.00    +0.000 A 
ATOM      8  C   UNL     1       5.175   3.801  16.166  0.00  0.00    +0.000 A 
ATOM      9  C   UNL     1       4.551   4.055  17.386  0.00  0.00    +0.000 A 
ATOM     10  C   UNL     1       4.145   5.355  17.715  0.00  0.00    +0.000 A 
ATOM     11  C   UNL     1       3.382   5.690  18.982  0.00  0.00    +0.000 C 
ATOM     12  C   UNL     1       2.347   6.774  18.608  0.00  0.00    +0.000 C 
ENDROOT
BRANCH  11  13
ATOM     13  C   UNL     1       2.654   4.546  19.675  0.00  0.00    +0.000 A 
ATOM     14  C   UNL     1       3.067   4.116  20.946  0.00  0.00    +0.000 A 
ATOM     15  C   UNL     1       2.331   3.155  21.642  0.00  0.00    +0.000 A 
ATOM     16  C   UNL     1       1.178   2.612  21.077  0.00  0.00    +0.000 A 
ATOM     17  C   UNL     1       0.776   3.003  19.804  0.00  0.00    +0.000 A 
ATOM     18  C   UNL     1       1.513   3.956  19.103  0.00  0.00    +0.000 A 
ENDBRANCH  11  13
BRANCH   1  21
ATOM     19  C   UNL     1       0.179   9.839  21.046  0.00  0.00    +0.000 A 
ATOM     20  C   UNL     1       1.426   9.621  20.485  0.00  0.00    +0.000 A 
ATOM     21  C   UNL     1       1.279   9.497  19.080  0.00  0.00    +0.000 A 
ATOM     22  C   UNL     1      -0.053   9.773  18.842  0.00  0.00    +0.000 A 
ATOM     23  O   UNL     1      -0.730   9.945  20.015  0.00  0.00    +0.000 OA
BRANCH  19  24
ATOM     24  S   UNL     1      -0.282   9.940  22.778  0.00  0.00    +0.000 S 
ATOM     25  O   UNL     1       0.952   9.745  23.506  0.00  0.00    +0.000 OA
ATOM     26  O   UNL     1      -1.393   9.019  22.900  0.00  0.00    +0.000 OA
BRANCH  24  28
ATOM     27  C   UNL     1      -0.358  12.542  22.133  0.00  0.00    +0.000 C 
ATOM     28  N   UNL     1      -0.860  11.515  23.064  0.00  0.00    +0.000 NA
ATOM     29  C   UNL     1      -2.308  11.615  23.323  0.00  0.00    +0.000 C 
ENDBRANCH  24  28
ENDBRANCH  19  24
ENDBRANCH   1  21
TORSDOF 4
ENDMDL
MODEL 2
REMARK VINA RESULT:      -8.1      4.672      6.973
REMARK  Name = 
REMARK  6 active torsions:
REMARK  status: ('A' for Active; 'I' for Inactive)
REMARK    1  A    between atoms: C_1  and  N_2
REMARK    2  A    between atoms: N_2  and  C_3
REMARK    3  A    between atoms: N_2  and  S_4
REMARK    4  A    between atoms: S_4  and  C_7
REMARK    5  A    between atoms: C_9  and  C_10
REMARK    6  A    between atoms: C_20  and  C_21
REMARK                            x       y       z     vdW  Elec       q    Type
REMARK                         _______ _______ _______ _____ _____    ______ ____
ROOT
ATOM      1  C   UNL     1       7.196   6.059  17.885  0.00  0.00    +0.000 C 
ATOM      2  O   UNL     1       7.988   5.210  17.488  0.00  0.00    +0.000 OA
ATOM      3  N   UNL     1       5.897   5.734  18.298  0.00  0.00    +0.000 N 
ATOM      4  C   UNL     1       5.575   4.313  18.429  0.00  0.00    +0.000 C 
ATOM      5  C   UNL     1       4.104   3.974  18.290  0.00  0.00    +0.000 A 
ATOM      6  C   UNL     1       3.723   2.708  17.825  0.00  0.00    +0.000 A 
ATOM      7  C   UNL     1       2.374   2.368  17.735  0.00  0.00    +0.000 A 
ATOM      8  C   UNL     1       1.396   3.271  18.145  0.00  0.00    +0.000 A 
ATOM      9  C   UNL     1       1.761   4.526  18.629  0.00  0.00    +0.000 A 
ATOM     10  C   UNL     1       3.109   4.902  18.672  0.00  0.00    +0.000 A 
ATOM     11  C   UNL     1       3.573   6.282  19.100  0.00  0.00    +0.000 C 
ATOM     12  C   UNL     1       4.762   6.657  18.188  0.00  0.00    +0.000 C 
ENDROOT
BRANCH  11  13
ATOM     13  C   UNL     1       2.547   7.405  19.044  0.00  0.00    +0.000 A 
ATOM     14  C   UNL     1       1.864   7.794  20.206  0.00  0.00    +0.000 A 
ATOM     15  C   UNL     1       1.016   8.903  20.191  0.00  0.00    +0.000 A 
ATOM     16  C   UNL     1       0.839   9.633  19.018  0.00  0.00    +0.000 A 
ATOM     17  C   UNL     1       1.482   9.239  17.849  0.00  0.00    +0.000 A 
ATOM     18  C   UNL     1       2.323   8.128  17.858  0.00  0.00    +0.000 A 
ENDBRANCH  11  13
BRANCH   1  21
ATOM     19  C   UNL     1       8.594   9.428  18.541  0.00  0.00    +0.000 A 
ATOM     20  C   UNL     1       8.584   8.067  18.797  0.00  0.00    +0.000 A 
ATOM     21  C   UNL     1       7.607   7.455  17.972  0.00  0.00    +0.000 A 
ATOM     22  C   UNL     1       7.153   8.471  17.155  0.00  0.00    +0.000 A 
ATOM     23  O   UNL     1       7.711   9.665  17.510  0.00  0.00    +0.000 OA
BRANCH  19  24
ATOM     24  S   UNL     1       9.516  10.729  19.366  0.00  0.00    +0.000 S 
ATOM     25  O   UNL     1      10.849  10.651  18.814  0.00  0.00    +0.000 OA
ATOM     26  O   UNL     1       9.259  10.504  20.774  0.00  0.00    +0.000 OA
BRANCH  24  28
ATOM     27  C   UNL     1       8.825  13.247  19.977  0.00  0.00    +0.000 C 
ATOM     28  N   UNL     1       8.811  12.215  18.925  0.00  0.00    +0.000 NA
ATOM     29  C   UNL     1       9.198  12.724  17.597  0.00  0.00    +0.000 C 
ENDBRANCH  24  28
ENDBRANCH  19  24
ENDBRANCH   1  21
TORSDOF 4
ENDMDL
MODEL 3
REMARK VINA RESULT:      -7.9      0.954      1.414
REMARK  Name = 
REMARK  6 active torsions:
REMARK  status: ('A' for Active; 'I' for Inactive)
REMARK    1  A    between atoms: C_1  and  N_2
REMARK    2  A    between atoms: N_2  and  C_3
REMARK    3  A    between atoms: N_2  and  S_4
REMARK    4  A    between atoms: S_4  and  C_7
REMARK    5  A    between atoms: C_9  and  C_10
REMARK    6  A    between atoms: C_20  and  C_21
REMARK                            x       y       z     vdW  Elec       q    Type
REMARK                         _______ _______ _______ _____ _____    ______ ____
ROOT
ATOM      1  C   UNL     1       2.084   9.569  17.996  0.00  0.00    +0.000 C 
ATOM      2  O   UNL     1       2.403  10.388  17.141  0.00  0.00    +0.000 OA
ATOM      3  N   UNL     1       2.755   8.349  18.150  0.00  0.00    +0.000 N 
ATOM      4  C   UNL     1       3.985   8.163  17.379  0.00  0.00    +0.000 C 
ATOM      5  C   UNL     1       4.351   6.720  17.095  0.00  0.00    +0.000 A 
ATOM      6  C   UNL     1       5.102   6.404  15.955  0.00  0.00    +0.000 A 
ATOM      7  C   UNL     1       5.482   5.087  15.705  0.00  0.00    +0.000 A 
ATOM      8  C   UNL     1       5.153   4.080  16.609  0.00  0.00    +0.000 A 
ATOM      9  C   UNL     1       4.423   4.381  17.758  0.00  0.00    +0.000 A 
ATOM     10  C   UNL     1       3.986   5.691  17.992  0.00  0.00    +0.000 A 
ATOM     11  C   UNL     1       3.112   6.075  19.173  0.00  0.00    +0.000 C 
ATOM     12  C   UNL     1       2.110   7.135  18.662  0.00  0.00    +0.000 C 
ENDROOT
BRANCH  11  13
ATOM     13  C   UNL     1       2.330   4.957  19.848  0.00  0.00    +0.000 A 
ATOM     14  C   UNL     1       1.374   4.229  19.123  0.00  0.00    +0.000 A 
ATOM     15  C   UNL     1       0.744   3.122  19.696  0.00  0.00    +0.000 A 
ATOM     16  C   UNL     1       1.058   2.733  20.996  0.00  0.00    +0.000 A 
ATOM     17  C   UNL     1       1.978   3.466  21.740  0.00  0.00    +0.000 A 
ATOM     18  C   UNL     1       2.604   4.576  21.174  0.00  0.00    +0.000 A 
ENDBRANCH  11  13
BRANCH   1  21
ATOM     19  C   UNL     1      -0.263  10.544  20.694  0.00  0.00    +0.000 A 
ATOM     20  C   UNL     1       1.021  10.527  20.175  0.00  0.00    +0.000 A 
ATOM     21  C   UNL     1       0.996   9.867  18.920  0.00  0.00    +0.000 A 
ATOM     22  C   UNL     1      -0.341   9.624  18.678  0.00  0.00    +0.000 A 
ATOM     23  O   UNL     1      -1.102   9.993  19.751  0.00  0.00    +0.000 OA
BRANCH  19  24
ATOM     24  S   UNL     1      -0.827  11.117  22.299  0.00  0.00    +0.000 S 
ATOM     25  O   UNL     1       0.100  12.162  22.671  0.00  0.00    +0.000 OA
ATOM     26  O   UNL     1      -0.962   9.904  23.078  0.00  0.00    +0.000 OA
BRANCH  24  28
ATOM     27  C   UNL     1      -3.030  12.254  23.324  0.00  0.00    +0.000 C 
ATOM     28  N   UNL     1      -2.376  11.791  22.087  0.00  0.00    +0.000 NA
ATOM     29  C   UNL     1      -2.500  12.740  20.966  0.00  0.00    +0.000 C 
ENDBRANCH  24  28
ENDBRANCH  19  24
ENDBRANCH   1  21
TORSDOF 4
ENDMDL
MODEL 4
REMARK VINA RESULT:      -7.7      0.687      1.125
REMARK  Name = 
REMARK  6 active torsions:
REMARK  status: ('A' for Active; 'I' for Inactive)
REMARK    1  A    between atoms: C_1  and  N_2
REMARK    2  A    between atoms: N_2  and  C_3
REMARK    3  A    between atoms: N_2  and  S_4
REMARK    4  A    between atoms: S_4  and  C_7
REMARK    5  A    between atoms: C_9  and  C_10
REMARK    6  A    between atoms: C_20  and  C_21
REMARK                            x       y       z     vdW  Elec       q    Type
REMARK                         _______ _______ _______ _____ _____    ______ ____
ROOT
ATOM      1  C   UNL     1       2.166   9.494  18.009  0.00  0.00    +0.000 C 
ATOM      2  O   UNL     1       2.470  10.306  17.140  0.00  0.00    +0.000 OA
ATOM      3  N   UNL     1       2.814   8.259  18.136  0.00  0.00    +0.000 N 
ATOM      4  C   UNL     1       4.008   8.044  17.317  0.00  0.00    +0.000 C 
ATOM      5  C   UNL     1       4.329   6.593  17.019  0.00  0.00    +0.000 A 
ATOM      6  C   UNL     1       5.026   6.260  15.850  0.00  0.00    +0.000 A 
ATOM      7  C   UNL     1       5.365   4.934  15.587  0.00  0.00    +0.000 A 
ATOM      8  C   UNL     1       5.049   3.935  16.504  0.00  0.00    +0.000 A 
ATOM      9  C   UNL     1       4.373   4.253  17.681  0.00  0.00    +0.000 A 
ATOM     10  C   UNL     1       3.976   5.573  17.932  0.00  0.00    +0.000 A 
ATOM     11  C   UNL     1       3.160   5.977  19.145  0.00  0.00    +0.000 C 
ATOM     12  C   UNL     1       2.163   7.059  18.674  0.00  0.00    +0.000 C 
ENDROOT
BRANCH  11  13
ATOM     13  C   UNL     1       2.380   4.877  19.853  0.00  0.00    +0.000 A 
ATOM     14  C   UNL     1       1.397   4.154  19.160  0.00  0.00    +0.000 A 
ATOM     15  C   UNL     1       0.766   3.063  19.761  0.00  0.00    +0.000 A 
ATOM     16  C   UNL     1       1.107   2.683  21.057  0.00  0.00    +0.000 A 
ATOM     17  C   UNL     1       2.055   3.412  21.769  0.00  0.00    +0.000 A 
ATOM     18  C   UNL     1       2.681   4.506  21.176  0.00  0.00    +0.000 A 
ENDBRANCH  11  13
BRANCH   1  21
ATOM     19  C   UNL     1      -0.042  10.418  20.837  0.00  0.00    +0.000 A 
ATOM     20  C   UNL     1       1.231  10.285  20.309  0.00  0.00    +0.000 A 
ATOM     21  C   UNL     1       1.123   9.817  18.974  0.00  0.00    +0.000 A 
ATOM     22  C   UNL     1      -0.232   9.807  18.714  0.00  0.00    +0.000 A 
ATOM     23  O   UNL     1      -0.943  10.132  19.834  0.00  0.00    +0.000 OA
BRANCH  19  24
ATOM     24  S   UNL     1      -0.535  10.839  22.511  0.00  0.00    +0.000 S 
ATOM     25  O   UNL     1       0.381  10.118  23.364  0.00  0.00    +0.000 OA
ATOM     26  O   UNL     1      -1.961  10.583  22.533  0.00  0.00    +0.000 OA
BRANCH  24  28
ATOM     27  C   UNL     1       0.252  13.209  21.532  0.00  0.00    +0.000 C 
ATOM     28  N   UNL     1      -0.290  12.512  22.712  0.00  0.00    +0.000 NA
ATOM     29  C   UNL     1      -1.397  13.236  23.364  0.00  0.00    +0.000 C 
ENDBRANCH  24  28
ENDBRANCH  19  24
ENDBRANCH   1  21
TORSDOF 4
ENDMDL
MODEL 5
REMARK VINA RESULT:      -7.3      3.231      8.529
REMARK  Name = 
REMARK  6 active torsions:
REMARK  status: ('A' for Active; 'I' for Inactive)
REMARK    1  A    between atoms: C_1  and  N_2
REMARK    2  A    between atoms: N_2  and  C_3
REMARK    3  A    between atoms: N_2  and  S_4
REMARK    4  A    between atoms: S_4  and  C_7
REMARK    5  A    between atoms: C_9  and  C_10
REMARK    6  A    between atoms: C_20  and  C_21
REMARK                            x       y       z     vdW  Elec       q    Type
REMARK                         _______ _______ _______ _____ _____    ______ ____
ROOT
ATOM      1  C   UNL     1       1.093   9.315  21.491  0.00  0.00    +0.000 C 
ATOM      2  O   UNL     1       1.531   9.304  22.637  0.00  0.00    +0.000 OA
ATOM      3  N   UNL     1       0.186  10.286  21.047  0.00  0.00    +0.000 N 
ATOM      4  C   UNL     1      -0.076  11.413  21.944  0.00  0.00    +0.000 C 
ATOM      5  C   UNL     1      -1.416  12.091  21.745  0.00  0.00    +0.000 A 
ATOM      6  C   UNL     1      -2.032  12.744  22.822  0.00  0.00    +0.000 A 
ATOM      7  C   UNL     1      -3.243  13.409  22.642  0.00  0.00    +0.000 A 
ATOM      8  C   UNL     1      -3.831  13.464  21.381  0.00  0.00    +0.000 A 
ATOM      9  C   UNL     1      -3.221  12.837  20.296  0.00  0.00    +0.000 A 
ATOM     10  C   UNL     1      -2.033  12.117  20.474  0.00  0.00    +0.000 A 
ATOM     11  C   UNL     1      -1.361  11.335  19.360  0.00  0.00    +0.000 C 
ATOM     12  C   UNL     1      -0.805  10.041  19.994  0.00  0.00    +0.000 C 
ENDROOT
BRANCH  11  13
ATOM     13  C   UNL     1      -2.224  10.956  18.164  0.00  0.00    +0.000 A 
ATOM     14  C   UNL     1      -3.451  11.603  17.946  0.00  0.00    +0.000 A 
ATOM     15  C   UNL     1      -4.188  11.352  16.787  0.00  0.00    +0.000 A 
ATOM     16  C   UNL     1      -3.711  10.452  15.836  0.00  0.00    +0.000 A 
ATOM     17  C   UNL     1      -2.514   9.776  16.054  0.00  0.00    +0.000 A 
ATOM     18  C   UNL     1      -1.780  10.019  17.214  0.00  0.00    +0.000 A 
ENDBRANCH  11  13
BRANCH   1  21
ATOM     19  C   UNL     1       2.141   6.386  19.477  0.00  0.00    +0.000 A 
ATOM     20  C   UNL     1       1.618   6.905  20.649  0.00  0.00    +0.000 A 
ATOM     21  C   UNL     1       1.543   8.316  20.529  0.00  0.00    +0.000 A 
ATOM     22  C   UNL     1       1.912   8.576  19.225  0.00  0.00    +0.000 A 
ATOM     23  O   UNL     1       2.307   7.431  18.595  0.00  0.00    +0.000 OA
BRANCH  19  24
ATOM     24  S   UNL     1       2.593   4.691  19.090  0.00  0.00    +0.000 S 
ATOM     25  O   UNL     1       3.800   4.444  19.845  0.00  0.00    +0.000 OA
ATOM     26  O   UNL     1       2.574   4.644  17.643  0.00  0.00    +0.000 OA
BRANCH  24  28
ATOM     27  C   UNL     1       0.960   2.588  18.770  0.00  0.00    +0.000 C 
ATOM     28  N   UNL     1       1.350   3.685  19.674  0.00  0.00    +0.000 NA
ATOM     29  C   UNL     1       1.490   3.265  21.081  0.00  0.00    +0.000 C 
ENDBRANCH  24  28
ENDBRANCH  19  24
ENDBRANCH   1  21
TORSDOF 4
ENDMDL
MODEL 6
REMARK VINA RESULT:      -7.3      4.712      7.310
REMARK  Name = 
REMARK  6 active torsions:
REMARK  status: ('A' for Active; 'I' for Inactive)
REMARK    1  A    between atoms: C_1  and  N_2
REMARK    2  A    between atoms: N_2  and  C_3
REMARK    3  A    between atoms: N_2  and  S_4
REMARK    4  A    between atoms: S_4  and  C_7
REMARK    5  A    between atoms: C_9  and  C_10
REMARK    6  A    between atoms: C_20  and  C_21
REMARK                            x       y       z     vdW  Elec       q    Type
REMARK                         _______ _______ _______ _____ _____    ______ ____
ROOT
ATOM      1  C   UNL     1       7.286   6.344  17.806  0.00  0.00    +0.000 C 
ATOM      2  O   UNL     1       8.082   5.514  17.381  0.00  0.00    +0.000 OA
ATOM      3  N   UNL     1       5.989   5.999  18.208  0.00  0.00    +0.000 N 
ATOM      4  C   UNL     1       5.675   4.571  18.290  0.00  0.00    +0.000 C 
ATOM      5  C   UNL     1       4.206   4.230  18.140  0.00  0.00    +0.000 A 
ATOM      6  C   UNL     1       3.830   2.979  17.632  0.00  0.00    +0.000 A 
ATOM      7  C   UNL     1       2.484   2.636  17.530  0.00  0.00    +0.000 A 
ATOM      8  C   UNL     1       1.501   3.518  17.971  0.00  0.00    +0.000 A 
ATOM      9  C   UNL     1       1.859   4.758  18.498  0.00  0.00    +0.000 A 
ATOM     10  C   UNL     1       3.206   5.139  18.553  0.00  0.00    +0.000 A 
ATOM     11  C   UNL     1       3.663   6.506  19.028  0.00  0.00    +0.000 C 
ATOM     12  C   UNL     1       4.850   6.919  18.130  0.00  0.00    +0.000 C 
ENDROOT
BRANCH  11  13
ATOM     13  C   UNL     1       2.631   7.625  19.010  0.00  0.00    +0.000 A 
ATOM     14  C   UNL     1       2.348   8.303  17.814  0.00  0.00    +0.000 A 
ATOM     15  C   UNL     1       1.316   9.243  17.760  0.00  0.00    +0.000 A 
ATOM     16  C   UNL     1       0.559   9.517  18.897  0.00  0.00    +0.000 A 
ATOM     17  C   UNL     1       0.851   8.879  20.099  0.00  0.00    +0.000 A 
ATOM     18  C   UNL     1       1.885   7.947  20.159  0.00  0.00    +0.000 A 
ENDBRANCH  11  13
BRANCH   1  21
ATOM     19  C   UNL     1       8.631   9.703  18.608  0.00  0.00    +0.000 A 
ATOM     20  C   UNL     1       8.601   8.340  18.847  0.00  0.00    +0.000 A 
ATOM     21  C   UNL     1       7.690   7.738  17.941  0.00  0.00    +0.000 A 
ATOM     22  C   UNL     1       7.301   8.764  17.103  0.00  0.00    +0.000 A 
ATOM     23  O   UNL     1       7.831   9.953  17.514  0.00  0.00    +0.000 OA
BRANCH  19  24
ATOM     24  S   UNL     1       9.487  10.993  19.517  0.00  0.00    +0.000 S 
ATOM     25  O   UNL     1       9.564  10.506  20.875  0.00  0.00    +0.000 OA
ATOM     26  O   UNL     1       8.762  12.201  19.179  0.00  0.00    +0.000 OA
BRANCH  24  28
ATOM     27  C   UNL     1      11.132  11.656  17.505  0.00  0.00    +0.000 C 
ATOM     28  N   UNL     1      11.058  11.116  18.874  0.00  0.00    +0.000 NA
ATOM     29  C   UNL     1      12.067  11.688  19.786  0.00  0.00    +0.000 C 
ENDBRANCH  24  28
ENDBRANCH  19  24
ENDBRANCH   1  21
TORSDOF 4
ENDMDL
MODEL 7
REMARK VINA RESULT:      -7.2      3.215      8.648
REMARK  Name = 
REMARK  6 active torsions:
REMARK  status: ('A' for Active; 'I' for Inactive)
REMARK    1  A    between atoms: C_1  and  N_2
REMARK    2  A    between atoms: N_2  and  C_3
REMARK    3  A    between atoms: N_2  and  S_4
REMARK    4  A    between atoms: S_4  and  C_7
REMARK    5  A    between atoms: C_9  and  C_10
REMARK    6  A    between atoms: C_20  and  C_21
REMARK                            x       y       z     vdW  Elec       q    Type
REMARK                         _______ _______ _______ _____ _____    ______ ____
ROOT
ATOM      1  C   UNL     1       1.093   9.307  21.394  0.00  0.00    +0.000 C 
ATOM      2  O   UNL     1       1.528   9.269  22.541  0.00  0.00    +0.000 OA
ATOM      3  N   UNL     1       0.152  10.260  20.983  0.00  0.00    +0.000 N 
ATOM      4  C   UNL     1      -0.154  11.342  21.920  0.00  0.00    +0.000 C 
ATOM      5  C   UNL     1      -1.519  11.977  21.742  0.00  0.00    +0.000 A 
ATOM      6  C   UNL     1      -2.162  12.565  22.839  0.00  0.00    +0.000 A 
ATOM      7  C   UNL     1      -3.396  13.191  22.679  0.00  0.00    +0.000 A 
ATOM      8  C   UNL     1      -3.982  13.272  21.418  0.00  0.00    +0.000 A 
ATOM      9  C   UNL     1      -3.345  12.709  20.313  0.00  0.00    +0.000 A 
ATOM     10  C   UNL     1      -2.132  12.028  20.469  0.00  0.00    +0.000 A 
ATOM     11  C   UNL     1      -1.428  11.314  19.330  0.00  0.00    +0.000 C 
ATOM     12  C   UNL     1      -0.826  10.018  19.917  0.00  0.00    +0.000 C 
ENDROOT
BRANCH  11  13
ATOM     13  C   UNL     1      -2.272  10.948  18.116  0.00  0.00    +0.000 A 
ATOM     14  C   UNL     1      -3.493  11.600  17.886  0.00  0.00    +0.000 A 
ATOM     15  C   UNL     1      -4.212  11.362  16.712  0.00  0.00    +0.000 A 
ATOM     16  C   UNL     1      -3.723  10.470  15.760  0.00  0.00    +0.000 A 
ATOM     17  C   UNL     1      -2.531   9.789  15.991  0.00  0.00    +0.000 A 
ATOM     18  C   UNL     1      -1.815  10.019  17.165  0.00  0.00    +0.000 A 
ENDBRANCH  11  13
BRANCH   1  21
ATOM     19  C   UNL     1       2.262   6.498  19.279  0.00  0.00    +0.000 A 
ATOM     20  C   UNL     1       1.722   6.953  20.470  0.00  0.00    +0.000 A 
ATOM     21  C   UNL     1       1.583   8.362  20.398  0.00  0.00    +0.000 A 
ATOM     22  C   UNL     1       1.935   8.684  19.102  0.00  0.00    +0.000 A 
ATOM     23  O   UNL     1       2.378   7.579  18.432  0.00  0.00    +0.000 OA
BRANCH  19  24
ATOM     24  S   UNL     1       2.787   4.840  18.833  0.00  0.00    +0.000 S 
ATOM     25  O   UNL     1       1.865   4.419  17.804  0.00  0.00    +0.000 OA
ATOM     26  O   UNL     1       2.881   4.148  20.103  0.00  0.00    +0.000 OA
BRANCH  24  28
ATOM     27  C   UNL     1       5.422   5.231  19.147  0.00  0.00    +0.000 C 
ATOM     28  N   UNL     1       4.351   4.957  18.172  0.00  0.00    +0.000 NA
ATOM     29  C   UNL     1       4.701   3.910  17.195  0.00  0.00    +0.000 C 
ENDBRANCH  24  28
ENDBRANCH  19  24
ENDBRANCH   1  21
TORSDOF 4
ENDMDL
MODEL 8
REMARK VINA RESULT:      -7.1      1.290      1.828
REMARK  Name = 
REMARK  6 active torsions:
REMARK  status: ('A' for Active; 'I' for Inactive)
REMARK    1  A    between atoms: C_1  and  N_2
REMARK    2  A    between atoms: N_2  and  C_3
REMARK    3  A    between atoms: N_2  and  S_4
REMARK    4  A    between atoms: S_4  and  C_7
REMARK    5  A    between atoms: C_9  and  C_10
REMARK    6  A    between atoms: C_20  and  C_21
REMARK                            x       y       z     vdW  Elec       q    Type
REMARK                         _______ _______ _______ _____ _____    ______ ____
ROOT
ATOM      1  C   UNL     1       2.204   9.483  18.140  0.00  0.00    +0.000 C 
ATOM      2  O   UNL     1       2.496  10.308  17.280  0.00  0.00    +0.000 OA
ATOM      3  N   UNL     1       2.842   8.239  18.227  0.00  0.00    +0.000 N 
ATOM      4  C   UNL     1       4.014   8.029  17.375  0.00  0.00    +0.000 C 
ATOM      5  C   UNL     1       4.312   6.581  17.042  0.00  0.00    +0.000 A 
ATOM      6  C   UNL     1       4.978   6.264  15.850  0.00  0.00    +0.000 A 
ATOM      7  C   UNL     1       5.296   4.941  15.552  0.00  0.00    +0.000 A 
ATOM      8  C   UNL     1       4.993   3.927  16.457  0.00  0.00    +0.000 A 
ATOM      9  C   UNL     1       4.348   4.228  17.656  0.00  0.00    +0.000 A 
ATOM     10  C   UNL     1       3.971   5.546  17.942  0.00  0.00    +0.000 A 
ATOM     11  C   UNL     1       3.189   5.934  19.183  0.00  0.00    +0.000 C 
ATOM     12  C   UNL     1       2.192   7.036  18.757  0.00  0.00    +0.000 C 
ENDROOT
BRANCH  11  13
ATOM     13  C   UNL     1       2.415   4.828  19.887  0.00  0.00    +0.000 A 
ATOM     14  C   UNL     1       1.403   4.133  19.206  0.00  0.00    +0.000 A 
ATOM     15  C   UNL     1       0.775   3.036  19.800  0.00  0.00    +0.000 A 
ATOM     16  C   UNL     1       1.148   2.624  21.078  0.00  0.00    +0.000 A 
ATOM     17  C   UNL     1       2.125   3.324  21.779  0.00  0.00    +0.000 A 
ATOM     18  C   UNL     1       2.748   4.424  21.193  0.00  0.00    +0.000 A 
ENDBRANCH  11  13
BRANCH   1  21
ATOM     19  C   UNL     1      -0.414  10.803  20.406  0.00  0.00    +0.000 A 
ATOM     20  C   UNL     1       0.384  10.956  19.285  0.00  0.00    +0.000 A 
ATOM     21  C   UNL     1       1.188   9.797  19.137  0.00  0.00    +0.000 A 
ATOM     22  C   UNL     1       0.742   8.933  20.117  0.00  0.00    +0.000 A 
ATOM     23  O   UNL     1      -0.194   9.538  20.906  0.00  0.00    +0.000 OA
BRANCH  19  24
ATOM     24  S   UNL     1      -1.532  11.982  21.169  0.00  0.00    +0.000 S 
ATOM     25  O   UNL     1      -1.794  11.450  22.487  0.00  0.00    +0.000 OA
ATOM     26  O   UNL     1      -2.586  12.152  20.191  0.00  0.00    +0.000 OA
BRANCH  24  28
ATOM     27  C   UNL     1      -0.907  14.407  20.208  0.00  0.00    +0.000 C 
ATOM     28  N   UNL     1      -0.696  13.458  21.316  0.00  0.00    +0.000 NA
ATOM     29  C   UNL     1      -0.761  14.087  22.648  0.00  0.00    +0.000 C 
ENDBRANCH  24  28
ENDBRANCH  19  24
ENDBRANCH   1  21
TORSDOF 4
ENDMDL
MODEL 9
REMARK VINA RESULT:      -7.1      3.303      8.484
REMARK  Name = 
REMARK  6 active torsions:
REMARK  status: ('A' for Active; 'I' for Inactive)
REMARK    1  A    between atoms: C_1  and  N_2
REMARK    2  A    between atoms: N_2  and  C_3
REMARK    3  A    between atoms: N_2  and  S_4
REMARK    4  A    between atoms: S_4  and  C_7
REMARK    5  A    between atoms: C_9  and  C_10
REMARK    6  A    between atoms: C_20  and  C_21
REMARK                            x       y       z     vdW  Elec       q    Type
REMARK                         _______ _______ _______ _____ _____    ______ ____
ROOT
ATOM      1  C   UNL     1       1.263   8.960  21.332  0.00  0.00    +0.000 C 
ATOM      2  O   UNL     1       1.681   8.917  22.485  0.00  0.00    +0.000 OA
ATOM      3  N   UNL     1       0.396   9.967  20.889  0.00  0.00    +0.000 N 
ATOM      4  C   UNL     1       0.155  11.088  21.800  0.00  0.00    +0.000 C 
ATOM      5  C   UNL     1      -1.159  11.812  21.590  0.00  0.00    +0.000 A 
ATOM      6  C   UNL     1      -1.773  12.468  22.666  0.00  0.00    +0.000 A 
ATOM      7  C   UNL     1      -2.959  13.174  22.477  0.00  0.00    +0.000 A 
ATOM      8  C   UNL     1      -3.522  13.269  21.208  0.00  0.00    +0.000 A 
ATOM      9  C   UNL     1      -2.914  12.639  20.123  0.00  0.00    +0.000 A 
ATOM     10  C   UNL     1      -1.753  11.878  20.309  0.00  0.00    +0.000 A 
ATOM     11  C   UNL     1      -1.087  11.093  19.193  0.00  0.00    +0.000 C 
ATOM     12  C   UNL     1      -0.584   9.771  19.815  0.00  0.00    +0.000 C 
ENDROOT
BRANCH  11  13
ATOM     13  C   UNL     1      -1.941  10.760  17.977  0.00  0.00    +0.000 A 
ATOM     14  C   UNL     1      -2.842   9.685  18.022  0.00  0.00    +0.000 A 
ATOM     15  C   UNL     1      -3.717   9.450  16.959  0.00  0.00    +0.000 A 
ATOM     16  C   UNL     1      -3.701  10.283  15.842  0.00  0.00    +0.000 A 
ATOM     17  C   UNL     1      -2.789  11.332  15.768  0.00  0.00    +0.000 A 
ATOM     18  C   UNL     1      -1.909  11.564  16.823  0.00  0.00    +0.000 A 
ENDBRANCH  11  13
BRANCH   1  21
ATOM     19  C   UNL     1       2.259   6.032  19.291  0.00  0.00    +0.000 A 
ATOM     20  C   UNL     1       1.739   6.549  20.466  0.00  0.00    +0.000 A 
ATOM     21  C   UNL     1       1.697   7.962  20.362  0.00  0.00    +0.000 A 
ATOM     22  C   UNL     1       2.083   8.230  19.064  0.00  0.00    +0.000 A 
ATOM     23  O   UNL     1       2.456   7.084  18.423  0.00  0.00    +0.000 OA
BRANCH  19  24
ATOM     24  S   UNL     1       2.674   4.332  18.888  0.00  0.00    +0.000 S 
ATOM     25  O   UNL     1       1.871   4.016  17.729  0.00  0.00    +0.000 OA
ATOM     26  O   UNL     1       2.517   3.625  20.142  0.00  0.00    +0.000 OA
BRANCH  24  28
ATOM     27  C   UNL     1       4.586   4.270  17.007  0.00  0.00    +0.000 C 
ATOM     28  N   UNL     1       4.321   4.295  18.457  0.00  0.00    +0.000 NA
ATOM     29  C   UNL     1       5.185   5.235  19.195  0.00  0.00    +0.000 C 
ENDBRANCH  24  28
ENDBRANCH  19  24
ENDBRANCH   1  21
TORSDOF 4
ENDMDL
