MODEL 1
REMARK VINA RESULT:      -8.6      0.000      0.000
REMARK  Name = 
REMARK  4 active torsions:
REMARK  status: ('A' for Active; 'I' for Inactive)
REMARK    1  A    between atoms: C_2  and  C_14
REMARK    2  A    between atoms: N_3  and  C_4
REMARK    3  A    between atoms: C_4  and  C_5
REMARK    4  A    between atoms: N_19  and  C_20
REMARK                            x       y       z     vdW  Elec       q    Type
REMARK                         _______ _______ _______ _____ _____    ______ ____
ROOT
ATOM      1  O   UNL     1       1.547   8.187  21.587  0.00  0.00    +0.000 OA
ATOM      2  C   UNL     1       1.692   7.861  20.416  0.00  0.00    +0.000 C 
ATOM      3  N   UNL     1       1.477   8.705  19.358  0.00  0.00    +0.000 N 
ATOM      4  H   UNL     1       1.573   8.367  18.403  0.00  0.00    +0.000 HD
ENDROOT
BRANCH   2   5
ATOM      5  C   UNL     1       2.121   6.428  20.071  0.00  0.00    +0.000 A 
ATOM      6  C   UNL     1       1.275   5.370  20.652  0.00  0.00    +0.000 A 
ATOM      7  C   UNL     1       1.547   4.118  20.296  0.00  0.00    +0.000 A 
ATOM      8  C   UNL     1       2.654   3.806  19.367  0.00  0.00    +0.000 A 
ATOM      9  O   UNL     1       2.811   2.619  19.090  0.00  0.00    +0.000 OA
ATOM     10  N   UNL     1       3.427   4.898  18.942  0.00  0.00    +0.000 N 
ATOM     11  N   UNL     1       3.149   6.222  19.304  0.00  0.00    +0.000 NA
BRANCH  10  12
ATOM     12  C   UNL     1       4.519   4.757  18.018  0.00  0.00    +0.000 A 
ATOM     13  C   UNL     1       4.327   4.291  16.704  0.00  0.00    +0.000 A 
ATOM     14  C   UNL     1       5.392   4.186  15.804  0.00  0.00    +0.000 A 
ATOM     15  C   UNL     1       6.668   4.532  16.214  0.00  0.00    +0.000 A 
ATOM     16  F   UNL     1       7.689   4.437  15.351  0.00  0.00    +0.000 F 
ATOM     17  C   UNL     1       6.899   4.983  17.506  0.00  0.00    +0.000 A 
ATOM     18  C   UNL     1       5.828   5.106  18.401  0.00  0.00    +0.000 A 
ENDBRANCH  10  12
ENDBRANCH   2   5
BRANCH   3  19
ATOM     19  C   UNL     1       1.041  10.068  19.582  0.00  0.00    +0.000 C 
BRANCH  19  20
ATOM     20  C   UNL     1      -0.253  10.328  18.874  0.00  0.00    +0.000 A 
ATOM     21  N   UNL     1      -0.603   9.801  17.714  0.00  0.00    +0.000 NA
ATOM     22  C   UNL     1      -1.857  10.258  17.364  0.00  0.00    +0.000 A 
ATOM     23  C   UNL     1      -2.446  11.123  18.262  0.00  0.00    +0.000 A 
ATOM     24  S   UNL     1      -1.416  11.392  19.586  0.00  0.00    +0.000 S 
ATOM     25  C   UNL     1      -3.782  11.766  18.086  0.00  0.00    +0.000 C 
ATOM     26  C   UNL     1      -4.569  11.060  16.963  0.00  0.00    +0.000 C 
ATOM     27  C   UNL     1      -3.686  10.749  15.741  0.00  0.00    +0.000 C 
ATOM     28  C   UNL     1      -2.521   9.815  16.105  0.00  0.00    +0.000 C 
ENDBRANCH  19  20
ENDBRANCH   3  19
TORSDOF 4
ENDMDL
MODEL 2
REMARK VINA RESULT:      -8.1      0.780      1.254
REMARK  Name = 
REMARK  4 active torsions:
REMARK  status: ('A' for Active; 'I' for Inactive)
REMARK    1  A    between atoms: C_2  and  C_14
REMARK    2  A    between atoms: N_3  and  C_4
REMARK    3  A    between atoms: C_4  and  C_5
REMARK    4  A    between atoms: N_19  and  C_20
REMARK                            x       y       z     vdW  Elec       q    Type
REMARK                         _______ _______ _______ _____ _____    ______ ____
ROOT
ATOM      1  O   UNL     1       1.330   8.046  21.682  0.00  0.00    +0.000 OA
ATOM      2  C   UNL     1       1.652   7.755  20.538  0.00  0.00    +0.000 C 
ATOM      3  N   UNL     1       1.593   8.629  19.484  0.00  0.00    +0.000 N 
ATOM      4  H   UNL     1       1.833   8.320  18.545  0.00  0.00    +0.000 HD
ENDROOT
BRANCH   2   5
ATOM      5  C   UNL     1       2.137   6.333  20.220  0.00  0.00    +0.000 A 
ATOM      6  C   UNL     1       1.349   5.255  20.842  0.00  0.00    +0.000 A 
ATOM      7  C   UNL     1       1.670   4.007  20.512  0.00  0.00    +0.000 A 
ATOM      8  C   UNL     1       2.772   3.720  19.570  0.00  0.00    +0.000 A 
ATOM      9  O   UNL     1       2.976   2.534  19.320  0.00  0.00    +0.000 OA
ATOM     10  N   UNL     1       3.489   4.834  19.104  0.00  0.00    +0.000 N 
ATOM     11  N   UNL     1       3.159   6.153  19.439  0.00  0.00    +0.000 NA
BRANCH  10  12
ATOM     12  C   UNL     1       4.569   4.717  18.164  0.00  0.00    +0.000 A 
ATOM     13  C   UNL     1       4.345   4.429  16.804  0.00  0.00    +0.000 A 
ATOM     14  C   UNL     1       5.401   4.347  15.892  0.00  0.00    +0.000 A 
ATOM     15  C   UNL     1       6.700   4.538  16.332  0.00  0.00    +0.000 A 
ATOM     16  F   UNL     1       7.712   4.465  15.458  0.00  0.00    +0.000 F 
ATOM     17  C   UNL     1       6.962   4.810  17.668  0.00  0.00    +0.000 A 
ATOM     18  C   UNL     1       5.900   4.910  18.577  0.00  0.00    +0.000 A 
ENDBRANCH  10  12
ENDBRANCH   2   5
BRANCH   3  19
ATOM     19  C   UNL     1       1.119   9.985  19.679  0.00  0.00    +0.000 C 
BRANCH  19  20
ATOM     20  C   UNL     1      -0.161  10.205  18.934  0.00  0.00    +0.000 A 
ATOM     21  N   UNL     1      -1.162  10.959  19.352  0.00  0.00    +0.000 NA
ATOM     22  C   UNL     1      -2.175  10.934  18.415  0.00  0.00    +0.000 A 
ATOM     23  C   UNL     1      -1.931  10.165  17.296  0.00  0.00    +0.000 A 
ATOM     24  S   UNL     1      -0.399   9.439  17.402  0.00  0.00    +0.000 S 
ATOM     25  C   UNL     1      -2.885   9.966  16.166  0.00  0.00    +0.000 C 
ATOM     26  C   UNL     1      -4.018  11.010  16.234  0.00  0.00    +0.000 C 
ATOM     27  C   UNL     1      -4.539  11.210  17.668  0.00  0.00    +0.000 C 
ATOM     28  C   UNL     1      -3.432  11.711  18.610  0.00  0.00    +0.000 C 
ENDBRANCH  19  20
ENDBRANCH   3  19
TORSDOF 4
ENDMDL
MODEL 3
REMARK VINA RESULT:      -7.9      0.903      1.645
REMARK  Name = 
REMARK  4 active torsions:
REMARK  status: ('A' for Active; 'I' for Inactive)
REMARK    1  A    between atoms: C_2  and  C_14
REMARK    2  A    between atoms: N_3  and  C_4
REMARK    3  A    between atoms: C_4  and  C_5
REMARK    4  A    between atoms: N_19  and  C_20
REMARK                            x       y       z     vdW  Elec       q    Type
REMARK                         _______ _______ _______ _____ _____    ______ ____
ROOT
ATOM      1  O   UNL     1       1.597   8.584  21.655  0.00  0.00    +0.000 OA
ATOM      2  C   UNL     1       1.679   8.224  20.488  0.00  0.00    +0.000 C 
ATOM      3  N   UNL     1       1.416   9.038  19.419  0.00  0.00    +0.000 N 
ATOM      4  H   UNL     1       1.459   8.673  18.470  0.00  0.00    +0.000 HD
ENDROOT
BRANCH   2   5
ATOM      5  C   UNL     1       2.078   6.777  20.163  0.00  0.00    +0.000 A 
ATOM      6  C   UNL     1       1.200   5.746  20.744  0.00  0.00    +0.000 A 
ATOM      7  C   UNL     1       1.447   4.484  20.404  0.00  0.00    +0.000 A 
ATOM      8  C   UNL     1       2.557   4.136  19.492  0.00  0.00    +0.000 A 
ATOM      9  O   UNL     1       2.690   2.943  19.230  0.00  0.00    +0.000 OA
ATOM     10  N   UNL     1       3.361   5.205  19.066  0.00  0.00    +0.000 N 
ATOM     11  N   UNL     1       3.110   6.539  19.411  0.00  0.00    +0.000 NA
BRANCH  10  12
ATOM     12  C   UNL     1       4.461   5.029  18.157  0.00  0.00    +0.000 A 
ATOM     13  C   UNL     1       5.788   4.904  18.610  0.00  0.00    +0.000 A 
ATOM     14  C   UNL     1       6.847   4.703  17.719  0.00  0.00    +0.000 A 
ATOM     15  C   UNL     1       6.592   4.641  16.360  0.00  0.00    +0.000 A 
ATOM     16  F   UNL     1       7.606   4.443  15.506  0.00  0.00    +0.000 F 
ATOM     17  C   UNL     1       5.299   4.774  15.875  0.00  0.00    +0.000 A 
ATOM     18  C   UNL     1       4.236   4.956  16.770  0.00  0.00    +0.000 A 
ENDBRANCH  10  12
ENDBRANCH   2   5
BRANCH   3  19
ATOM     19  C   UNL     1       1.003  10.412  19.625  0.00  0.00    +0.000 C 
BRANCH  19  20
ATOM     20  C   UNL     1      -0.382  10.629  19.097  0.00  0.00    +0.000 A 
ATOM     21  N   UNL     1      -1.289  11.417  19.645  0.00  0.00    +0.000 NA
ATOM     22  C   UNL     1      -2.445  11.376  18.893  0.00  0.00    +0.000 A 
ATOM     23  C   UNL     1      -2.403  10.560  17.782  0.00  0.00    +0.000 A 
ATOM     24  S   UNL     1      -0.884   9.809  17.659  0.00  0.00    +0.000 S 
ATOM     25  C   UNL     1      -3.537  10.335  16.838  0.00  0.00    +0.000 C 
ATOM     26  C   UNL     1      -4.628  11.403  17.051  0.00  0.00    +0.000 C 
ATOM     27  C   UNL     1      -4.897  11.668  18.543  0.00  0.00    +0.000 C 
ATOM     28  C   UNL     1      -3.642  12.184  19.264  0.00  0.00    +0.000 C 
ENDBRANCH  19  20
ENDBRANCH   3  19
TORSDOF 4
ENDMDL
MODEL 4
REMARK VINA RESULT:      -7.8      2.637      3.887
REMARK  Name = 
REMARK  4 active torsions:
REMARK  status: ('A' for Active; 'I' for Inactive)
REMARK    1  A    between atoms: C_2  and  C_14
REMARK    2  A    between atoms: N_3  and  C_4
REMARK    3  A    between atoms: C_4  and  C_5
REMARK    4  A    between atoms: N_19  and  C_20
REMARK                            x       y       z     vdW  Elec       q    Type
REMARK                         _______ _______ _______ _____ _____    ______ ____
ROOT
ATOM      1  O   UNL     1       2.382  10.168  17.421  0.00  0.00    +0.000 OA
ATOM      2  C   UNL     1       2.113   9.300  18.240  0.00  0.00    +0.000 C 
ATOM      3  N   UNL     1       1.332   9.511  19.345  0.00  0.00    +0.000 N 
ATOM      4  H   UNL     1       1.175   8.762  20.016  0.00  0.00    +0.000 HD
ENDROOT
BRANCH   2   5
ATOM      5  C   UNL     1       2.681   7.884  18.066  0.00  0.00    +0.000 A 
ATOM      6  C   UNL     1       3.740   7.760  17.048  0.00  0.00    +0.000 A 
ATOM      7  C   UNL     1       4.331   6.574  16.936  0.00  0.00    +0.000 A 
ATOM      8  C   UNL     1       3.935   5.434  17.789  0.00  0.00    +0.000 A 
ATOM      9  O   UNL     1       4.555   4.386  17.616  0.00  0.00    +0.000 OA
ATOM     10  N   UNL     1       2.865   5.664  18.668  0.00  0.00    +0.000 N 
ATOM     11  N   UNL     1       2.237   6.908  18.801  0.00  0.00    +0.000 NA
BRANCH  10  12
ATOM     12  C   UNL     1       2.385   4.662  19.578  0.00  0.00    +0.000 A 
ATOM     13  C   UNL     1       2.801   4.616  20.922  0.00  0.00    +0.000 A 
ATOM     14  C   UNL     1       2.304   3.654  21.808  0.00  0.00    +0.000 A 
ATOM     15  C   UNL     1       1.395   2.714  21.354  0.00  0.00    +0.000 A 
ATOM     16  F   UNL     1       0.914   1.795  22.202  0.00  0.00    +0.000 F 
ATOM     17  C   UNL     1       0.972   2.719  20.032  0.00  0.00    +0.000 A 
ATOM     18  C   UNL     1       1.456   3.695  19.151  0.00  0.00    +0.000 A 
ENDBRANCH  10  12
ENDBRANCH   2   5
BRANCH   3  19
ATOM     19  C   UNL     1       0.775  10.822  19.612  0.00  0.00    +0.000 C 
BRANCH  19  20
ATOM     20  C   UNL     1      -0.601  10.936  19.032  0.00  0.00    +0.000 A 
ATOM     21  N   UNL     1      -1.017  10.322  17.939  0.00  0.00    +0.000 NA
ATOM     22  C   UNL     1      -2.336  10.654  17.702  0.00  0.00    +0.000 A 
ATOM     23  C   UNL     1      -2.906  11.513  18.618  0.00  0.00    +0.000 A 
ATOM     24  S   UNL     1      -1.776  11.935  19.815  0.00  0.00    +0.000 S 
ATOM     25  C   UNL     1      -4.304  12.032  18.555  0.00  0.00    +0.000 C 
ATOM     26  C   UNL     1      -5.134  11.205  17.552  0.00  0.00    +0.000 C 
ATOM     27  C   UNL     1      -4.354  10.906  16.259  0.00  0.00    +0.000 C 
ATOM     28  C   UNL     1      -3.080  10.093  16.540  0.00  0.00    +0.000 C 
ENDBRANCH  19  20
ENDBRANCH   3  19
TORSDOF 4
ENDMDL
MODEL 5
REMARK VINA RESULT:      -7.7      2.941      4.281
REMARK  Name = 
REMARK  4 active torsions:
REMARK  status: ('A' for Active; 'I' for Inactive)
REMARK    1  A    between atoms: C_2  and  C_14
REMARK    2  A    between atoms: N_3  and  C_4
REMARK    3  A    between atoms: C_4  and  C_5
REMARK    4  A    between atoms: N_19  and  C_20
REMARK                            x       y       z     vdW  Elec       q    Type
REMARK                         _______ _______ _______ _____ _____    ______ ____
ROOT
ATOM      1  O   UNL     1       2.214   5.278  18.009  0.00  0.00    +0.000 OA
ATOM      2  C   UNL     1       3.148   5.590  18.737  0.00  0.00    +0.000 C 
ATOM      3  N   UNL     1       2.994   6.204  19.952  0.00  0.00    +0.000 N 
ATOM      4  H   UNL     1       3.809   6.479  20.496  0.00  0.00    +0.000 HD
ENDROOT
BRANCH   2   5
ATOM      5  C   UNL     1       4.590   5.312  18.290  0.00  0.00    +0.000 A 
ATOM      6  C   UNL     1       5.564   5.173  19.386  0.00  0.00    +0.000 A 
ATOM      7  C   UNL     1       6.804   4.830  19.050  0.00  0.00    +0.000 A 
ATOM      8  C   UNL     1       7.185   4.609  17.640  0.00  0.00    +0.000 A 
ATOM      9  O   UNL     1       8.352   4.280  17.438  0.00  0.00    +0.000 OA
ATOM     10  N   UNL     1       6.181   4.843  16.687  0.00  0.00    +0.000 N 
ATOM     11  N   UNL     1       4.870   5.199  17.026  0.00  0.00    +0.000 NA
BRANCH  10  12
ATOM     12  C   UNL     1       6.392   4.645  15.279  0.00  0.00    +0.000 A 
ATOM     13  C   UNL     1       7.406   5.321  14.576  0.00  0.00    +0.000 A 
ATOM     14  C   UNL     1       7.622   5.098  13.212  0.00  0.00    +0.000 A 
ATOM     15  C   UNL     1       6.812   4.206  12.530  0.00  0.00    +0.000 A 
ATOM     16  F   UNL     1       7.022   3.988  11.225  0.00  0.00    +0.000 F 
ATOM     17  C   UNL     1       5.793   3.531  13.186  0.00  0.00    +0.000 A 
ATOM     18  C   UNL     1       5.590   3.741  14.557  0.00  0.00    +0.000 A 
ENDBRANCH  10  12
ENDBRANCH   2   5
BRANCH   3  19
ATOM     19  C   UNL     1       1.673   6.535  20.446  0.00  0.00    +0.000 C 
BRANCH  19  20
ATOM     20  C   UNL     1       1.416   8.005  20.315  0.00  0.00    +0.000 A 
ATOM     21  N   UNL     1       1.641   8.720  19.226  0.00  0.00    +0.000 NA
ATOM     22  C   UNL     1       1.289  10.034  19.462  0.00  0.00    +0.000 A 
ATOM     23  C   UNL     1       0.800  10.301  20.723  0.00  0.00    +0.000 A 
ATOM     24  S   UNL     1       0.776   8.883  21.660  0.00  0.00    +0.000 S 
ATOM     25  C   UNL     1       0.382  11.647  21.216  0.00  0.00    +0.000 C 
ATOM     26  C   UNL     1       0.223  12.621  20.031  0.00  0.00    +0.000 C 
ATOM     27  C   UNL     1       1.365  12.485  19.009  0.00  0.00    +0.000 C 
ATOM     28  C   UNL     1       1.419  11.073  18.402  0.00  0.00    +0.000 C 
ENDBRANCH  19  20
ENDBRANCH   3  19
TORSDOF 4
ENDMDL
MODEL 6
REMARK VINA RESULT:      -7.6      1.321      1.444
REMARK  Name = 
REMARK  4 active torsions:
REMARK  status: ('A' for Active; 'I' for Inactive)
REMARK    1  A    between atoms: C_2  and  C_14
REMARK    2  A    between atoms: N_3  and  C_4
REMARK    3  A    between atoms: C_4  and  C_5
REMARK    4  A    between atoms: N_19  and  C_20
REMARK                            x       y       z     vdW  Elec       q    Type
REMARK                         _______ _______ _______ _____ _____    ______ ____
ROOT
ATOM      1  O   UNL     1       2.381   9.683  18.097  0.00  0.00    +0.000 OA
ATOM      2  C   UNL     1       1.945   8.942  18.968  0.00  0.00    +0.000 C 
ATOM      3  N   UNL     1       1.048   9.338  19.925  0.00  0.00    +0.000 N 
ATOM      4  H   UNL     1       0.751   8.690  20.652  0.00  0.00    +0.000 HD
ENDROOT
BRANCH   2   5
ATOM      5  C   UNL     1       2.420   7.484  19.038  0.00  0.00    +0.000 A 
ATOM      6  C   UNL     1       1.865   6.704  20.159  0.00  0.00    +0.000 A 
ATOM      7  C   UNL     1       2.169   5.410  20.200  0.00  0.00    +0.000 A 
ATOM      8  C   UNL     1       3.030   4.789  19.172  0.00  0.00    +0.000 A 
ATOM      9  O   UNL     1       3.236   3.583  19.292  0.00  0.00    +0.000 OA
ATOM     10  N   UNL     1       3.551   5.657  18.199  0.00  0.00    +0.000 N 
ATOM     11  N   UNL     1       3.236   7.020  18.140  0.00  0.00    +0.000 NA
BRANCH  10  12
ATOM     12  C   UNL     1       4.382   5.198  17.120  0.00  0.00    +0.000 A 
ATOM     13  C   UNL     1       4.627   3.830  16.900  0.00  0.00    +0.000 A 
ATOM     14  C   UNL     1       5.412   3.392  15.829  0.00  0.00    +0.000 A 
ATOM     15  C   UNL     1       5.977   4.321  14.973  0.00  0.00    +0.000 A 
ATOM     16  F   UNL     1       6.726   3.903  13.943  0.00  0.00    +0.000 F 
ATOM     17  C   UNL     1       5.769   5.680  15.165  0.00  0.00    +0.000 A 
ATOM     18  C   UNL     1       4.966   6.116  16.228  0.00  0.00    +0.000 A 
ENDBRANCH  10  12
ENDBRANCH   2   5
BRANCH   3  19
ATOM     19  C   UNL     1       0.564  10.704  19.960  0.00  0.00    +0.000 C 
BRANCH  19  20
ATOM     20  C   UNL     1      -0.708  10.830  19.180  0.00  0.00    +0.000 A 
ATOM     21  N   UNL     1      -1.002  10.141  18.091  0.00  0.00    +0.000 NA
ATOM     22  C   UNL     1      -2.253  10.512  17.640  0.00  0.00    +0.000 A 
ATOM     23  C   UNL     1      -2.895  11.474  18.391  0.00  0.00    +0.000 A 
ATOM     24  S   UNL     1      -1.921  11.947  19.700  0.00  0.00    +0.000 S 
ATOM     25  C   UNL     1      -4.237  12.049  18.084  0.00  0.00    +0.000 C 
ATOM     26  C   UNL     1      -4.965  11.176  17.042  0.00  0.00    +0.000 C 
ATOM     27  C   UNL     1      -4.030  10.728  15.904  0.00  0.00    +0.000 C 
ATOM     28  C   UNL     1      -2.858   9.885  16.431  0.00  0.00    +0.000 C 
ENDBRANCH  19  20
ENDBRANCH   3  19
TORSDOF 4
ENDMDL
MODEL 7
REMARK VINA RESULT:      -7.6      2.148      3.102
REMARK  Name = 
REMARK  4 active torsions:
REMARK  status: ('A' for Active; 'I' for Inactive)
REMARK    1  A    between atoms: C_2  and  C_14
REMARK    2  A    between atoms: N_3  and  C_4
REMARK    3  A    between atoms: C_4  and  C_5
REMARK    4  A    between atoms: N_19  and  C_20
REMARK                            x       y       z     vdW  Elec       q    Type
REMARK                         _______ _______ _______ _____ _____    ______ ____
ROOT
ATOM      1  O   UNL     1       1.827  11.032  18.143  0.00  0.00    +0.000 OA
ATOM      2  C   UNL     1       1.039  10.262  18.677  0.00  0.00    +0.000 C 
ATOM      3  N   UNL     1      -0.290  10.538  18.861  0.00  0.00    +0.000 N 
ATOM      4  H   UNL     1      -0.890   9.878  19.350  0.00  0.00    +0.000 HD
ENDROOT
BRANCH   2   5
ATOM      5  C   UNL     1       1.535   8.907  19.203  0.00  0.00    +0.000 A 
ATOM      6  C   UNL     1       1.046   8.546  20.545  0.00  0.00    +0.000 A 
ATOM      7  C   UNL     1       1.366   7.337  20.997  0.00  0.00    +0.000 A 
ATOM      8  C   UNL     1       2.182   6.406  20.191  0.00  0.00    +0.000 A 
ATOM      9  O   UNL     1       2.409   5.307  20.694  0.00  0.00    +0.000 OA
ATOM     10  N   UNL     1       2.644   6.899  18.960  0.00  0.00    +0.000 N 
ATOM     11  N   UNL     1       2.311   8.167  18.469  0.00  0.00    +0.000 NA
BRANCH  10  12
ATOM     12  C   UNL     1       3.426   6.104  18.054  0.00  0.00    +0.000 A 
ATOM     13  C   UNL     1       3.074   4.779  17.733  0.00  0.00    +0.000 A 
ATOM     14  C   UNL     1       3.824   4.023  16.827  0.00  0.00    +0.000 A 
ATOM     15  C   UNL     1       4.949   4.580  16.241  0.00  0.00    +0.000 A 
ATOM     16  F   UNL     1       5.666   3.859  15.369  0.00  0.00    +0.000 F 
ATOM     17  C   UNL     1       5.335   5.879  16.543  0.00  0.00    +0.000 A 
ATOM     18  C   UNL     1       4.570   6.641  17.437  0.00  0.00    +0.000 A 
ENDBRANCH  10  12
ENDBRANCH   2   5
BRANCH   3  19
ATOM     19  C   UNL     1      -0.845  11.804  18.426  0.00  0.00    +0.000 C 
BRANCH  19  20
ATOM     20  C   UNL     1      -2.330  11.821  18.621  0.00  0.00    +0.000 A 
ATOM     21  N   UNL     1      -2.951  12.319  19.675  0.00  0.00    +0.000 NA
ATOM     22  C   UNL     1      -4.314  12.166  19.516  0.00  0.00    +0.000 A 
ATOM     23  C   UNL     1      -4.711  11.557  18.344  0.00  0.00    +0.000 A 
ATOM     24  S   UNL     1      -3.357  11.151  17.402  0.00  0.00    +0.000 S 
ATOM     25  C   UNL     1      -6.124  11.261  17.966  0.00  0.00    +0.000 C 
ATOM     26  C   UNL     1      -7.094  12.044  18.874  0.00  0.00    +0.000 C 
ATOM     27  C   UNL     1      -6.660  12.016  20.350  0.00  0.00    +0.000 C 
ATOM     28  C   UNL     1      -5.274  12.653  20.547  0.00  0.00    +0.000 C 
ENDBRANCH  19  20
ENDBRANCH   3  19
TORSDOF 4
ENDMDL
MODEL 8
REMARK VINA RESULT:      -7.6      1.898      2.670
REMARK  Name = 
REMARK  4 active torsions:
REMARK  status: ('A' for Active; 'I' for Inactive)
REMARK    1  A    between atoms: C_2  and  C_14
REMARK    2  A    between atoms: N_3  and  C_4
REMARK    3  A    between atoms: C_4  and  C_5
REMARK    4  A    between atoms: N_19  and  C_20
REMARK                            x       y       z     vdW  Elec       q    Type
REMARK                         _______ _______ _______ _____ _____    ______ ____
ROOT
ATOM      1  O   UNL     1       2.111  10.925  17.908  0.00  0.00    +0.000 OA
ATOM      2  C   UNL     1       1.338  10.207  18.528  0.00  0.00    +0.000 C 
ATOM      3  N   UNL     1       0.053  10.563  18.842  0.00  0.00    +0.000 N 
ATOM      4  H   UNL     1      -0.532   9.942  19.398  0.00  0.00    +0.000 HD
ENDROOT
BRANCH   2   5
ATOM      5  C   UNL     1       1.804   8.828  19.017  0.00  0.00    +0.000 A 
ATOM      6  C   UNL     1       1.306   8.442  20.350  0.00  0.00    +0.000 A 
ATOM      7  C   UNL     1       1.601   7.215  20.769  0.00  0.00    +0.000 A 
ATOM      8  C   UNL     1       2.397   6.288  19.938  0.00  0.00    +0.000 A 
ATOM      9  O   UNL     1       2.599   5.172  20.411  0.00  0.00    +0.000 OA
ATOM     10  N   UNL     1       2.870   6.804  18.721  0.00  0.00    +0.000 N 
ATOM     11  N   UNL     1       2.564   8.092  18.264  0.00  0.00    +0.000 NA
BRANCH  10  12
ATOM     12  C   UNL     1       3.635   6.017  17.793  0.00  0.00    +0.000 A 
ATOM     13  C   UNL     1       3.421   4.634  17.638  0.00  0.00    +0.000 A 
ATOM     14  C   UNL     1       4.150   3.882  16.712  0.00  0.00    +0.000 A 
ATOM     15  C   UNL     1       5.116   4.503  15.938  0.00  0.00    +0.000 A 
ATOM     16  F   UNL     1       5.811   3.785  15.046  0.00  0.00    +0.000 F 
ATOM     17  C   UNL     1       5.364   5.862  16.072  0.00  0.00    +0.000 A 
ATOM     18  C   UNL     1       4.619   6.617  16.988  0.00  0.00    +0.000 A 
ENDBRANCH  10  12
ENDBRANCH   2   5
BRANCH   3  19
ATOM     19  C   UNL     1      -0.468  11.858  18.451  0.00  0.00    +0.000 C 
BRANCH  19  20
ATOM     20  C   UNL     1      -1.956  11.897  18.618  0.00  0.00    +0.000 A 
ATOM     21  N   UNL     1      -2.831  11.469  17.725  0.00  0.00    +0.000 NA
ATOM     22  C   UNL     1      -4.109  11.657  18.213  0.00  0.00    +0.000 A 
ATOM     23  C   UNL     1      -4.189  12.221  19.468  0.00  0.00    +0.000 A 
ATOM     24  S   UNL     1      -2.634  12.540  20.073  0.00  0.00    +0.000 S 
ATOM     25  C   UNL     1      -5.458  12.543  20.186  0.00  0.00    +0.000 C 
ATOM     26  C   UNL     1      -6.648  11.834  19.508  0.00  0.00    +0.000 C 
ATOM     27  C   UNL     1      -6.577  11.918  17.973  0.00  0.00    +0.000 C 
ATOM     28  C   UNL     1      -5.307  11.249  17.425  0.00  0.00    +0.000 C 
ENDBRANCH  19  20
ENDBRANCH   3  19
TORSDOF 4
ENDMDL
MODEL 9
REMARK VINA RESULT:      -7.6      1.106      1.194
REMARK  Name = 
REMARK  4 active torsions:
REMARK  status: ('A' for Active; 'I' for Inactive)
REMARK    1  A    between atoms: C_2  and  C_14
REMARK    2  A    between atoms: N_3  and  C_4
REMARK    3  A    between atoms: C_4  and  C_5
REMARK    4  A    between atoms: N_19  and  C_20
REMARK                            x       y       z     vdW  Elec       q    Type
REMARK                         _______ _______ _______ _____ _____    ______ ____
ROOT
ATOM      1  O   UNL     1       2.042   9.734  18.605  0.00  0.00    +0.000 OA
ATOM      2  C   UNL     1       1.618   9.054  19.531  0.00  0.00    +0.000 C 
ATOM      3  N   UNL     1       0.737   9.515  20.473  0.00  0.00    +0.000 N 
ATOM      4  H   UNL     1       0.451   8.918  21.246  0.00  0.00    +0.000 HD
ENDROOT
BRANCH   2   5
ATOM      5  C   UNL     1       2.094   7.604  19.693  0.00  0.00    +0.000 A 
ATOM      6  C   UNL     1       1.312   6.796  20.645  0.00  0.00    +0.000 A 
ATOM      7  C   UNL     1       1.624   5.507  20.741  0.00  0.00    +0.000 A 
ATOM      8  C   UNL     1       2.712   4.918  19.932  0.00  0.00    +0.000 A 
ATOM      9  O   UNL     1       2.909   3.714  20.084  0.00  0.00    +0.000 OA
ATOM     10  N   UNL     1       3.426   5.810  19.117  0.00  0.00    +0.000 N 
ATOM     11  N   UNL     1       3.105   7.168  19.002  0.00  0.00    +0.000 NA
BRANCH  10  12
ATOM     12  C   UNL     1       4.492   5.382  18.254  0.00  0.00    +0.000 A 
ATOM     13  C   UNL     1       4.269   5.044  16.906  0.00  0.00    +0.000 A 
ATOM     14  C   UNL     1       5.319   4.658  16.067  0.00  0.00    +0.000 A 
ATOM     15  C   UNL     1       6.606   4.589  16.572  0.00  0.00    +0.000 A 
ATOM     16  F   UNL     1       7.614   4.224  15.768  0.00  0.00    +0.000 F 
ATOM     17  C   UNL     1       6.864   4.902  17.900  0.00  0.00    +0.000 A 
ATOM     18  C   UNL     1       5.813   5.308  18.734  0.00  0.00    +0.000 A 
ENDBRANCH  10  12
ENDBRANCH   2   5
BRANCH   3  19
ATOM     19  C   UNL     1       0.254  10.881  20.423  0.00  0.00    +0.000 C 
BRANCH  19  20
ATOM     20  C   UNL     1      -0.967  10.974  19.560  0.00  0.00    +0.000 A 
ATOM     21  N   UNL     1      -1.178  10.266  18.465  0.00  0.00    +0.000 NA
ATOM     22  C   UNL     1      -2.402  10.609  17.928  0.00  0.00    +0.000 A 
ATOM     23  C   UNL     1      -3.107  11.570  18.622  0.00  0.00    +0.000 A 
ATOM     24  S   UNL     1      -2.229  12.078  19.985  0.00  0.00    +0.000 S 
ATOM     25  C   UNL     1      -4.436  12.118  18.220  0.00  0.00    +0.000 C 
ATOM     26  C   UNL     1      -5.080  11.219  17.145  0.00  0.00    +0.000 C 
ATOM     27  C   UNL     1      -4.066  10.772  16.077  0.00  0.00    +0.000 C 
ATOM     28  C   UNL     1      -2.917   9.956  16.691  0.00  0.00    +0.000 C 
ENDBRANCH  19  20
ENDBRANCH   3  19
TORSDOF 4
ENDMDL
