MODEL 1
REMARK VINA RESULT:      -9.2      0.000      0.000
REMARK  Name = 
REMARK  4 active torsions:
REMARK  status: ('A' for Active; 'I' for Inactive)
REMARK    1  A    between atoms: C_2  and  C_19
REMARK    2  A    between atoms: N_3  and  C_4
REMARK    3  A    between atoms: C_8  and  S_9
REMARK    4  A    between atoms: S_9  and  N_12
REMARK                            x       y       z     vdW  Elec       q    Type
REMARK                         _______ _______ _______ _____ _____    ______ ____
ROOT
ATOM      1  C   UNL     1       3.338   5.905  17.851  0.00  0.00    +0.000 A 
ATOM      2  C   UNL     1       2.783   4.622  17.802  0.00  0.00    +0.000 A 
ATOM      3  C   UNL     1       3.515   3.540  17.322  0.00  0.00    +0.000 A 
ATOM      4  C   UNL     1       4.819   3.726  16.870  0.00  0.00    +0.000 A 
ATOM      5  C   UNL     1       5.380   5.005  16.895  0.00  0.00    +0.000 A 
ATOM      6  C   UNL     1       4.633   6.102  17.358  0.00  0.00    +0.000 A 
ENDROOT
BRANCH   1   9
ATOM      7  O   UNL     1       2.227   6.246  20.551  0.00  0.00    +0.000 OA
ATOM      8  C   UNL     1       2.134   7.095  19.671  0.00  0.00    +0.000 C 
ATOM      9  N   UNL     1       2.644   7.014  18.383  0.00  0.00    +0.000 N 
ATOM     10  H   UNL     1       2.654   7.861  17.825  0.00  0.00    +0.000 HD
BRANCH   8  11
ATOM     11  C   UNL     1       1.488   8.377  20.033  0.00  0.00    +0.000 A 
ATOM     12  C   UNL     1       0.933   8.486  21.328  0.00  0.00    +0.000 A 
ATOM     13  C   UNL     1       0.332   9.675  21.739  0.00  0.00    +0.000 A 
ATOM     14 CL   UNL     1      -0.323   9.807  23.320  0.00  0.00    +0.000 Cl
ATOM     15  C   UNL     1       0.298  10.728  20.847  0.00  0.00    +0.000 A 
ATOM     16  C   UNL     1       0.818  10.604  19.578  0.00  0.00    +0.000 A 
ATOM     17  C   UNL     1       1.410   9.441  19.130  0.00  0.00    +0.000 A 
ATOM     18  O   UNL     1       0.687  11.742  18.846  0.00  0.00    +0.000 OA
ATOM     19  C   UNL     1       0.113  12.629  19.826  0.00  0.00    +0.000 C 
ATOM     20  O   UNL     1      -0.216  11.971  21.064  0.00  0.00    +0.000 OA
ENDBRANCH   8  11
ENDBRANCH   1   9
BRANCH   5  21
ATOM     21  S   UNL     1       7.001   5.264  16.186  0.00  0.00    +0.000 S 
ATOM     22  O   UNL     1       7.332   6.660  16.377  0.00  0.00    +0.000 OA
ATOM     23  O   UNL     1       7.857   4.216  16.710  0.00  0.00    +0.000 OA
BRANCH  21  24
ATOM     24  N   UNL     1       6.796   4.987  14.505  0.00  0.00    +0.000 NA
ATOM     25  C   UNL     1       7.941   5.395  13.654  0.00  0.00    +0.000 C 
ATOM     26  C   UNL     1       7.627   5.262  12.168  0.00  0.00    +0.000 C 
ATOM     27  C   UNL     1       7.107   3.873  11.836  0.00  0.00    +0.000 C 
ATOM     28  C   UNL     1       5.855   3.603  12.654  0.00  0.00    +0.000 C 
ATOM     29  C   UNL     1       6.141   3.703  14.150  0.00  0.00    +0.000 C 
ENDBRANCH  21  24
ENDBRANCH   5  21
TORSDOF 4
ENDMDL
MODEL 2
REMARK VINA RESULT:      -9.2      1.503      1.960
REMARK  Name = 
REMARK  4 active torsions:
REMARK  status: ('A' for Active; 'I' for Inactive)
REMARK    1  A    between atoms: C_2  and  C_19
REMARK    2  A    between atoms: N_3  and  C_4
REMARK    3  A    between atoms: C_8  and  S_9
REMARK    4  A    between atoms: S_9  and  N_12
REMARK                            x       y       z     vdW  Elec       q    Type
REMARK                         _______ _______ _______ _____ _____    ______ ____
ROOT
ATOM      1  C   UNL     1       3.269   5.750  18.125  0.00  0.00    +0.000 A 
ATOM      2  C   UNL     1       2.712   4.489  17.888  0.00  0.00    +0.000 A 
ATOM      3  C   UNL     1       3.431   3.498  17.228  0.00  0.00    +0.000 A 
ATOM      4  C   UNL     1       4.725   3.756  16.780  0.00  0.00    +0.000 A 
ATOM      5  C   UNL     1       5.287   5.017  16.992  0.00  0.00    +0.000 A 
ATOM      6  C   UNL     1       4.552   6.026  17.638  0.00  0.00    +0.000 A 
ENDROOT
BRANCH   1   9
ATOM      7  O   UNL     1       2.527   8.446  17.220  0.00  0.00    +0.000 OA
ATOM      8  C   UNL     1       2.286   8.022  18.345  0.00  0.00    +0.000 C 
ATOM      9  N   UNL     1       2.588   6.761  18.839  0.00  0.00    +0.000 N 
ATOM     10  H   UNL     1       2.166   6.485  19.719  0.00  0.00    +0.000 HD
BRANCH   8  11
ATOM     11  C   UNL     1       1.517   8.905  19.251  0.00  0.00    +0.000 A 
ATOM     12  C   UNL     1       0.985  10.096  18.706  0.00  0.00    +0.000 A 
ATOM     13  C   UNL     1       0.231  10.958  19.501  0.00  0.00    +0.000 A 
ATOM     14 CL   UNL     1      -0.429  12.393  18.827  0.00  0.00    +0.000 Cl
ATOM     15  C   UNL     1       0.027  10.614  20.822  0.00  0.00    +0.000 A 
ATOM     16  C   UNL     1       0.571   9.464  21.350  0.00  0.00    +0.000 A 
ATOM     17  C   UNL     1       1.332   8.592  20.601  0.00  0.00    +0.000 A 
ATOM     18  O   UNL     1       0.266   9.298  22.665  0.00  0.00    +0.000 OA
ATOM     19  C   UNL     1      -0.612  10.421  22.882  0.00  0.00    +0.000 C 
ATOM     20  O   UNL     1      -0.697  11.303  21.747  0.00  0.00    +0.000 OA
ENDBRANCH   8  11
ENDBRANCH   1   9
BRANCH   5  21
ATOM     21  S   UNL     1       6.891   5.388  16.294  0.00  0.00    +0.000 S 
ATOM     22  O   UNL     1       7.110   6.808  16.461  0.00  0.00    +0.000 OA
ATOM     23  O   UNL     1       7.820   4.420  16.846  0.00  0.00    +0.000 OA
BRANCH  21  24
ATOM     24  N   UNL     1       6.727   5.065  14.617  0.00  0.00    +0.000 NA
ATOM     25  C   UNL     1       7.880   5.477  13.779  0.00  0.00    +0.000 C 
ATOM     26  C   UNL     1       7.601   5.301  12.291  0.00  0.00    +0.000 C 
ATOM     27  C   UNL     1       7.119   3.892  11.984  0.00  0.00    +0.000 C 
ATOM     28  C   UNL     1       5.855   3.615  12.783  0.00  0.00    +0.000 C 
ATOM     29  C   UNL     1       6.108   3.757  14.281  0.00  0.00    +0.000 C 
ENDBRANCH  21  24
ENDBRANCH   5  21
TORSDOF 4
ENDMDL
MODEL 3
REMARK VINA RESULT:      -9.1      1.220      1.760
REMARK  Name = 
REMARK  4 active torsions:
REMARK  status: ('A' for Active; 'I' for Inactive)
REMARK    1  A    between atoms: C_2  and  C_19
REMARK    2  A    between atoms: N_3  and  C_4
REMARK    3  A    between atoms: C_8  and  S_9
REMARK    4  A    between atoms: S_9  and  N_12
REMARK                            x       y       z     vdW  Elec       q    Type
REMARK                         _______ _______ _______ _____ _____    ______ ____
ROOT
ATOM      1  C   UNL     1       3.268   5.928  17.958  0.00  0.00    +0.000 A 
ATOM      2  C   UNL     1       2.704   4.656  17.813  0.00  0.00    +0.000 A 
ATOM      3  C   UNL     1       3.426   3.609  17.248  0.00  0.00    +0.000 A 
ATOM      4  C   UNL     1       4.729   3.821  16.805  0.00  0.00    +0.000 A 
ATOM      5  C   UNL     1       5.299   5.090  16.926  0.00  0.00    +0.000 A 
ATOM      6  C   UNL     1       4.562   6.154  17.475  0.00  0.00    +0.000 A 
ENDROOT
BRANCH   1   9
ATOM      7  O   UNL     1       2.092   6.036  20.649  0.00  0.00    +0.000 OA
ATOM      8  C   UNL     1       2.041   6.967  19.853  0.00  0.00    +0.000 C 
ATOM      9  N   UNL     1       2.583   6.998  18.576  0.00  0.00    +0.000 N 
ATOM     10  H   UNL     1       2.627   7.894  18.102  0.00  0.00    +0.000 HD
BRANCH   8  11
ATOM     11  C   UNL     1       1.414   8.224  20.320  0.00  0.00    +0.000 A 
ATOM     12  C   UNL     1       1.395   9.318  19.426  0.00  0.00    +0.000 A 
ATOM     13  C   UNL     1       0.798  10.521  19.797  0.00  0.00    +0.000 A 
ATOM     14 CL   UNL     1       0.763  11.840  18.697  0.00  0.00    +0.000 Cl
ATOM     15  C   UNL     1       0.234  10.607  21.053  0.00  0.00    +0.000 A 
ATOM     16  C   UNL     1       0.279   9.544  21.929  0.00  0.00    +0.000 A 
ATOM     17  C   UNL     1       0.871   8.341  21.603  0.00  0.00    +0.000 A 
ATOM     18  O   UNL     1      -0.323   9.819  23.116  0.00  0.00    +0.000 OA
ATOM     19  C   UNL     1      -0.838  11.140  22.858  0.00  0.00    +0.000 C 
ATOM     20  O   UNL     1      -0.415  11.677  21.591  0.00  0.00    +0.000 OA
ENDBRANCH   8  11
ENDBRANCH   1   9
BRANCH   5  21
ATOM     21  S   UNL     1       6.919   5.392  16.231  0.00  0.00    +0.000 S 
ATOM     22  O   UNL     1       7.192   6.804  16.384  0.00  0.00    +0.000 OA
ATOM     23  O   UNL     1       7.808   4.395  16.797  0.00  0.00    +0.000 OA
BRANCH  21  24
ATOM     24  N   UNL     1       6.750   5.058  14.557  0.00  0.00    +0.000 NA
ATOM     25  C   UNL     1       7.897   5.470  13.711  0.00  0.00    +0.000 C 
ATOM     26  C   UNL     1       7.612   5.283  12.226  0.00  0.00    +0.000 C 
ATOM     27  C   UNL     1       7.135   3.871  11.929  0.00  0.00    +0.000 C 
ATOM     28  C   UNL     1       5.876   3.592  12.736  0.00  0.00    +0.000 C 
ATOM     29  C   UNL     1       6.135   3.745  14.232  0.00  0.00    +0.000 C 
ENDBRANCH  21  24
ENDBRANCH   5  21
TORSDOF 4
ENDMDL
MODEL 4
REMARK VINA RESULT:      -8.9      1.043      1.089
REMARK  Name = 
REMARK  4 active torsions:
REMARK  status: ('A' for Active; 'I' for Inactive)
REMARK    1  A    between atoms: C_2  and  C_19
REMARK    2  A    between atoms: N_3  and  C_4
REMARK    3  A    between atoms: C_8  and  S_9
REMARK    4  A    between atoms: S_9  and  N_12
REMARK                            x       y       z     vdW  Elec       q    Type
REMARK                         _______ _______ _______ _____ _____    ______ ____
ROOT
ATOM      1  C   UNL     1       3.218   6.130  18.161  0.00  0.00    +0.000 A 
ATOM      2  C   UNL     1       2.575   4.907  17.944  0.00  0.00    +0.000 A 
ATOM      3  C   UNL     1       3.226   3.856  17.306  0.00  0.00    +0.000 A 
ATOM      4  C   UNL     1       4.537   4.014  16.862  0.00  0.00    +0.000 A 
ATOM      5  C   UNL     1       5.185   5.236  17.054  0.00  0.00    +0.000 A 
ATOM      6  C   UNL     1       4.520   6.306  17.677  0.00  0.00    +0.000 A 
ENDROOT
BRANCH   1   9
ATOM      7  O   UNL     1       2.249   8.688  17.087  0.00  0.00    +0.000 OA
ATOM      8  C   UNL     1       2.187   8.388  18.275  0.00  0.00    +0.000 C 
ATOM      9  N   UNL     1       2.607   7.199  18.853  0.00  0.00    +0.000 N 
ATOM     10  H   UNL     1       2.326   7.015  19.810  0.00  0.00    +0.000 HD
BRANCH   8  11
ATOM     11  C   UNL     1       1.521   9.350  19.182  0.00  0.00    +0.000 A 
ATOM     12  C   UNL     1       1.155   8.891  20.467  0.00  0.00    +0.000 A 
ATOM     13  C   UNL     1       0.546   9.754  21.376  0.00  0.00    +0.000 A 
ATOM     14 CL   UNL     1       0.121   9.195  22.943  0.00  0.00    +0.000 Cl
ATOM     15  C   UNL     1       0.315  11.057  20.982  0.00  0.00    +0.000 A 
ATOM     16  C   UNL     1       0.652  11.489  19.718  0.00  0.00    +0.000 A 
ATOM     17  C   UNL     1       1.245  10.663  18.786  0.00  0.00    +0.000 A 
ATOM     18  O   UNL     1       0.343  12.797  19.514  0.00  0.00    +0.000 OA
ATOM     19  C   UNL     1      -0.137  13.169  20.821  0.00  0.00    +0.000 C 
ATOM     20  O   UNL     1      -0.239  12.054  21.726  0.00  0.00    +0.000 OA
ENDBRANCH   8  11
ENDBRANCH   1   9
BRANCH   5  21
ATOM     21  S   UNL     1       6.815   5.481  16.360  0.00  0.00    +0.000 S 
ATOM     22  O   UNL     1       7.120   6.890  16.475  0.00  0.00    +0.000 OA
ATOM     23  O   UNL     1       7.678   4.480  16.958  0.00  0.00    +0.000 OA
BRANCH  21  24
ATOM     24  N   UNL     1       6.645   5.104  14.695  0.00  0.00    +0.000 NA
ATOM     25  C   UNL     1       7.818   5.438  13.849  0.00  0.00    +0.000 C 
ATOM     26  C   UNL     1       7.538   5.219  12.367  0.00  0.00    +0.000 C 
ATOM     27  C   UNL     1       7.000   3.821  12.108  0.00  0.00    +0.000 C 
ATOM     28  C   UNL     1       5.723   3.625  12.909  0.00  0.00    +0.000 C 
ATOM     29  C   UNL     1       5.974   3.812  14.403  0.00  0.00    +0.000 C 
ENDBRANCH  21  24
ENDBRANCH   5  21
TORSDOF 4
ENDMDL
MODEL 5
REMARK VINA RESULT:      -8.9      2.763      3.758
REMARK  Name = 
REMARK  4 active torsions:
REMARK  status: ('A' for Active; 'I' for Inactive)
REMARK    1  A    between atoms: C_2  and  C_19
REMARK    2  A    between atoms: N_3  and  C_4
REMARK    3  A    between atoms: C_8  and  S_9
REMARK    4  A    between atoms: S_9  and  N_12
REMARK                            x       y       z     vdW  Elec       q    Type
REMARK                         _______ _______ _______ _____ _____    ______ ____
ROOT
ATOM      1  C   UNL     1       1.952   5.022  20.764  0.00  0.00    +0.000 A 
ATOM      2  C   UNL     1       2.035   4.065  21.781  0.00  0.00    +0.000 A 
ATOM      3  C   UNL     1       2.575   2.806  21.542  0.00  0.00    +0.000 A 
ATOM      4  C   UNL     1       3.035   2.475  20.270  0.00  0.00    +0.000 A 
ATOM      5  C   UNL     1       2.941   3.413  19.239  0.00  0.00    +0.000 A 
ATOM      6  C   UNL     1       2.373   4.677  19.475  0.00  0.00    +0.000 A 
ENDROOT
BRANCH   1   9
ATOM      7  O   UNL     1       2.561   7.482  19.276  0.00  0.00    +0.000 OA
ATOM      8  C   UNL     1       1.808   7.447  20.244  0.00  0.00    +0.000 C 
ATOM      9  N   UNL     1       1.460   6.327  20.985  0.00  0.00    +0.000 N 
ATOM     10  H   UNL     1       0.688   6.414  21.637  0.00  0.00    +0.000 HD
BRANCH   8  11
ATOM     11  C   UNL     1       1.128   8.708  20.617  0.00  0.00    +0.000 A 
ATOM     12  C   UNL     1       0.920   9.666  19.598  0.00  0.00    +0.000 A 
ATOM     13  C   UNL     1       0.265  10.863  19.879  0.00  0.00    +0.000 A 
ATOM     14 CL   UNL     1      -0.001  12.012  18.632  0.00  0.00    +0.000 Cl
ATOM     15  C   UNL     1      -0.168  11.079  21.172  0.00  0.00    +0.000 A 
ATOM     16  C   UNL     1       0.062  10.152  22.165  0.00  0.00    +0.000 A 
ATOM     17  C   UNL     1       0.717   8.961  21.929  0.00  0.00    +0.000 A 
ATOM     18  O   UNL     1      -0.432  10.543  23.369  0.00  0.00    +0.000 OA
ATOM     19  C   UNL     1      -1.084  11.776  23.006  0.00  0.00    +0.000 C 
ATOM     20  O   UNL     1      -0.847  12.163  21.640  0.00  0.00    +0.000 OA
ENDBRANCH   8  11
ENDBRANCH   1   9
BRANCH   5  21
ATOM     21  S   UNL     1       3.403   2.937  17.578  0.00  0.00    +0.000 S 
ATOM     22  O   UNL     1       3.864   1.568  17.639  0.00  0.00    +0.000 OA
ATOM     23  O   UNL     1       2.299   3.315  16.715  0.00  0.00    +0.000 OA
BRANCH  21  24
ATOM     24  N   UNL     1       4.742   3.937  17.190  0.00  0.00    +0.000 NA
ATOM     25  C   UNL     1       5.655   4.237  18.320  0.00  0.00    +0.000 C 
ATOM     26  C   UNL     1       6.728   5.249  17.939  0.00  0.00    +0.000 C 
ATOM     27  C   UNL     1       7.465   4.823  16.679  0.00  0.00    +0.000 C 
ATOM     28  C   UNL     1       6.465   4.679  15.544  0.00  0.00    +0.000 C 
ATOM     29  C   UNL     1       5.389   3.651  15.884  0.00  0.00    +0.000 C 
ENDBRANCH  21  24
ENDBRANCH   5  21
TORSDOF 4
ENDMDL
MODEL 6
REMARK VINA RESULT:      -8.9      3.789      9.247
REMARK  Name = 
REMARK  4 active torsions:
REMARK  status: ('A' for Active; 'I' for Inactive)
REMARK    1  A    between atoms: C_2  and  C_19
REMARK    2  A    between atoms: N_3  and  C_4
REMARK    3  A    between atoms: C_8  and  S_9
REMARK    4  A    between atoms: S_9  and  N_12
REMARK                            x       y       z     vdW  Elec       q    Type
REMARK                         _______ _______ _______ _____ _____    ______ ____
ROOT
ATOM      1  C   UNL     1       1.349   8.565  20.330  0.00  0.00    +0.000 A 
ATOM      2  C   UNL     1       1.217   8.489  21.720  0.00  0.00    +0.000 A 
ATOM      3  C   UNL     1       0.419   9.390  22.418  0.00  0.00    +0.000 A 
ATOM      4  C   UNL     1      -0.257  10.397  21.734  0.00  0.00    +0.000 A 
ATOM      5  C   UNL     1      -0.120  10.498  20.348  0.00  0.00    +0.000 A 
ATOM      6  C   UNL     1       0.705   9.603  19.646  0.00  0.00    +0.000 A 
ENDROOT
BRANCH   1   9
ATOM      7  O   UNL     1       2.375   8.821  17.589  0.00  0.00    +0.000 OA
ATOM      8  C   UNL     1       2.544   7.824  18.282  0.00  0.00    +0.000 C 
ATOM      9  N   UNL     1       2.106   7.635  19.585  0.00  0.00    +0.000 N 
ATOM     10  H   UNL     1       2.475   6.841  20.097  0.00  0.00    +0.000 HD
BRANCH   8  11
ATOM     11  C   UNL     1       3.371   6.736  17.713  0.00  0.00    +0.000 A 
ATOM     12  C   UNL     1       2.922   5.408  17.895  0.00  0.00    +0.000 A 
ATOM     13  C   UNL     1       3.644   4.342  17.363  0.00  0.00    +0.000 A 
ATOM     14 CL   UNL     1       3.082   2.733  17.572  0.00  0.00    +0.000 Cl
ATOM     15  C   UNL     1       4.799   4.623  16.661  0.00  0.00    +0.000 A 
ATOM     16  C   UNL     1       5.243   5.918  16.511  0.00  0.00    +0.000 A 
ATOM     17  C   UNL     1       4.564   7.000  17.032  0.00  0.00    +0.000 A 
ATOM     18  O   UNL     1       6.397   5.995  15.796  0.00  0.00    +0.000 OA
ATOM     19  C   UNL     1       6.581   4.613  15.430  0.00  0.00    +0.000 C 
ATOM     20  O   UNL     1       5.624   3.731  16.046  0.00  0.00    +0.000 OA
ENDBRANCH   8  11
ENDBRANCH   1   9
BRANCH   5  21
ATOM     21  S   UNL     1      -0.876  11.874  19.491  0.00  0.00    +0.000 S 
ATOM     22  O   UNL     1      -1.418  12.758  20.500  0.00  0.00    +0.000 OA
ATOM     23  O   UNL     1       0.097  12.350  18.526  0.00  0.00    +0.000 OA
BRANCH  21  24
ATOM     24  N   UNL     1      -2.186  11.186  18.623  0.00  0.00    +0.000 NA
ATOM     25  C   UNL     1      -3.483  11.893  18.771  0.00  0.00    +0.000 C 
ATOM     26  C   UNL     1      -4.626  11.141  18.100  0.00  0.00    +0.000 C 
ATOM     27  C   UNL     1      -4.294  10.809  16.654  0.00  0.00    +0.000 C 
ATOM     28  C   UNL     1      -3.030   9.965  16.616  0.00  0.00    +0.000 C 
ATOM     29  C   UNL     1      -1.857  10.701  17.258  0.00  0.00    +0.000 C 
ENDBRANCH  21  24
ENDBRANCH   5  21
TORSDOF 4
ENDMDL
MODEL 7
REMARK VINA RESULT:      -8.8      3.915      9.292
REMARK  Name = 
REMARK  4 active torsions:
REMARK  status: ('A' for Active; 'I' for Inactive)
REMARK    1  A    between atoms: C_2  and  C_19
REMARK    2  A    between atoms: N_3  and  C_4
REMARK    3  A    between atoms: C_8  and  S_9
REMARK    4  A    between atoms: S_9  and  N_12
REMARK                            x       y       z     vdW  Elec       q    Type
REMARK                         _______ _______ _______ _____ _____    ______ ____
ROOT
ATOM      1  C   UNL     1       1.126   8.953  20.454  0.00  0.00    +0.000 A 
ATOM      2  C   UNL     1       1.055   8.770  21.838  0.00  0.00    +0.000 A 
ATOM      3  C   UNL     1       0.215   9.551  22.625  0.00  0.00    +0.000 A 
ATOM      4  C   UNL     1      -0.567  10.543  22.037  0.00  0.00    +0.000 A 
ATOM      5  C   UNL     1      -0.493  10.750  20.658  0.00  0.00    +0.000 A 
ATOM      6  C   UNL     1       0.374   9.977  19.866  0.00  0.00    +0.000 A 
ENDROOT
BRANCH   1   9
ATOM      7  O   UNL     1       1.656   6.070  20.666  0.00  0.00    +0.000 OA
ATOM      8  C   UNL     1       2.141   6.782  19.794  0.00  0.00    +0.000 C 
ATOM      9  N   UNL     1       1.927   8.142  19.619  0.00  0.00    +0.000 N 
ATOM     10  H   UNL     1       2.242   8.562  18.751  0.00  0.00    +0.000 HD
BRANCH   8  11
ATOM     11  C   UNL     1       2.974   6.120  18.765  0.00  0.00    +0.000 A 
ATOM     12  C   UNL     1       2.974   4.707  18.733  0.00  0.00    +0.000 A 
ATOM     13  C   UNL     1       3.719   4.024  17.774  0.00  0.00    +0.000 A 
ATOM     14 CL   UNL     1       3.699   2.307  17.729  0.00  0.00    +0.000 Cl
ATOM     15  C   UNL     1       4.449   4.766  16.867  0.00  0.00    +0.000 A 
ATOM     16  C   UNL     1       4.464   6.143  16.922  0.00  0.00    +0.000 A 
ATOM     17  C   UNL     1       3.750   6.855  17.863  0.00  0.00    +0.000 A 
ATOM     18  O   UNL     1       5.242   6.695  15.953  0.00  0.00    +0.000 OA
ATOM     19  C   UNL     1       5.639   5.518  15.221  0.00  0.00    +0.000 C 
ATOM     20  O   UNL     1       5.214   4.292  15.845  0.00  0.00    +0.000 OA
ENDBRANCH   8  11
ENDBRANCH   1   9
BRANCH   5  21
ATOM     21  S   UNL     1      -1.392  12.113  19.927  0.00  0.00    +0.000 S 
ATOM     22  O   UNL     1      -2.228  12.677  20.964  0.00  0.00    +0.000 OA
ATOM     23  O   UNL     1      -0.415  12.929  19.229  0.00  0.00    +0.000 OA
BRANCH  21  24
ATOM     24  N   UNL     1      -2.411  11.389  18.752  0.00  0.00    +0.000 NA
ATOM     25  C   UNL     1      -3.844  11.762  18.843  0.00  0.00    +0.000 C 
ATOM     26  C   UNL     1      -4.708  10.967  17.871  0.00  0.00    +0.000 C 
ATOM     27  C   UNL     1      -4.163  11.050  16.455  0.00  0.00    +0.000 C 
ATOM     28  C   UNL     1      -2.739  10.515  16.438  0.00  0.00    +0.000 C 
ATOM     29  C   UNL     1      -1.841  11.308  17.383  0.00  0.00    +0.000 C 
ENDBRANCH  21  24
ENDBRANCH   5  21
TORSDOF 4
ENDMDL
MODEL 8
REMARK VINA RESULT:      -8.8      3.662      9.166
REMARK  Name = 
REMARK  4 active torsions:
REMARK  status: ('A' for Active; 'I' for Inactive)
REMARK    1  A    between atoms: C_2  and  C_19
REMARK    2  A    between atoms: N_3  and  C_4
REMARK    3  A    between atoms: C_8  and  S_9
REMARK    4  A    between atoms: S_9  and  N_12
REMARK                            x       y       z     vdW  Elec       q    Type
REMARK                         _______ _______ _______ _____ _____    ______ ____
ROOT
ATOM      1  C   UNL     1       1.457   8.483  20.187  0.00  0.00    +0.000 A 
ATOM      2  C   UNL     1       1.098   8.288  21.525  0.00  0.00    +0.000 A 
ATOM      3  C   UNL     1       0.283   9.197  22.191  0.00  0.00    +0.000 A 
ATOM      4  C   UNL     1      -0.183  10.331  21.530  0.00  0.00    +0.000 A 
ATOM      5  C   UNL     1       0.182  10.549  20.200  0.00  0.00    +0.000 A 
ATOM      6  C   UNL     1       1.026   9.644  19.534  0.00  0.00    +0.000 A 
ENDROOT
BRANCH   1   9
ATOM      7  O   UNL     1       2.408   8.660  17.412  0.00  0.00    +0.000 OA
ATOM      8  C   UNL     1       2.637   7.703  18.144  0.00  0.00    +0.000 C 
ATOM      9  N   UNL     1       2.238   7.554  19.465  0.00  0.00    +0.000 N 
ATOM     10  H   UNL     1       2.653   6.801  20.002  0.00  0.00    +0.000 HD
BRANCH   8  11
ATOM     11  C   UNL     1       3.498   6.628  17.603  0.00  0.00    +0.000 A 
ATOM     12  C   UNL     1       3.108   5.292  17.845  0.00  0.00    +0.000 A 
ATOM     13  C   UNL     1       3.863   4.234  17.342  0.00  0.00    +0.000 A 
ATOM     14 CL   UNL     1       3.371   2.614  17.624  0.00  0.00    +0.000 Cl
ATOM     15  C   UNL     1       4.993   4.534  16.608  0.00  0.00    +0.000 A 
ATOM     16  C   UNL     1       5.381   5.839  16.399  0.00  0.00    +0.000 A 
ATOM     17  C   UNL     1       4.668   6.912  16.890  0.00  0.00    +0.000 A 
ATOM     18  O   UNL     1       6.519   5.934  15.661  0.00  0.00    +0.000 OA
ATOM     19  C   UNL     1       6.753   4.547  15.346  0.00  0.00    +0.000 C 
ATOM     20  O   UNL     1       5.844   3.652  16.014  0.00  0.00    +0.000 OA
ENDBRANCH   8  11
ENDBRANCH   1   9
BRANCH   5  21
ATOM     21  S   UNL     1      -0.302  12.073  19.398  0.00  0.00    +0.000 S 
ATOM     22  O   UNL     1      -0.720  12.988  20.438  0.00  0.00    +0.000 OA
ATOM     23  O   UNL     1       0.770  12.422  18.484  0.00  0.00    +0.000 OA
BRANCH  21  24
ATOM     24  N   UNL     1      -1.679  11.660  18.462  0.00  0.00    +0.000 NA
ATOM     25  C   UNL     1      -1.564  10.397  17.693  0.00  0.00    +0.000 C 
ATOM     26  C   UNL     1      -2.757  10.175  16.771  0.00  0.00    +0.000 C 
ATOM     27  C   UNL     1      -4.070  10.290  17.530  0.00  0.00    +0.000 C 
ATOM     28  C   UNL     1      -4.157  11.668  18.166  0.00  0.00    +0.000 C 
ATOM     29  C   UNL     1      -2.989  11.912  19.116  0.00  0.00    +0.000 C 
ENDBRANCH  21  24
ENDBRANCH   5  21
TORSDOF 4
ENDMDL
MODEL 9
REMARK VINA RESULT:      -8.7      5.962      7.751
REMARK  Name = 
REMARK  4 active torsions:
REMARK  status: ('A' for Active; 'I' for Inactive)
REMARK    1  A    between atoms: C_2  and  C_19
REMARK    2  A    between atoms: N_3  and  C_4
REMARK    3  A    between atoms: C_8  and  S_9
REMARK    4  A    between atoms: S_9  and  N_12
REMARK                            x       y       z     vdW  Elec       q    Type
REMARK                         _______ _______ _______ _____ _____    ______ ____
ROOT
ATOM      1  C   UNL     1       7.969   7.928  17.919  0.00  0.00    +0.000 A 
ATOM      2  C   UNL     1       8.340   7.151  19.020  0.00  0.00    +0.000 A 
ATOM      3  C   UNL     1       7.932   5.827  19.137  0.00  0.00    +0.000 A 
ATOM      4  C   UNL     1       7.130   5.255  18.152  0.00  0.00    +0.000 A 
ATOM      5  C   UNL     1       6.735   6.024  17.056  0.00  0.00    +0.000 A 
ATOM      6  C   UNL     1       7.127   7.370  16.949  0.00  0.00    +0.000 A 
ENDROOT
BRANCH   1   9
ATOM      7  O   UNL     1       9.320   9.680  19.853  0.00  0.00    +0.000 OA
ATOM      8  C   UNL     1       9.031  10.030  18.713  0.00  0.00    +0.000 C 
ATOM      9  N   UNL     1       8.410   9.258  17.741  0.00  0.00    +0.000 N 
ATOM     10  H   UNL     1       8.401   9.613  16.791  0.00  0.00    +0.000 HD
BRANCH   8  11
ATOM     11  C   UNL     1       9.459  11.383  18.291  0.00  0.00    +0.000 A 
ATOM     12  C   UNL     1       8.468  12.387  18.208  0.00  0.00    +0.000 A 
ATOM     13  C   UNL     1       8.810  13.686  17.839  0.00  0.00    +0.000 A 
ATOM     14 CL   UNL     1       7.603  14.905  17.760  0.00  0.00    +0.000 Cl
ATOM     15  C   UNL     1      10.135  13.955  17.561  0.00  0.00    +0.000 A 
ATOM     16  C   UNL     1      11.091  12.964  17.619  0.00  0.00    +0.000 A 
ATOM     17  C   UNL     1      10.790  11.664  17.968  0.00  0.00    +0.000 A 
ATOM     18  O   UNL     1      12.333  13.419  17.306  0.00  0.00    +0.000 OA
ATOM     19  C   UNL     1      12.072  14.826  17.139  0.00  0.00    +0.000 C 
ATOM     20  O   UNL     1      10.673  15.157  17.212  0.00  0.00    +0.000 OA
ENDBRANCH   8  11
ENDBRANCH   1   9
BRANCH   5  21
ATOM     21  S   UNL     1       5.593   5.331  15.866  0.00  0.00    +0.000 S 
ATOM     22  O   UNL     1       5.302   6.368  14.900  0.00  0.00    +0.000 OA
ATOM     23  O   UNL     1       6.148   4.057  15.449  0.00  0.00    +0.000 OA
BRANCH  21  24
ATOM     24  N   UNL     1       4.163   5.016  16.760  0.00  0.00    +0.000 NA
ATOM     25  C   UNL     1       4.010   3.618  17.234  0.00  0.00    +0.000 C 
ATOM     26  C   UNL     1       2.652   3.377  17.884  0.00  0.00    +0.000 C 
ATOM     27  C   UNL     1       2.370   4.405  18.968  0.00  0.00    +0.000 C 
ATOM     28  C   UNL     1       2.410   5.796  18.356  0.00  0.00    +0.000 C 
ATOM     29  C   UNL     1       3.767   6.080  17.719  0.00  0.00    +0.000 C 
ENDBRANCH  21  24
ENDBRANCH   5  21
TORSDOF 4
ENDMDL
