MODEL 1
REMARK VINA RESULT:      -8.5      0.000      0.000
REMARK  Name = 
REMARK  3 active torsions:
REMARK  status: ('A' for Active; 'I' for Inactive)
REMARK    1  A    between atoms: C_2  and  C_4
REMARK    2  A    between atoms: C_4  and  C_5
REMARK    3  A    between atoms: C_14  and  C_16
REMARK                            x       y       z     vdW  Elec       q    Type
REMARK                         _______ _______ _______ _____ _____    ______ ____
ROOT
ATOM      1  C   UNL     1      -1.601  11.724  19.502  0.00  0.00    +0.000 C 
ATOM      2  C   UNL     1      -1.281  11.454  20.991  0.00  0.00    +0.000 C 
ATOM      3  C   UNL     1       0.141  10.962  21.243  0.00  0.00    +0.000 C 
ATOM      4  N   UNL     1       0.509   9.823  20.405  0.00  0.00    +0.000 N 
ATOM      5  C   UNL     1       1.355   8.867  20.987  0.00  0.00    +0.000 C 
ATOM      6  O   UNL     1       1.694   8.999  22.167  0.00  0.00    +0.000 OA
ATOM      7  C   UNL     1       0.214   9.985  18.984  0.00  0.00    +0.000 C 
ATOM      8  C   UNL     1      -1.240  10.412  18.746  0.00  0.00    +0.000 C 
ENDROOT
BRANCH   5   9
ATOM      9  C   UNL     1       1.770   7.653  20.303  0.00  0.00    +0.000 A 
ATOM     10  C   UNL     1       2.363   7.308  19.099  0.00  0.00    +0.000 A 
ATOM     11  C   UNL     1       2.395   5.885  18.990  0.00  0.00    +0.000 A 
ATOM     12  C   UNL     1       2.788   4.979  17.985  0.00  0.00    +0.000 A 
ATOM     13  C   UNL     1       2.630   3.611  18.219  0.00  0.00    +0.000 A 
ATOM     14  F   UNL     1       2.970   2.743  17.254  0.00  0.00    +0.000 F 
ATOM     15  C   UNL     1       2.122   3.125  19.416  0.00  0.00    +0.000 A 
ATOM     16  C   UNL     1       1.758   4.005  20.439  0.00  0.00    +0.000 A 
ATOM     17  C   UNL     1       1.899   5.375  20.186  0.00  0.00    +0.000 A 
ATOM     18  N   UNL     1       1.619   6.454  20.982  0.00  0.00    +0.000 N 
ATOM     19  H   UNL     1       1.274   6.405  21.932  0.00  0.00    +0.000 HD
ENDBRANCH   5   9
BRANCH   1  20
ATOM     20  C   UNL     1      -3.099  12.118  19.409  0.00  0.00    +0.000 A 
ATOM     21  C   UNL     1      -3.955  11.633  18.408  0.00  0.00    +0.000 A 
ATOM     22  C   UNL     1      -5.316  11.968  18.391  0.00  0.00    +0.000 A 
ATOM     23  C   UNL     1      -5.847  12.806  19.367  0.00  0.00    +0.000 A 
ATOM     24  C   UNL     1      -5.022  13.311  20.361  0.00  0.00    +0.000 A 
ATOM     25  C   UNL     1      -3.666  12.970  20.382  0.00  0.00    +0.000 A 
ENDBRANCH   1  20
BRANCH   1  27
ATOM     26  N   UNL     1      -0.804  13.015  17.498  0.00  0.00    +0.000 N 
ATOM     27  C   UNL     1      -0.739  12.841  18.845  0.00  0.00    +0.000 C 
ATOM     28  O   UNL     1       0.027  13.561  19.486  0.00  0.00    +0.000 OA
ATOM     29  H   UNL     1      -0.150  13.688  17.114  0.00  0.00    +0.000 HD
ATOM     30  H   UNL     1      -1.191  12.333  16.864  0.00  0.00    +0.000 HD
ENDBRANCH   1  27
TORSDOF 3
ENDMDL
MODEL 2
REMARK VINA RESULT:      -8.3      0.641      1.146
REMARK  Name = 
REMARK  3 active torsions:
REMARK  status: ('A' for Active; 'I' for Inactive)
REMARK    1  A    between atoms: C_2  and  C_4
REMARK    2  A    between atoms: C_4  and  C_5
REMARK    3  A    between atoms: C_14  and  C_16
REMARK                            x       y       z     vdW  Elec       q    Type
REMARK                         _______ _______ _______ _____ _____    ______ ____
ROOT
ATOM      1  C   UNL     1      -1.709  11.531  19.094  0.00  0.00    +0.000 C 
ATOM      2  C   UNL     1      -1.545  11.177  20.591  0.00  0.00    +0.000 C 
ATOM      3  C   UNL     1      -0.124  10.792  20.988  0.00  0.00    +0.000 C 
ATOM      4  N   UNL     1       0.449   9.756  20.131  0.00  0.00    +0.000 N 
ATOM      5  C   UNL     1       1.307   8.836  20.752  0.00  0.00    +0.000 C 
ATOM      6  O   UNL     1       1.488   8.907  21.972  0.00  0.00    +0.000 OA
ATOM      7  C   UNL     1       0.312   9.999  18.697  0.00  0.00    +0.000 C 
ATOM      8  C   UNL     1      -1.137  10.315  18.306  0.00  0.00    +0.000 C 
ENDROOT
BRANCH   5   9
ATOM      9  C   UNL     1       1.915   7.718  20.049  0.00  0.00    +0.000 A 
ATOM     10  C   UNL     1       2.449   7.465  18.796  0.00  0.00    +0.000 A 
ATOM     11  C   UNL     1       2.788   6.081  18.708  0.00  0.00    +0.000 A 
ATOM     12  C   UNL     1       3.274   5.246  17.683  0.00  0.00    +0.000 A 
ATOM     13  C   UNL     1       3.452   3.888  17.955  0.00  0.00    +0.000 A 
ATOM     14  F   UNL     1       3.881   3.078  16.975  0.00  0.00    +0.000 F 
ATOM     15  C   UNL     1       3.187   3.349  19.207  0.00  0.00    +0.000 A 
ATOM     16  C   UNL     1       2.737   4.167  20.247  0.00  0.00    +0.000 A 
ATOM     17  C   UNL     1       2.540   5.523  19.958  0.00  0.00    +0.000 A 
ATOM     18  N   UNL     1       2.105   6.544  20.760  0.00  0.00    +0.000 N 
ATOM     19  H   UNL     1       1.875   6.458  21.742  0.00  0.00    +0.000 HD
ENDBRANCH   5   9
BRANCH   1  20
ATOM     20  C   UNL     1      -3.216  11.799  18.838  0.00  0.00    +0.000 A 
ATOM     21  C   UNL     1      -4.032  12.495  19.745  0.00  0.00    +0.000 A 
ATOM     22  C   UNL     1      -5.375  12.767  19.452  0.00  0.00    +0.000 A 
ATOM     23  C   UNL     1      -5.935  12.339  18.251  0.00  0.00    +0.000 A 
ATOM     24  C   UNL     1      -5.156  11.637  17.343  0.00  0.00    +0.000 A 
ATOM     25  C   UNL     1      -3.814  11.373  17.633  0.00  0.00    +0.000 A 
ENDBRANCH   1  20
BRANCH   1  27
ATOM     26  N   UNL     1      -0.806  13.035  17.294  0.00  0.00    +0.000 N 
ATOM     27  C   UNL     1      -0.885  12.765  18.624  0.00  0.00    +0.000 C 
ATOM     28  O   UNL     1      -0.272  13.497  19.402  0.00  0.00    +0.000 OA
ATOM     29  H   UNL     1      -0.179  13.789  17.040  0.00  0.00    +0.000 HD
ATOM     30  H   UNL     1      -1.049  12.373  16.574  0.00  0.00    +0.000 HD
ENDBRANCH   1  27
TORSDOF 3
ENDMDL
MODEL 3
REMARK VINA RESULT:      -8.0      2.497      3.560
REMARK  Name = 
REMARK  3 active torsions:
REMARK  status: ('A' for Active; 'I' for Inactive)
REMARK    1  A    between atoms: C_2  and  C_4
REMARK    2  A    between atoms: C_4  and  C_5
REMARK    3  A    between atoms: C_14  and  C_16
REMARK                            x       y       z     vdW  Elec       q    Type
REMARK                         _______ _______ _______ _____ _____    ______ ____
ROOT
ATOM      1  C   UNL     1       0.144  10.171  19.423  0.00  0.00    +0.000 C 
ATOM      2  C   UNL     1      -0.015   9.002  20.423  0.00  0.00    +0.000 C 
ATOM      3  C   UNL     1       1.284   8.267  20.733  0.00  0.00    +0.000 C 
ATOM      4  N   UNL     1       2.005   7.847  19.534  0.00  0.00    +0.000 N 
ATOM      5  C   UNL     1       2.697   6.629  19.616  0.00  0.00    +0.000 C 
ATOM      6  O   UNL     1       2.621   5.959  20.650  0.00  0.00    +0.000 OA
ATOM      7  C   UNL     1       2.176   8.887  18.523  0.00  0.00    +0.000 C 
ATOM      8  C   UNL     1       0.846   9.567  18.171  0.00  0.00    +0.000 C 
ENDROOT
BRANCH   5   9
ATOM      9  C   UNL     1       3.419   6.049  18.495  0.00  0.00    +0.000 A 
ATOM     10  C   UNL     1       3.222   5.046  17.559  0.00  0.00    +0.000 A 
ATOM     11  C   UNL     1       4.407   4.904  16.776  0.00  0.00    +0.000 A 
ATOM     12  C   UNL     1       4.820   4.020  15.760  0.00  0.00    +0.000 A 
ATOM     13  C   UNL     1       6.109   4.157  15.238  0.00  0.00    +0.000 A 
ATOM     14  F   UNL     1       6.523   3.298  14.296  0.00  0.00    +0.000 F 
ATOM     15  C   UNL     1       6.975   5.151  15.673  0.00  0.00    +0.000 A 
ATOM     16  C   UNL     1       6.572   6.060  16.655  0.00  0.00    +0.000 A 
ATOM     17  C   UNL     1       5.287   5.900  17.189  0.00  0.00    +0.000 A 
ATOM     18  N   UNL     1       4.634   6.621  18.153  0.00  0.00    +0.000 N 
ATOM     19  H   UNL     1       5.005   7.437  18.624  0.00  0.00    +0.000 HD
ENDBRANCH   5   9
BRANCH   1  20
ATOM     20  C   UNL     1      -1.271  10.743  19.141  0.00  0.00    +0.000 A 
ATOM     21  C   UNL     1      -1.834  11.790  19.889  0.00  0.00    +0.000 A 
ATOM     22  C   UNL     1      -3.092  12.317  19.567  0.00  0.00    +0.000 A 
ATOM     23  C   UNL     1      -3.820  11.800  18.499  0.00  0.00    +0.000 A 
ATOM     24  C   UNL     1      -3.295  10.757  17.752  0.00  0.00    +0.000 A 
ATOM     25  C   UNL     1      -2.036  10.236  18.068  0.00  0.00    +0.000 A 
ENDBRANCH   1  20
BRANCH   1  27
ATOM     26  N   UNL     1       1.612  12.166  18.994  0.00  0.00    +0.000 N 
ATOM     27  C   UNL     1       1.070  11.323  19.912  0.00  0.00    +0.000 C 
ATOM     28  O   UNL     1       1.362  11.490  21.097  0.00  0.00    +0.000 OA
ATOM     29  H   UNL     1       2.281  12.834  19.359  0.00  0.00    +0.000 HD
ATOM     30  H   UNL     1       1.644  11.971  18.006  0.00  0.00    +0.000 HD
ENDBRANCH   1  27
TORSDOF 3
ENDMDL
MODEL 4
REMARK VINA RESULT:      -8.0      2.401      3.244
REMARK  Name = 
REMARK  3 active torsions:
REMARK  status: ('A' for Active; 'I' for Inactive)
REMARK    1  A    between atoms: C_2  and  C_4
REMARK    2  A    between atoms: C_4  and  C_5
REMARK    3  A    between atoms: C_14  and  C_16
REMARK                            x       y       z     vdW  Elec       q    Type
REMARK                         _______ _______ _______ _____ _____    ______ ____
ROOT
ATOM      1  C   UNL     1      -0.122  10.318  19.042  0.00  0.00    +0.000 C 
ATOM      2  C   UNL     1      -0.210   9.263  20.169  0.00  0.00    +0.000 C 
ATOM      3  C   UNL     1       1.127   8.619  20.524  0.00  0.00    +0.000 C 
ATOM      4  N   UNL     1       1.837   8.096  19.360  0.00  0.00    +0.000 N 
ATOM      5  C   UNL     1       2.582   6.924  19.558  0.00  0.00    +0.000 C 
ATOM      6  O   UNL     1       2.557   6.371  20.662  0.00  0.00    +0.000 OA
ATOM      7  C   UNL     1       1.941   9.023  18.236  0.00  0.00    +0.000 C 
ATOM      8  C   UNL     1       0.577   9.606  17.847  0.00  0.00    +0.000 C 
ENDROOT
BRANCH   5   9
ATOM      9  C   UNL     1       3.302   6.251  18.489  0.00  0.00    +0.000 A 
ATOM     10  C   UNL     1       3.128   5.141  17.677  0.00  0.00    +0.000 A 
ATOM     11  C   UNL     1       4.300   4.961  16.881  0.00  0.00    +0.000 A 
ATOM     12  C   UNL     1       4.728   3.985  15.960  0.00  0.00    +0.000 A 
ATOM     13  C   UNL     1       5.996   4.116  15.390  0.00  0.00    +0.000 A 
ATOM     14  F   UNL     1       6.427   3.173  14.539  0.00  0.00    +0.000 F 
ATOM     15  C   UNL     1       6.829   5.187  15.687  0.00  0.00    +0.000 A 
ATOM     16  C   UNL     1       6.408   6.184  16.572  0.00  0.00    +0.000 A 
ATOM     17  C   UNL     1       5.145   6.032  17.156  0.00  0.00    +0.000 A 
ATOM     18  N   UNL     1       4.483   6.830  18.051  0.00  0.00    +0.000 N 
ATOM     19  H   UNL     1       4.828   7.708  18.417  0.00  0.00    +0.000 HD
ENDBRANCH   5   9
BRANCH   1  20
ATOM     20  C   UNL     1      -1.566  10.799  18.737  0.00  0.00    +0.000 A 
ATOM     21  C   UNL     1      -2.358  10.240  17.720  0.00  0.00    +0.000 A 
ATOM     22  C   UNL     1      -3.678  10.663  17.513  0.00  0.00    +0.000 A 
ATOM     23  C   UNL     1      -4.231  11.662  18.309  0.00  0.00    +0.000 A 
ATOM     24  C   UNL     1      -3.467  12.241  19.312  0.00  0.00    +0.000 A 
ATOM     25  C   UNL     1      -2.153  11.813  19.523  0.00  0.00    +0.000 A 
ENDBRANCH   1  20
BRANCH   1  27
ATOM     26  N   UNL     1       1.160  12.371  18.365  0.00  0.00    +0.000 N 
ATOM     27  C   UNL     1       0.764  11.553  19.376  0.00  0.00    +0.000 C 
ATOM     28  O   UNL     1       1.154  11.810  20.516  0.00  0.00    +0.000 OA
ATOM     29  H   UNL     1       1.814  13.101  18.626  0.00  0.00    +0.000 HD
ATOM     30  H   UNL     1       1.113  12.118  17.390  0.00  0.00    +0.000 HD
ENDBRANCH   1  27
TORSDOF 3
ENDMDL
MODEL 5
REMARK VINA RESULT:      -7.9      0.764      1.290
REMARK  Name = 
REMARK  3 active torsions:
REMARK  status: ('A' for Active; 'I' for Inactive)
REMARK    1  A    between atoms: C_2  and  C_4
REMARK    2  A    between atoms: C_4  and  C_5
REMARK    3  A    between atoms: C_14  and  C_16
REMARK                            x       y       z     vdW  Elec       q    Type
REMARK                         _______ _______ _______ _____ _____    ______ ____
ROOT
ATOM      1  C   UNL     1      -1.736  11.799  19.549  0.00  0.00    +0.000 C 
ATOM      2  C   UNL     1      -1.376  11.633  21.044  0.00  0.00    +0.000 C 
ATOM      3  C   UNL     1       0.050  11.152  21.292  0.00  0.00    +0.000 C 
ATOM      4  N   UNL     1       0.391   9.955  20.528  0.00  0.00    +0.000 N 
ATOM      5  C   UNL     1       1.249   9.038  21.153  0.00  0.00    +0.000 C 
ATOM      6  O   UNL     1       1.620   9.250  22.311  0.00  0.00    +0.000 OA
ATOM      7  C   UNL     1       0.058  10.017  19.106  0.00  0.00    +0.000 C 
ATOM      8  C   UNL     1      -1.400  10.434  18.878  0.00  0.00    +0.000 C 
ENDROOT
BRANCH   5   9
ATOM      9  C   UNL     1       1.641   7.776  20.545  0.00  0.00    +0.000 A 
ATOM     10  C   UNL     1       1.531   6.425  20.831  0.00  0.00    +0.000 A 
ATOM     11  C   UNL     1       2.252   5.683  19.847  0.00  0.00    +0.000 A 
ATOM     12  C   UNL     1       2.561   4.320  19.666  0.00  0.00    +0.000 A 
ATOM     13  C   UNL     1       3.353   3.954  18.575  0.00  0.00    +0.000 A 
ATOM     14  F   UNL     1       3.681   2.663  18.415  0.00  0.00    +0.000 F 
ATOM     15  C   UNL     1       3.819   4.887  17.659  0.00  0.00    +0.000 A 
ATOM     16  C   UNL     1       3.494   6.239  17.801  0.00  0.00    +0.000 A 
ATOM     17  C   UNL     1       2.720   6.600  18.910  0.00  0.00    +0.000 A 
ATOM     18  N   UNL     1       2.263   7.828  19.308  0.00  0.00    +0.000 N 
ATOM     19  H   UNL     1       2.410   8.696  18.808  0.00  0.00    +0.000 HD
ENDBRANCH   5   9
BRANCH   1  20
ATOM     20  C   UNL     1      -3.234  12.194  19.468  0.00  0.00    +0.000 A 
ATOM     21  C   UNL     1      -4.104  11.690  18.488  0.00  0.00    +0.000 A 
ATOM     22  C   UNL     1      -5.465  12.027  18.483  0.00  0.00    +0.000 A 
ATOM     23  C   UNL     1      -5.982  12.884  19.450  0.00  0.00    +0.000 A 
ATOM     24  C   UNL     1      -5.143  13.408  20.422  0.00  0.00    +0.000 A 
ATOM     25  C   UNL     1      -3.787  13.065  20.431  0.00  0.00    +0.000 A 
ENDBRANCH   1  20
BRANCH   1  27
ATOM     26  N   UNL     1      -0.920  12.882  17.432  0.00  0.00    +0.000 N 
ATOM     27  C   UNL     1      -0.888  12.862  18.791  0.00  0.00    +0.000 C 
ATOM     28  O   UNL     1      -0.160  13.672  19.366  0.00  0.00    +0.000 OA
ATOM     29  H   UNL     1      -0.276  13.529  16.991  0.00  0.00    +0.000 HD
ATOM     30  H   UNL     1      -1.271  12.122  16.870  0.00  0.00    +0.000 HD
ENDBRANCH   1  27
TORSDOF 3
ENDMDL
MODEL 6
REMARK VINA RESULT:      -7.9      1.882      2.529
REMARK  Name = 
REMARK  3 active torsions:
REMARK  status: ('A' for Active; 'I' for Inactive)
REMARK    1  A    between atoms: C_2  and  C_4
REMARK    2  A    between atoms: C_4  and  C_5
REMARK    3  A    between atoms: C_14  and  C_16
REMARK                            x       y       z     vdW  Elec       q    Type
REMARK                         _______ _______ _______ _____ _____    ______ ____
ROOT
ATOM      1  C   UNL     1      -0.807  10.926  18.929  0.00  0.00    +0.000 C 
ATOM      2  C   UNL     1      -0.830  10.089  20.229  0.00  0.00    +0.000 C 
ATOM      3  C   UNL     1       0.529   9.523  20.629  0.00  0.00    +0.000 C 
ATOM      4  N   UNL     1       1.190   8.802  19.544  0.00  0.00    +0.000 N 
ATOM      5  C   UNL     1       1.957   7.686  19.911  0.00  0.00    +0.000 C 
ATOM      6  O   UNL     1       1.990   7.339  21.096  0.00  0.00    +0.000 OA
ATOM      7  C   UNL     1       1.231   9.513  18.268  0.00  0.00    +0.000 C 
ATOM      8  C   UNL     1      -0.157  10.014  17.848  0.00  0.00    +0.000 C 
ENDROOT
BRANCH   5   9
ATOM      9  C   UNL     1       2.634   6.835  18.946  0.00  0.00    +0.000 A 
ATOM     10  C   UNL     1       2.651   5.494  18.599  0.00  0.00    +0.000 A 
ATOM     11  C   UNL     1       3.654   5.286  17.604  0.00  0.00    +0.000 A 
ATOM     12  C   UNL     1       4.176   4.153  16.949  0.00  0.00    +0.000 A 
ATOM     13  C   UNL     1       5.218   4.331  16.036  0.00  0.00    +0.000 A 
ATOM     14  F   UNL     1       5.745   3.255  15.433  0.00  0.00    +0.000 F 
ATOM     15  C   UNL     1       5.732   5.587  15.743  0.00  0.00    +0.000 A 
ATOM     16  C   UNL     1       5.205   6.727  16.357  0.00  0.00    +0.000 A 
ATOM     17  C   UNL     1       4.176   6.536  17.287  0.00  0.00    +0.000 A 
ATOM     18  N   UNL     1       3.484   7.448  18.039  0.00  0.00    +0.000 N 
ATOM     19  H   UNL     1       3.612   8.451  18.005  0.00  0.00    +0.000 HD
ENDBRANCH   5   9
BRANCH   1  20
ATOM     20  C   UNL     1      -2.269  11.340  18.613  0.00  0.00    +0.000 A 
ATOM     21  C   UNL     1      -2.909  11.020  17.405  0.00  0.00    +0.000 A 
ATOM     22  C   UNL     1      -4.250  11.363  17.180  0.00  0.00    +0.000 A 
ATOM     23  C   UNL     1      -4.975  12.045  18.153  0.00  0.00    +0.000 A 
ATOM     24  C   UNL     1      -4.364  12.386  19.350  0.00  0.00    +0.000 A 
ATOM     25  C   UNL     1      -3.029  12.037  19.577  0.00  0.00    +0.000 A 
ENDBRANCH   1  20
BRANCH   1  27
ATOM     26  N   UNL     1       0.353  12.874  17.844  0.00  0.00    +0.000 N 
ATOM     27  C   UNL     1       0.080  12.203  18.994  0.00  0.00    +0.000 C 
ATOM     28  O   UNL     1       0.577  12.622  20.041  0.00  0.00    +0.000 OA
ATOM     29  H   UNL     1       1.013  13.638  17.931  0.00  0.00    +0.000 HD
ATOM     30  H   UNL     1       0.214  12.486  16.924  0.00  0.00    +0.000 HD
ENDBRANCH   1  27
TORSDOF 3
ENDMDL
MODEL 7
REMARK VINA RESULT:      -7.8      1.610      2.046
REMARK  Name = 
REMARK  3 active torsions:
REMARK  status: ('A' for Active; 'I' for Inactive)
REMARK    1  A    between atoms: C_2  and  C_4
REMARK    2  A    between atoms: C_4  and  C_5
REMARK    3  A    between atoms: C_14  and  C_16
REMARK                            x       y       z     vdW  Elec       q    Type
REMARK                         _______ _______ _______ _____ _____    ______ ____
ROOT
ATOM      1  C   UNL     1      -0.983  10.898  18.727  0.00  0.00    +0.000 C 
ATOM      2  C   UNL     1      -1.120  10.043  20.009  0.00  0.00    +0.000 C 
ATOM      3  C   UNL     1       0.209   9.557  20.577  0.00  0.00    +0.000 C 
ATOM      4  N   UNL     1       1.048   8.892  19.582  0.00  0.00    +0.000 N 
ATOM      5  C   UNL     1       1.829   7.820  20.039  0.00  0.00    +0.000 C 
ATOM      6  O   UNL     1       1.732   7.460  21.216  0.00  0.00    +0.000 OA
ATOM      7  C   UNL     1       1.207   9.622  18.326  0.00  0.00    +0.000 C 
ATOM      8  C   UNL     1      -0.144  10.042  17.733  0.00  0.00    +0.000 C 
ENDROOT
BRANCH   5   9
ATOM      9  C   UNL     1       2.676   7.025  19.164  0.00  0.00    +0.000 A 
ATOM     10  C   UNL     1       3.575   7.245  18.132  0.00  0.00    +0.000 A 
ATOM     11  C   UNL     1       3.994   5.985  17.607  0.00  0.00    +0.000 A 
ATOM     12  C   UNL     1       4.808   5.586  16.529  0.00  0.00    +0.000 A 
ATOM     13  C   UNL     1       4.963   4.220  16.280  0.00  0.00    +0.000 A 
ATOM     14  F   UNL     1       5.707   3.831  15.234  0.00  0.00    +0.000 F 
ATOM     15  C   UNL     1       4.360   3.255  17.076  0.00  0.00    +0.000 A 
ATOM     16  C   UNL     1       3.578   3.630  18.171  0.00  0.00    +0.000 A 
ATOM     17  C   UNL     1       3.409   5.001  18.399  0.00  0.00    +0.000 A 
ATOM     18  N   UNL     1       2.702   5.656  19.373  0.00  0.00    +0.000 N 
ATOM     19  H   UNL     1       2.192   5.209  20.124  0.00  0.00    +0.000 HD
ENDBRANCH   5   9
BRANCH   1  20
ATOM     20  C   UNL     1      -2.415  11.226  18.228  0.00  0.00    +0.000 A 
ATOM     21  C   UNL     1      -2.881  10.865  16.953  0.00  0.00    +0.000 A 
ATOM     22  C   UNL     1      -4.200  11.129  16.560  0.00  0.00    +0.000 A 
ATOM     23  C   UNL     1      -5.078  11.771  17.428  0.00  0.00    +0.000 A 
ATOM     24  C   UNL     1      -4.642  12.152  18.688  0.00  0.00    +0.000 A 
ATOM     25  C   UNL     1      -3.328  11.881  19.083  0.00  0.00    +0.000 A 
ENDBRANCH   1  20
BRANCH   1  27
ATOM     26  N   UNL     1       0.052  13.003  17.825  0.00  0.00    +0.000 N 
ATOM     27  C   UNL     1      -0.193  12.226  18.913  0.00  0.00    +0.000 C 
ATOM     28  O   UNL     1       0.251  12.595  20.001  0.00  0.00    +0.000 OA
ATOM     29  H   UNL     1       0.653  13.803  17.988  0.00  0.00    +0.000 HD
ATOM     30  H   UNL     1      -0.040  12.680  16.874  0.00  0.00    +0.000 HD
ENDBRANCH   1  27
TORSDOF 3
ENDMDL
MODEL 8
REMARK VINA RESULT:      -7.8      2.437      3.119
REMARK  Name = 
REMARK  3 active torsions:
REMARK  status: ('A' for Active; 'I' for Inactive)
REMARK    1  A    between atoms: C_2  and  C_4
REMARK    2  A    between atoms: C_4  and  C_5
REMARK    3  A    between atoms: C_14  and  C_16
REMARK                            x       y       z     vdW  Elec       q    Type
REMARK                         _______ _______ _______ _____ _____    ______ ____
ROOT
ATOM      1  C   UNL     1      -0.122  10.397  19.387  0.00  0.00    +0.000 C 
ATOM      2  C   UNL     1      -0.303   9.147  20.280  0.00  0.00    +0.000 C 
ATOM      3  C   UNL     1       1.003   8.455  20.654  0.00  0.00    +0.000 C 
ATOM      4  N   UNL     1       1.849   8.165  19.499  0.00  0.00    +0.000 N 
ATOM      5  C   UNL     1       2.598   6.980  19.555  0.00  0.00    +0.000 C 
ATOM      6  O   UNL     1       2.468   6.228  20.526  0.00  0.00    +0.000 OA
ATOM      7  C   UNL     1       2.050   9.288  18.586  0.00  0.00    +0.000 C 
ATOM      8  C   UNL     1       0.720   9.927  18.164  0.00  0.00    +0.000 C 
ENDROOT
BRANCH   5   9
ATOM      9  C   UNL     1       3.447   6.524  18.465  0.00  0.00    +0.000 A 
ATOM     10  C   UNL     1       4.123   7.083  17.393  0.00  0.00    +0.000 A 
ATOM     11  C   UNL     1       4.700   6.035  16.613  0.00  0.00    +0.000 A 
ATOM     12  C   UNL     1       5.409   5.984  15.397  0.00  0.00    +0.000 A 
ATOM     13  C   UNL     1       5.790   4.736  14.898  0.00  0.00    +0.000 A 
ATOM     14  F   UNL     1       6.435   4.675  13.724  0.00  0.00    +0.000 F 
ATOM     15  C   UNL     1       5.512   3.557  15.577  0.00  0.00    +0.000 A 
ATOM     16  C   UNL     1       4.840   3.589  16.802  0.00  0.00    +0.000 A 
ATOM     17  C   UNL     1       4.442   4.842  17.283  0.00  0.00    +0.000 A 
ATOM     18  N   UNL     1       3.771   5.178  18.429  0.00  0.00    +0.000 N 
ATOM     19  H   UNL     1       3.474   4.526  19.144  0.00  0.00    +0.000 HD
ENDBRANCH   5   9
BRANCH   1  20
ATOM     20  C   UNL     1      -1.536  10.919  19.018  0.00  0.00    +0.000 A 
ATOM     21  C   UNL     1      -2.254  10.459  17.903  0.00  0.00    +0.000 A 
ATOM     22  C   UNL     1      -3.552  10.914  17.636  0.00  0.00    +0.000 A 
ATOM     23  C   UNL     1      -4.157  11.848  18.472  0.00  0.00    +0.000 A 
ATOM     24  C   UNL     1      -3.466  12.331  19.573  0.00  0.00    +0.000 A 
ATOM     25  C   UNL     1      -2.174  11.871  19.843  0.00  0.00    +0.000 A 
ENDBRANCH   1  20
BRANCH   1  27
ATOM     26  N   UNL     1       1.173  12.547  19.252  0.00  0.00    +0.000 N 
ATOM     27  C   UNL     1       0.691  11.551  20.042  0.00  0.00    +0.000 C 
ATOM     28  O   UNL     1       0.948  11.590  21.246  0.00  0.00    +0.000 OA
ATOM     29  H   UNL     1       1.776  13.217  19.715  0.00  0.00    +0.000 HD
ATOM     30  H   UNL     1       1.239  12.482  18.248  0.00  0.00    +0.000 HD
ENDBRANCH   1  27
TORSDOF 3
ENDMDL
MODEL 9
REMARK VINA RESULT:      -7.6      1.808      2.399
REMARK  Name = 
REMARK  3 active torsions:
REMARK  status: ('A' for Active; 'I' for Inactive)
REMARK    1  A    between atoms: C_2  and  C_4
REMARK    2  A    between atoms: C_4  and  C_5
REMARK    3  A    between atoms: C_14  and  C_16
REMARK                            x       y       z     vdW  Elec       q    Type
REMARK                         _______ _______ _______ _____ _____    ______ ____
ROOT
ATOM      1  C   UNL     1      -1.172  11.007  18.745  0.00  0.00    +0.000 C 
ATOM      2  C   UNL     1      -1.258  10.094  19.991  0.00  0.00    +0.000 C 
ATOM      3  C   UNL     1       0.097   9.651  20.533  0.00  0.00    +0.000 C 
ATOM      4  N   UNL     1       0.962   9.072  19.508  0.00  0.00    +0.000 N 
ATOM      5  C   UNL     1       1.798   8.022  19.917  0.00  0.00    +0.000 C 
ATOM      6  O   UNL     1       1.726   7.609  21.079  0.00  0.00    +0.000 OA
ATOM      7  C   UNL     1       1.077   9.860  18.283  0.00  0.00    +0.000 C 
ATOM      8  C   UNL     1      -0.297  10.236  17.714  0.00  0.00    +0.000 C 
ENDROOT
BRANCH   5   9
ATOM      9  C   UNL     1       2.679   7.308  19.007  0.00  0.00    +0.000 A 
ATOM     10  C   UNL     1       3.552   7.615  17.976  0.00  0.00    +0.000 A 
ATOM     11  C   UNL     1       4.036   6.400  17.402  0.00  0.00    +0.000 A 
ATOM     12  C   UNL     1       4.859   6.085  16.302  0.00  0.00    +0.000 A 
ATOM     13  C   UNL     1       5.087   4.740  16.002  0.00  0.00    +0.000 A 
ATOM     14  F   UNL     1       5.841   4.431  14.937  0.00  0.00    +0.000 F 
ATOM     15  C   UNL     1       4.549   3.715  16.768  0.00  0.00    +0.000 A 
ATOM     16  C   UNL     1       3.758   4.006  17.883  0.00  0.00    +0.000 A 
ATOM     17  C   UNL     1       3.516   5.357  18.163  0.00  0.00    +0.000 A 
ATOM     18  N   UNL     1       2.784   5.935  19.165  0.00  0.00    +0.000 N 
ATOM     19  H   UNL     1       2.308   5.434  19.905  0.00  0.00    +0.000 HD
ENDBRANCH   5   9
BRANCH   1  20
ATOM     20  C   UNL     1      -2.622  11.283  18.266  0.00  0.00    +0.000 A 
ATOM     21  C   UNL     1      -3.598  11.871  19.085  0.00  0.00    +0.000 A 
ATOM     22  C   UNL     1      -4.881  12.156  18.597  0.00  0.00    +0.000 A 
ATOM     23  C   UNL     1      -5.219  11.847  17.283  0.00  0.00    +0.000 A 
ATOM     24  C   UNL     1      -4.279  11.252  16.455  0.00  0.00    +0.000 A 
ATOM     25  C   UNL     1      -2.997  10.975  16.940  0.00  0.00    +0.000 A 
ENDBRANCH   1  20
BRANCH   1  27
ATOM     26  N   UNL     1      -0.246  12.786  20.259  0.00  0.00    +0.000 N 
ATOM     27  C   UNL     1      -0.448  12.364  18.983  0.00  0.00    +0.000 C 
ATOM     28  O   UNL     1      -0.074  13.094  18.064  0.00  0.00    +0.000 OA
ATOM     29  H   UNL     1       0.141  13.718  20.353  0.00  0.00    +0.000 HD
ATOM     30  H   UNL     1      -0.725  12.402  21.058  0.00  0.00    +0.000 HD
ENDBRANCH   1  27
TORSDOF 3
ENDMDL
