MODEL 1
REMARK VINA RESULT:      -9.4      0.000      0.000
REMARK  Name = 
REMARK  8 active torsions:
REMARK  status: ('A' for Active; 'I' for Inactive)
REMARK    1  A    between atoms: C_1  and  C_2
REMARK    2  A    between atoms: C_6  and  C_7
REMARK    3  A    between atoms: C_10  and  S_11
REMARK    4  A    between atoms: S_11  and  C_12
REMARK    5  A    between atoms: C_12  and  C_13
REMARK    6  A    between atoms: N_15  and  C_16
REMARK    7  A    between atoms: N_27  and  C_28
REMARK    8  A    between atoms: C_28  and  C_29
REMARK                            x       y       z     vdW  Elec       q    Type
REMARK                         _______ _______ _______ _____ _____    ______ ____
ROOT
ATOM      1  C   UNL     1       4.256   4.329  19.478  0.00  0.00    +0.000 A 
ATOM      2  N   UNL     1       5.453   4.230  20.030  0.00  0.00    +0.000 NA
ATOM      3  N   UNL     1       6.333   5.032  19.345  0.00  0.00    +0.000 NA
ATOM      4  C   UNL     1       5.663   5.629  18.390  0.00  0.00    +0.000 A 
ATOM      5  N   UNL     1       4.341   5.249  18.447  0.00  0.00    +0.000 N 
ENDROOT
BRANCH   1  11
ATOM      6  C   UNL     1       2.525   2.132  17.777  0.00  0.00    +0.000 C 
ATOM      7  C   UNL     1       2.396   2.608  19.170  0.00  0.00    +0.000 A 
ATOM      8  O   UNL     1       1.375   2.043  19.884  0.00  0.00    +0.000 OA
ATOM      9  C   UNL     1       1.398   2.595  21.117  0.00  0.00    +0.000 A 
ATOM     10  C   UNL     1       2.422   3.510  21.216  0.00  0.00    +0.000 A 
ATOM     11  C   UNL     1       3.085   3.519  19.957  0.00  0.00    +0.000 A 
ENDBRANCH   1  11
BRANCH   4  12
ATOM     12  S   UNL     1       6.316   6.743  17.223  0.00  0.00    +0.000 S 
BRANCH  12  13
ATOM     13  C   UNL     1       7.897   7.201  18.001  0.00  0.00    +0.000 C 
BRANCH  13  14
ATOM     14  C   UNL     1       8.142   8.714  18.094  0.00  0.00    +0.000 C 
ATOM     15  O   UNL     1       7.548   9.459  17.317  0.00  0.00    +0.000 OA
ATOM     16  N   UNL     1       8.995   9.140  19.100  0.00  0.00    +0.000 N 
ATOM     17  H   UNL     1       9.522   8.415  19.574  0.00  0.00    +0.000 HD
BRANCH  16  18
ATOM     18  C   UNL     1       9.315  10.482  19.435  0.00  0.00    +0.000 A 
ATOM     19  C   UNL     1       9.694  10.885  20.721  0.00  0.00    +0.000 A 
ATOM     20  C   UNL     1      10.020  12.219  20.989  0.00  0.00    +0.000 A 
ATOM     21  C   UNL     1       9.925  13.180  19.988  0.00  0.00    +0.000 A 
ATOM     22  C   UNL     1       9.534  12.802  18.704  0.00  0.00    +0.000 A 
ATOM     23  C   UNL     1       9.271  11.452  18.420  0.00  0.00    +0.000 A 
ATOM     24  O   UNL     1       9.472  13.689  17.661  0.00  0.00    +0.000 OA
ATOM     25  C   UNL     1       8.522  14.733  17.894  0.00  0.00    +0.000 C 
ATOM     26  C   UNL     1       9.068  15.856  18.768  0.00  0.00    +0.000 C 
ATOM     27  C   UNL     1       9.277  15.394  20.201  0.00  0.00    +0.000 C 
ATOM     28  O   UNL     1      10.337  14.445  20.302  0.00  0.00    +0.000 OA
ENDBRANCH  16  18
ENDBRANCH  13  14
ENDBRANCH  12  13
ENDBRANCH   4  12
BRANCH   5  29
ATOM     29  C   UNL     1       3.249   5.839  17.694  0.00  0.00    +0.000 C 
BRANCH  29  30
ATOM     30  C   UNL     1       2.609   7.035  18.361  0.00  0.00    +0.000 A 
ATOM     31  C   UNL     1       2.307   8.224  17.679  0.00  0.00    +0.000 A 
ATOM     32  C   UNL     1       1.733   9.305  18.352  0.00  0.00    +0.000 A 
ATOM     33  C   UNL     1       1.431   9.209  19.708  0.00  0.00    +0.000 A 
ATOM     34  C   UNL     1       1.680   8.022  20.389  0.00  0.00    +0.000 A 
ATOM     35  C   UNL     1       2.256   6.941  19.719  0.00  0.00    +0.000 A 
ENDBRANCH  29  30
ENDBRANCH   5  29
TORSDOF 7
ENDMDL
MODEL 2
REMARK VINA RESULT:      -8.9      5.471      9.282
REMARK  Name = 
REMARK  8 active torsions:
REMARK  status: ('A' for Active; 'I' for Inactive)
REMARK    1  A    between atoms: C_1  and  C_2
REMARK    2  A    between atoms: C_6  and  C_7
REMARK    3  A    between atoms: C_10  and  S_11
REMARK    4  A    between atoms: S_11  and  C_12
REMARK    5  A    between atoms: C_12  and  C_13
REMARK    6  A    between atoms: N_15  and  C_16
REMARK    7  A    between atoms: N_27  and  C_28
REMARK    8  A    between atoms: C_28  and  C_29
REMARK                            x       y       z     vdW  Elec       q    Type
REMARK                         _______ _______ _______ _____ _____    ______ ____
ROOT
ATOM      1  C   UNL     1       4.310   6.632  17.333  0.00  0.00    +0.000 A 
ATOM      2  N   UNL     1       3.874   7.764  16.807  0.00  0.00    +0.000 NA
ATOM      3  N   UNL     1       2.892   8.287  17.614  0.00  0.00    +0.000 NA
ATOM      4  C   UNL     1       2.749   7.481  18.637  0.00  0.00    +0.000 A 
ATOM      5  N   UNL     1       3.641   6.438  18.530  0.00  0.00    +0.000 N 
ENDROOT
BRANCH   1  11
ATOM      6  C   UNL     1       7.563   6.982  17.432  0.00  0.00    +0.000 C 
ATOM      7  C   UNL     1       6.709   5.996  16.738  0.00  0.00    +0.000 A 
ATOM      8  O   UNL     1       7.383   5.062  16.000  0.00  0.00    +0.000 OA
ATOM      9  C   UNL     1       6.457   4.258  15.433  0.00  0.00    +0.000 A 
ATOM     10  C   UNL     1       5.189   4.655  15.794  0.00  0.00    +0.000 A 
ATOM     11  C   UNL     1       5.342   5.779  16.652  0.00  0.00    +0.000 A 
ENDBRANCH   1  11
BRANCH   4  12
ATOM     12  S   UNL     1       1.621   7.679  19.947  0.00  0.00    +0.000 S 
BRANCH  12  13
ATOM     13  C   UNL     1       1.154   9.429  19.763  0.00  0.00    +0.000 C 
BRANCH  13  14
ATOM     14  C   UNL     1      -0.012   9.871  20.661  0.00  0.00    +0.000 C 
ATOM     15  O   UNL     1      -0.507   9.053  21.433  0.00  0.00    +0.000 OA
ATOM     16  N   UNL     1      -0.394  11.200  20.566  0.00  0.00    +0.000 N 
ATOM     17  H   UNL     1       0.002  11.723  19.793  0.00  0.00    +0.000 HD
BRANCH  16  18
ATOM     18  C   UNL     1      -1.383  11.861  21.341  0.00  0.00    +0.000 A 
ATOM     19  C   UNL     1      -1.238  12.129  22.707  0.00  0.00    +0.000 A 
ATOM     20  C   UNL     1      -2.237  12.804  23.417  0.00  0.00    +0.000 A 
ATOM     21  C   UNL     1      -3.417  13.178  22.783  0.00  0.00    +0.000 A 
ATOM     22  C   UNL     1      -3.588  12.906  21.426  0.00  0.00    +0.000 A 
ATOM     23  C   UNL     1      -2.558  12.287  20.700  0.00  0.00    +0.000 A 
ATOM     24  O   UNL     1      -4.704  13.295  20.731  0.00  0.00    +0.000 OA
ATOM     25  C   UNL     1      -5.897  12.692  21.240  0.00  0.00    +0.000 C 
ATOM     26  C   UNL     1      -6.455  13.408  22.464  0.00  0.00    +0.000 C 
ATOM     27  C   UNL     1      -5.555  13.225  23.675  0.00  0.00    +0.000 C 
ATOM     28  O   UNL     1      -4.312  13.905  23.518  0.00  0.00    +0.000 OA
ENDBRANCH  16  18
ENDBRANCH  13  14
ENDBRANCH  12  13
ENDBRANCH   4  12
BRANCH   5  29
ATOM     29  C   UNL     1       3.930   5.452  19.556  0.00  0.00    +0.000 C 
BRANCH  29  30
ATOM     30  C   UNL     1       2.943   4.308  19.614  0.00  0.00    +0.000 A 
ATOM     31  C   UNL     1       2.184   4.006  20.755  0.00  0.00    +0.000 A 
ATOM     32  C   UNL     1       1.300   2.924  20.756  0.00  0.00    +0.000 A 
ATOM     33  C   UNL     1       1.146   2.141  19.616  0.00  0.00    +0.000 A 
ATOM     34  C   UNL     1       1.855   2.454  18.461  0.00  0.00    +0.000 A 
ATOM     35  C   UNL     1       2.740   3.534  18.457  0.00  0.00    +0.000 A 
ENDBRANCH  29  30
ENDBRANCH   5  29
TORSDOF 7
ENDMDL
MODEL 3
REMARK VINA RESULT:      -8.8      4.605      6.677
REMARK  Name = 
REMARK  8 active torsions:
REMARK  status: ('A' for Active; 'I' for Inactive)
REMARK    1  A    between atoms: C_1  and  C_2
REMARK    2  A    between atoms: C_6  and  C_7
REMARK    3  A    between atoms: C_10  and  S_11
REMARK    4  A    between atoms: S_11  and  C_12
REMARK    5  A    between atoms: C_12  and  C_13
REMARK    6  A    between atoms: N_15  and  C_16
REMARK    7  A    between atoms: N_27  and  C_28
REMARK    8  A    between atoms: C_28  and  C_29
REMARK                            x       y       z     vdW  Elec       q    Type
REMARK                         _______ _______ _______ _____ _____    ______ ____
ROOT
ATOM      1  C   UNL     1       4.270   6.770  17.237  0.00  0.00    +0.000 A 
ATOM      2  N   UNL     1       3.943   7.886  16.608  0.00  0.00    +0.000 NA
ATOM      3  N   UNL     1       2.961   8.533  17.319  0.00  0.00    +0.000 NA
ATOM      4  C   UNL     1       2.708   7.817  18.386  0.00  0.00    +0.000 A 
ATOM      5  N   UNL     1       3.528   6.711  18.405  0.00  0.00    +0.000 N 
ENDROOT
BRANCH   1  11
ATOM      6  C   UNL     1       7.533   6.945  17.432  0.00  0.00    +0.000 C 
ATOM      7  C   UNL     1       6.646   5.948  16.798  0.00  0.00    +0.000 A 
ATOM      8  O   UNL     1       7.289   4.913  16.176  0.00  0.00    +0.000 OA
ATOM      9  C   UNL     1       6.336   4.113  15.648  0.00  0.00    +0.000 A 
ATOM     10  C   UNL     1       5.082   4.611  15.922  0.00  0.00    +0.000 A 
ATOM     11  C   UNL     1       5.272   5.800  16.679  0.00  0.00    +0.000 A 
ENDBRANCH   1  11
BRANCH   4  12
ATOM     12  S   UNL     1       1.531   8.188  19.613  0.00  0.00    +0.000 S 
BRANCH  12  13
ATOM     13  C   UNL     1       0.593   9.534  18.822  0.00  0.00    +0.000 C 
BRANCH  13  14
ATOM     14  C   UNL     1       1.001  10.943  19.279  0.00  0.00    +0.000 C 
ATOM     15  O   UNL     1       1.120  11.164  20.482  0.00  0.00    +0.000 OA
ATOM     16  N   UNL     1       1.257  11.866  18.277  0.00  0.00    +0.000 N 
ATOM     17  H   UNL     1       0.986  11.592  17.339  0.00  0.00    +0.000 HD
BRANCH  16  18
ATOM     18  C   UNL     1       1.722  13.197  18.442  0.00  0.00    +0.000 A 
ATOM     19  C   UNL     1       3.056  13.576  18.255  0.00  0.00    +0.000 A 
ATOM     20  C   UNL     1       3.453  14.909  18.410  0.00  0.00    +0.000 A 
ATOM     21  C   UNL     1       2.531  15.875  18.803  0.00  0.00    +0.000 A 
ATOM     22  C   UNL     1       1.201  15.515  19.011  0.00  0.00    +0.000 A 
ATOM     23  C   UNL     1       0.790  14.190  18.791  0.00  0.00    +0.000 A 
ATOM     24  O   UNL     1       0.234  16.427  19.346  0.00  0.00    +0.000 OA
ATOM     25  C   UNL     1       0.500  17.061  20.601  0.00  0.00    +0.000 C 
ATOM     26  C   UNL     1       1.494  18.211  20.492  0.00  0.00    +0.000 C 
ATOM     27  C   UNL     1       2.893  17.709  20.172  0.00  0.00    +0.000 C 
ATOM     28  O   UNL     1       2.973  17.168  18.856  0.00  0.00    +0.000 OA
ENDBRANCH  16  18
ENDBRANCH  13  14
ENDBRANCH  12  13
ENDBRANCH   4  12
BRANCH   5  29
ATOM     29  C   UNL     1       3.691   5.788  19.513  0.00  0.00    +0.000 C 
BRANCH  29  30
ATOM     30  C   UNL     1       2.656   4.688  19.564  0.00  0.00    +0.000 A 
ATOM     31  C   UNL     1       1.951   4.351  20.729  0.00  0.00    +0.000 A 
ATOM     32  C   UNL     1       1.018   3.311  20.722  0.00  0.00    +0.000 A 
ATOM     33  C   UNL     1       0.758   2.608  19.549  0.00  0.00    +0.000 A 
ATOM     34  C   UNL     1       1.413   2.959  18.373  0.00  0.00    +0.000 A 
ATOM     35  C   UNL     1       2.348   3.996  18.378  0.00  0.00    +0.000 A 
ENDBRANCH  29  30
ENDBRANCH   5  29
TORSDOF 7
ENDMDL
MODEL 4
REMARK VINA RESULT:      -8.7      5.214      9.098
REMARK  Name = 
REMARK  8 active torsions:
REMARK  status: ('A' for Active; 'I' for Inactive)
REMARK    1  A    between atoms: C_1  and  C_2
REMARK    2  A    between atoms: C_6  and  C_7
REMARK    3  A    between atoms: C_10  and  S_11
REMARK    4  A    between atoms: S_11  and  C_12
REMARK    5  A    between atoms: C_12  and  C_13
REMARK    6  A    between atoms: N_15  and  C_16
REMARK    7  A    between atoms: N_27  and  C_28
REMARK    8  A    between atoms: C_28  and  C_29
REMARK                            x       y       z     vdW  Elec       q    Type
REMARK                         _______ _______ _______ _____ _____    ______ ____
ROOT
ATOM      1  C   UNL     1       4.275   6.737  17.556  0.00  0.00    +0.000 A 
ATOM      2  N   UNL     1       3.717   7.899  17.264  0.00  0.00    +0.000 NA
ATOM      3  N   UNL     1       2.729   8.167  18.181  0.00  0.00    +0.000 NA
ATOM      4  C   UNL     1       2.703   7.174  19.036  0.00  0.00    +0.000 A 
ATOM      5  N   UNL     1       3.679   6.259  18.711  0.00  0.00    +0.000 N 
ENDROOT
BRANCH   1  11
ATOM      6  C   UNL     1       7.486   7.368  17.639  0.00  0.00    +0.000 C 
ATOM      7  C   UNL     1       6.694   6.453  16.791  0.00  0.00    +0.000 A 
ATOM      8  O   UNL     1       7.416   5.743  15.872  0.00  0.00    +0.000 OA
ATOM      9  C   UNL     1       6.541   4.976  15.185  0.00  0.00    +0.000 A 
ATOM     10  C   UNL     1       5.260   5.175  15.647  0.00  0.00    +0.000 A 
ATOM     11  C   UNL     1       5.349   6.128  16.699  0.00  0.00    +0.000 A 
ENDBRANCH   1  11
BRANCH   4  12
ATOM     12  S   UNL     1       1.619   7.016  20.388  0.00  0.00    +0.000 S 
BRANCH  12  13
ATOM     13  C   UNL     1       1.582   8.721  21.026  0.00  0.00    +0.000 C 
BRANCH  13  14
ATOM     14  C   UNL     1       0.170   9.302  21.197  0.00  0.00    +0.000 C 
ATOM     15  O   UNL     1      -0.734   8.559  21.573  0.00  0.00    +0.000 OA
ATOM     16  N   UNL     1       0.028  10.660  20.956  0.00  0.00    +0.000 N 
ATOM     17  H   UNL     1       0.819  11.120  20.520  0.00  0.00    +0.000 HD
BRANCH  16  18
ATOM     18  C   UNL     1      -1.148  11.437  21.122  0.00  0.00    +0.000 A 
ATOM     19  C   UNL     1      -1.862  11.990  20.054  0.00  0.00    +0.000 A 
ATOM     20  C   UNL     1      -3.029  12.731  20.276  0.00  0.00    +0.000 A 
ATOM     21  C   UNL     1      -3.472  12.970  21.573  0.00  0.00    +0.000 A 
ATOM     22  C   UNL     1      -2.766  12.441  22.652  0.00  0.00    +0.000 A 
ATOM     23  C   UNL     1      -1.632  11.643  22.425  0.00  0.00    +0.000 A 
ATOM     24  O   UNL     1      -3.179  12.595  23.950  0.00  0.00    +0.000 OA
ATOM     25  C   UNL     1      -3.213  13.968  24.348  0.00  0.00    +0.000 C 
ATOM     26  C   UNL     1      -4.479  14.690  23.899  0.00  0.00    +0.000 C 
ATOM     27  C   UNL     1      -4.510  14.873  22.391  0.00  0.00    +0.000 C 
ATOM     28  O   UNL     1      -4.662  13.630  21.709  0.00  0.00    +0.000 OA
ENDBRANCH  16  18
ENDBRANCH  13  14
ENDBRANCH  12  13
ENDBRANCH   4  12
BRANCH   5  29
ATOM     29  C   UNL     1       4.098   5.133  19.524  0.00  0.00    +0.000 C 
BRANCH  29  30
ATOM     30  C   UNL     1       3.106   3.992  19.564  0.00  0.00    +0.000 A 
ATOM     31  C   UNL     1       2.595   3.463  20.759  0.00  0.00    +0.000 A 
ATOM     32  C   UNL     1       1.694   2.395  20.736  0.00  0.00    +0.000 A 
ATOM     33  C   UNL     1       1.275   1.855  19.524  0.00  0.00    +0.000 A 
ATOM     34  C   UNL     1       1.735   2.397  18.329  0.00  0.00    +0.000 A 
ATOM     35  C   UNL     1       2.637   3.463  18.349  0.00  0.00    +0.000 A 
ENDBRANCH  29  30
ENDBRANCH   5  29
TORSDOF 7
ENDMDL
MODEL 5
REMARK VINA RESULT:      -8.6      5.472      9.394
REMARK  Name = 
REMARK  8 active torsions:
REMARK  status: ('A' for Active; 'I' for Inactive)
REMARK    1  A    between atoms: C_1  and  C_2
REMARK    2  A    between atoms: C_6  and  C_7
REMARK    3  A    between atoms: C_10  and  S_11
REMARK    4  A    between atoms: S_11  and  C_12
REMARK    5  A    between atoms: C_12  and  C_13
REMARK    6  A    between atoms: N_15  and  C_16
REMARK    7  A    between atoms: N_27  and  C_28
REMARK    8  A    between atoms: C_28  and  C_29
REMARK                            x       y       z     vdW  Elec       q    Type
REMARK                         _______ _______ _______ _____ _____    ______ ____
ROOT
ATOM      1  C   UNL     1       2.694   5.795  19.521  0.00  0.00    +0.000 A 
ATOM      2  N   UNL     1       2.088   6.424  20.513  0.00  0.00    +0.000 NA
ATOM      3  N   UNL     1       1.822   7.717  20.129  0.00  0.00    +0.000 NA
ATOM      4  C   UNL     1       2.251   7.862  18.900  0.00  0.00    +0.000 A 
ATOM      5  N   UNL     1       2.780   6.672  18.453  0.00  0.00    +0.000 N 
ENDROOT
BRANCH   1  11
ATOM      6  C   UNL     1       0.883   3.069  19.610  0.00  0.00    +0.000 C 
ATOM      7  C   UNL     1       2.345   3.272  19.687  0.00  0.00    +0.000 A 
ATOM      8  O   UNL     1       3.082   2.128  19.823  0.00  0.00    +0.000 OA
ATOM      9  C   UNL     1       4.381   2.496  19.888  0.00  0.00    +0.000 A 
ATOM     10  C   UNL     1       4.498   3.865  19.791  0.00  0.00    +0.000 A 
ATOM     11  C   UNL     1       3.180   4.379  19.650  0.00  0.00    +0.000 A 
ENDBRANCH   1  11
BRANCH   4  12
ATOM     12  S   UNL     1       2.168   9.319  17.952  0.00  0.00    +0.000 S 
BRANCH  12  13
ATOM     13  C   UNL     1       1.310  10.448  19.094  0.00  0.00    +0.000 C 
BRANCH  13  14
ATOM     14  C   UNL     1      -0.223  10.377  19.021  0.00  0.00    +0.000 C 
ATOM     15  O   UNL     1      -0.823   9.677  19.833  0.00  0.00    +0.000 OA
ATOM     16  N   UNL     1      -0.831  11.164  18.054  0.00  0.00    +0.000 N 
ATOM     17  H   UNL     1      -0.214  11.580  17.366  0.00  0.00    +0.000 HD
BRANCH  16  18
ATOM     18  C   UNL     1      -2.224  11.330  17.843  0.00  0.00    +0.000 A 
ATOM     19  C   UNL     1      -2.855  11.063  16.623  0.00  0.00    +0.000 A 
ATOM     20  C   UNL     1      -4.238  11.224  16.478  0.00  0.00    +0.000 A 
ATOM     21  C   UNL     1      -5.004  11.701  17.537  0.00  0.00    +0.000 A 
ATOM     22  C   UNL     1      -4.392  11.987  18.757  0.00  0.00    +0.000 A 
ATOM     23  C   UNL     1      -3.015  11.763  18.920  0.00  0.00    +0.000 A 
ATOM     24  O   UNL     1      -5.097  12.408  19.854  0.00  0.00    +0.000 OA
ATOM     25  C   UNL     1      -5.757  13.657  19.628  0.00  0.00    +0.000 C 
ATOM     26  C   UNL     1      -7.078  13.510  18.882  0.00  0.00    +0.000 C 
ATOM     27  C   UNL     1      -6.858  13.086  17.439  0.00  0.00    +0.000 C 
ATOM     28  O   UNL     1      -6.357  11.754  17.348  0.00  0.00    +0.000 OA
ENDBRANCH  16  18
ENDBRANCH  13  14
ENDBRANCH  12  13
ENDBRANCH   4  12
BRANCH   5  29
ATOM     29  C   UNL     1       3.173   6.371  17.088  0.00  0.00    +0.000 C 
BRANCH  29  30
ATOM     30  C   UNL     1       4.596   5.883  16.944  0.00  0.00    +0.000 A 
ATOM     31  C   UNL     1       4.930   4.660  16.343  0.00  0.00    +0.000 A 
ATOM     32  C   UNL     1       6.263   4.250  16.255  0.00  0.00    +0.000 A 
ATOM     33  C   UNL     1       7.282   5.062  16.745  0.00  0.00    +0.000 A 
ATOM     34  C   UNL     1       6.973   6.299  17.302  0.00  0.00    +0.000 A 
ATOM     35  C   UNL     1       5.641   6.710  17.393  0.00  0.00    +0.000 A 
ENDBRANCH  29  30
ENDBRANCH   5  29
TORSDOF 7
ENDMDL
MODEL 6
REMARK VINA RESULT:      -8.6      5.161      9.389
REMARK  Name = 
REMARK  8 active torsions:
REMARK  status: ('A' for Active; 'I' for Inactive)
REMARK    1  A    between atoms: C_1  and  C_2
REMARK    2  A    between atoms: C_6  and  C_7
REMARK    3  A    between atoms: C_10  and  S_11
REMARK    4  A    between atoms: S_11  and  C_12
REMARK    5  A    between atoms: C_12  and  C_13
REMARK    6  A    between atoms: N_15  and  C_16
REMARK    7  A    between atoms: N_27  and  C_28
REMARK    8  A    between atoms: C_28  and  C_29
REMARK                            x       y       z     vdW  Elec       q    Type
REMARK                         _______ _______ _______ _____ _____    ______ ____
ROOT
ATOM      1  C   UNL     1       4.269   6.759  17.337  0.00  0.00    +0.000 A 
ATOM      2  N   UNL     1       3.705   7.880  16.922  0.00  0.00    +0.000 NA
ATOM      3  N   UNL     1       2.733   8.254  17.819  0.00  0.00    +0.000 NA
ATOM      4  C   UNL     1       2.722   7.367  18.783  0.00  0.00    +0.000 A 
ATOM      5  N   UNL     1       3.693   6.419  18.550  0.00  0.00    +0.000 N 
ENDROOT
BRANCH   1  11
ATOM      6  C   UNL     1       7.513   7.133  17.563  0.00  0.00    +0.000 C 
ATOM      7  C   UNL     1       6.689   6.272  16.689  0.00  0.00    +0.000 A 
ATOM      8  O   UNL     1       7.393   5.492  15.814  0.00  0.00    +0.000 OA
ATOM      9  C   UNL     1       6.492   4.786  15.095  0.00  0.00    +0.000 A 
ATOM     10  C   UNL     1       5.211   5.094  15.494  0.00  0.00    +0.000 A 
ATOM     11  C   UNL     1       5.328   6.053  16.539  0.00  0.00    +0.000 A 
ENDBRANCH   1  11
BRANCH   4  12
ATOM     12  S   UNL     1       1.662   7.368  20.163  0.00  0.00    +0.000 S 
BRANCH  12  13
ATOM     13  C   UNL     1       1.524   9.149  20.514  0.00  0.00    +0.000 C 
BRANCH  13  14
ATOM     14  C   UNL     1       0.081   9.653  20.675  0.00  0.00    +0.000 C 
ATOM     15  O   UNL     1      -0.632   9.142  21.536  0.00  0.00    +0.000 OA
ATOM     16  N   UNL     1      -0.301  10.701  19.853  0.00  0.00    +0.000 N 
ATOM     17  H   UNL     1       0.336  10.931  19.098  0.00  0.00    +0.000 HD
BRANCH  16  18
ATOM     18  C   UNL     1      -1.544  11.386  19.867  0.00  0.00    +0.000 A 
ATOM     19  C   UNL     1      -1.966  12.195  20.928  0.00  0.00    +0.000 A 
ATOM     20  C   UNL     1      -3.194  12.865  20.878  0.00  0.00    +0.000 A 
ATOM     21  C   UNL     1      -4.040  12.698  19.786  0.00  0.00    +0.000 A 
ATOM     22  C   UNL     1      -3.645  11.885  18.725  0.00  0.00    +0.000 A 
ATOM     23  C   UNL     1      -2.385  11.265  18.747  0.00  0.00    +0.000 A 
ATOM     24  O   UNL     1      -4.408  11.721  17.598  0.00  0.00    +0.000 OA
ATOM     25  C   UNL     1      -5.677  11.127  17.884  0.00  0.00    +0.000 C 
ATOM     26  C   UNL     1      -6.707  12.130  18.391  0.00  0.00    +0.000 C 
ATOM     27  C   UNL     1      -6.356  12.635  19.781  0.00  0.00    +0.000 C 
ATOM     28  O   UNL     1      -5.184  13.447  19.769  0.00  0.00    +0.000 OA
ENDBRANCH  16  18
ENDBRANCH  13  14
ENDBRANCH  12  13
ENDBRANCH   4  12
BRANCH   5  29
ATOM     29  C   UNL     1       4.127   5.394  19.480  0.00  0.00    +0.000 C 
BRANCH  29  30
ATOM     30  C   UNL     1       3.447   4.056  19.292  0.00  0.00    +0.000 A 
ATOM     31  C   UNL     1       3.946   3.055  18.445  0.00  0.00    +0.000 A 
ATOM     32  C   UNL     1       3.265   1.844  18.296  0.00  0.00    +0.000 A 
ATOM     33  C   UNL     1       2.091   1.606  19.004  0.00  0.00    +0.000 A 
ATOM     34  C   UNL     1       1.607   2.569  19.885  0.00  0.00    +0.000 A 
ATOM     35  C   UNL     1       2.285   3.780  20.034  0.00  0.00    +0.000 A 
ENDBRANCH  29  30
ENDBRANCH   5  29
TORSDOF 7
ENDMDL
MODEL 7
REMARK VINA RESULT:      -8.6      6.361     10.586
REMARK  Name = 
REMARK  8 active torsions:
REMARK  status: ('A' for Active; 'I' for Inactive)
REMARK    1  A    between atoms: C_1  and  C_2
REMARK    2  A    between atoms: C_6  and  C_7
REMARK    3  A    between atoms: C_10  and  S_11
REMARK    4  A    between atoms: S_11  and  C_12
REMARK    5  A    between atoms: C_12  and  C_13
REMARK    6  A    between atoms: N_15  and  C_16
REMARK    7  A    between atoms: N_27  and  C_28
REMARK    8  A    between atoms: C_28  and  C_29
REMARK                            x       y       z     vdW  Elec       q    Type
REMARK                         _______ _______ _______ _____ _____    ______ ____
ROOT
ATOM      1  C   UNL     1      -3.239  12.573  22.348  0.00  0.00    +0.000 A 
ATOM      2  N   UNL     1      -2.859  12.108  23.526  0.00  0.00    +0.000 NA
ATOM      3  N   UNL     1      -1.619  11.528  23.402  0.00  0.00    +0.000 NA
ATOM      4  C   UNL     1      -1.244  11.658  22.154  0.00  0.00    +0.000 A 
ATOM      5  N   UNL     1      -2.211  12.340  21.450  0.00  0.00    +0.000 N 
ENDROOT
BRANCH   1  11
ATOM      6  C   UNL     1      -4.024  15.734  22.680  0.00  0.00    +0.000 C 
ATOM      7  C   UNL     1      -4.840  14.561  22.302  0.00  0.00    +0.000 A 
ATOM      8  O   UNL     1      -6.156  14.828  22.047  0.00  0.00    +0.000 OA
ATOM      9  C   UNL     1      -6.747  13.654  21.732  0.00  0.00    +0.000 A 
ATOM     10  C   UNL     1      -5.831  12.627  21.774  0.00  0.00    +0.000 A 
ATOM     11  C   UNL     1      -4.584  13.208  22.134  0.00  0.00    +0.000 A 
ENDBRANCH   1  11
BRANCH   4  12
ATOM     12  S   UNL     1       0.247  11.079  21.468  0.00  0.00    +0.000 S 
BRANCH  12  13
ATOM     13  C   UNL     1       0.532   9.567  22.441  0.00  0.00    +0.000 C 
BRANCH  13  14
ATOM     14  C   UNL     1       0.500   8.270  21.618  0.00  0.00    +0.000 C 
ATOM     15  O   UNL     1      -0.588   7.766  21.349  0.00  0.00    +0.000 OA
ATOM     16  N   UNL     1       1.725   7.780  21.191  0.00  0.00    +0.000 N 
ATOM     17  H   UNL     1       2.545   8.214  21.601  0.00  0.00    +0.000 HD
BRANCH  16  18
ATOM     18  C   UNL     1       1.949   6.652  20.360  0.00  0.00    +0.000 A 
ATOM     19  C   UNL     1       1.443   5.378  20.637  0.00  0.00    +0.000 A 
ATOM     20  C   UNL     1       1.678   4.306  19.768  0.00  0.00    +0.000 A 
ATOM     21  C   UNL     1       2.464   4.481  18.634  0.00  0.00    +0.000 A 
ATOM     22  C   UNL     1       2.991   5.740  18.348  0.00  0.00    +0.000 A 
ATOM     23  C   UNL     1       2.700   6.829  19.185  0.00  0.00    +0.000 A 
ATOM     24  O   UNL     1       3.728   5.991  17.220  0.00  0.00    +0.000 OA
ATOM     25  C   UNL     1       4.933   5.221  17.177  0.00  0.00    +0.000 C 
ATOM     26  C   UNL     1       4.717   3.798  16.674  0.00  0.00    +0.000 C 
ATOM     27  C   UNL     1       3.932   2.967  17.675  0.00  0.00    +0.000 C 
ATOM     28  O   UNL     1       2.582   3.412  17.791  0.00  0.00    +0.000 OA
ENDBRANCH  16  18
ENDBRANCH  13  14
ENDBRANCH  12  13
ENDBRANCH   4  12
BRANCH   5  29
ATOM     29  C   UNL     1      -2.080  12.855  20.099  0.00  0.00    +0.000 C 
BRANCH  29  30
ATOM     30  C   UNL     1      -2.614  11.931  19.028  0.00  0.00    +0.000 A 
ATOM     31  C   UNL     1      -3.984  11.768  18.768  0.00  0.00    +0.000 A 
ATOM     32  C   UNL     1      -4.420  10.885  17.777  0.00  0.00    +0.000 A 
ATOM     33  C   UNL     1      -3.499  10.169  17.018  0.00  0.00    +0.000 A 
ATOM     34  C   UNL     1      -2.137  10.353  17.230  0.00  0.00    +0.000 A 
ATOM     35  C   UNL     1      -1.698  11.233  18.221  0.00  0.00    +0.000 A 
ENDBRANCH  29  30
ENDBRANCH   5  29
TORSDOF 7
ENDMDL
MODEL 8
REMARK VINA RESULT:      -8.6      5.589      9.327
REMARK  Name = 
REMARK  8 active torsions:
REMARK  status: ('A' for Active; 'I' for Inactive)
REMARK    1  A    between atoms: C_1  and  C_2
REMARK    2  A    between atoms: C_6  and  C_7
REMARK    3  A    between atoms: C_10  and  S_11
REMARK    4  A    between atoms: S_11  and  C_12
REMARK    5  A    between atoms: C_12  and  C_13
REMARK    6  A    between atoms: N_15  and  C_16
REMARK    7  A    between atoms: N_27  and  C_28
REMARK    8  A    between atoms: C_28  and  C_29
REMARK                            x       y       z     vdW  Elec       q    Type
REMARK                         _______ _______ _______ _____ _____    ______ ____
ROOT
ATOM      1  C   UNL     1       4.211   6.767  17.348  0.00  0.00    +0.000 A 
ATOM      2  N   UNL     1       3.876   7.876  16.710  0.00  0.00    +0.000 NA
ATOM      3  N   UNL     1       2.873   8.509  17.403  0.00  0.00    +0.000 NA
ATOM      4  C   UNL     1       2.615   7.793  18.469  0.00  0.00    +0.000 A 
ATOM      5  N   UNL     1       3.452   6.701  18.505  0.00  0.00    +0.000 N 
ENDROOT
BRANCH   1  11
ATOM      6  C   UNL     1       7.468   7.076  17.452  0.00  0.00    +0.000 C 
ATOM      7  C   UNL     1       6.607   6.017  16.886  0.00  0.00    +0.000 A 
ATOM      8  O   UNL     1       7.274   4.980  16.296  0.00  0.00    +0.000 OA
ATOM      9  C   UNL     1       6.342   4.120  15.829  0.00  0.00    +0.000 A 
ATOM     10  C   UNL     1       5.076   4.583  16.111  0.00  0.00    +0.000 A 
ATOM     11  C   UNL     1       5.237   5.812  16.809  0.00  0.00    +0.000 A 
ENDBRANCH   1  11
BRANCH   4  12
ATOM     12  S   UNL     1       1.413   8.150  19.676  0.00  0.00    +0.000 S 
BRANCH  12  13
ATOM     13  C   UNL     1       1.167   9.937  19.427  0.00  0.00    +0.000 C 
BRANCH  13  14
ATOM     14  C   UNL     1      -0.293  10.398  19.555  0.00  0.00    +0.000 C 
ATOM     15  O   UNL     1      -1.164   9.784  18.943  0.00  0.00    +0.000 OA
ATOM     16  N   UNL     1      -0.529  11.466  20.407  0.00  0.00    +0.000 N 
ATOM     17  H   UNL     1       0.291  11.964  20.735  0.00  0.00    +0.000 HD
BRANCH  16  18
ATOM     18  C   UNL     1      -1.790  12.020  20.750  0.00  0.00    +0.000 A 
ATOM     19  C   UNL     1      -2.745  12.406  19.803  0.00  0.00    +0.000 A 
ATOM     20  C   UNL     1      -3.982  12.927  20.200  0.00  0.00    +0.000 A 
ATOM     21  C   UNL     1      -4.264  13.114  21.550  0.00  0.00    +0.000 A 
ATOM     22  C   UNL     1      -3.320  12.750  22.509  0.00  0.00    +0.000 A 
ATOM     23  C   UNL     1      -2.105  12.167  22.111  0.00  0.00    +0.000 A 
ATOM     24  O   UNL     1      -3.556  12.859  23.854  0.00  0.00    +0.000 OA
ATOM     25  C   UNL     1      -3.783  14.213  24.257  0.00  0.00    +0.000 C 
ATOM     26  C   UNL     1      -5.212  14.680  24.005  0.00  0.00    +0.000 C 
ATOM     27  C   UNL     1      -5.500  14.817  22.519  0.00  0.00    +0.000 C 
ATOM     28  O   UNL     1      -5.521  13.550  21.866  0.00  0.00    +0.000 OA
ENDBRANCH  16  18
ENDBRANCH  13  14
ENDBRANCH  12  13
ENDBRANCH   4  12
BRANCH   5  29
ATOM     29  C   UNL     1       3.613   5.784  19.618  0.00  0.00    +0.000 C 
BRANCH  29  30
ATOM     30  C   UNL     1       2.604   4.659  19.649  0.00  0.00    +0.000 A 
ATOM     31  C   UNL     1       2.033   4.172  20.835  0.00  0.00    +0.000 A 
ATOM     32  C   UNL     1       1.118   3.117  20.805  0.00  0.00    +0.000 A 
ATOM     33  C   UNL     1       0.743   2.547  19.591  0.00  0.00    +0.000 A 
ATOM     34  C   UNL     1       1.263   3.048  18.402  0.00  0.00    +0.000 A 
ATOM     35  C   UNL     1       2.179   4.101  18.430  0.00  0.00    +0.000 A 
ENDBRANCH  29  30
ENDBRANCH   5  29
TORSDOF 7
ENDMDL
MODEL 9
REMARK VINA RESULT:      -8.5      4.972      8.277
REMARK  Name = 
REMARK  8 active torsions:
REMARK  status: ('A' for Active; 'I' for Inactive)
REMARK    1  A    between atoms: C_1  and  C_2
REMARK    2  A    between atoms: C_6  and  C_7
REMARK    3  A    between atoms: C_10  and  S_11
REMARK    4  A    between atoms: S_11  and  C_12
REMARK    5  A    between atoms: C_12  and  C_13
REMARK    6  A    between atoms: N_15  and  C_16
REMARK    7  A    between atoms: N_27  and  C_28
REMARK    8  A    between atoms: C_28  and  C_29
REMARK                            x       y       z     vdW  Elec       q    Type
REMARK                         _______ _______ _______ _____ _____    ______ ____
ROOT
ATOM      1  C   UNL     1       1.962   5.845  20.112  0.00  0.00    +0.000 A 
ATOM      2  N   UNL     1       1.258   6.742  20.782  0.00  0.00    +0.000 NA
ATOM      3  N   UNL     1       1.424   7.973  20.195  0.00  0.00    +0.000 NA
ATOM      4  C   UNL     1       2.213   7.816  19.161  0.00  0.00    +0.000 A 
ATOM      5  N   UNL     1       2.556   6.489  19.040  0.00  0.00    +0.000 N 
ENDROOT
BRANCH   1  11
ATOM      6  C   UNL     1       1.067   3.198  18.405  0.00  0.00    +0.000 C 
ATOM      7  C   UNL     1       1.638   3.337  19.762  0.00  0.00    +0.000 A 
ATOM      8  O   UNL     1       1.825   2.162  20.435  0.00  0.00    +0.000 OA
ATOM      9  C   UNL     1       2.337   2.474  21.647  0.00  0.00    +0.000 A 
ATOM     10  C   UNL     1       2.487   3.837  21.769  0.00  0.00    +0.000 A 
ATOM     11  C   UNL     1       2.044   4.408  20.544  0.00  0.00    +0.000 A 
ENDBRANCH   1  11
BRANCH   4  12
ATOM     12  S   UNL     1       2.751   9.073  18.083  0.00  0.00    +0.000 S 
BRANCH  12  13
ATOM     13  C   UNL     1       1.213  10.012  17.823  0.00  0.00    +0.000 C 
BRANCH  13  14
ATOM     14  C   UNL     1       0.780  10.864  19.025  0.00  0.00    +0.000 C 
ATOM     15  O   UNL     1       1.445  11.856  19.318  0.00  0.00    +0.000 OA
ATOM     16  N   UNL     1      -0.379  10.470  19.675  0.00  0.00    +0.000 N 
ATOM     17  H   UNL     1      -0.747   9.561  19.418  0.00  0.00    +0.000 HD
BRANCH  16  18
ATOM     18  C   UNL     1      -1.021  11.134  20.753  0.00  0.00    +0.000 A 
ATOM     19  C   UNL     1      -0.658  10.955  22.093  0.00  0.00    +0.000 A 
ATOM     20  C   UNL     1      -1.312  11.654  23.114  0.00  0.00    +0.000 A 
ATOM     21  C   UNL     1      -2.371  12.506  22.815  0.00  0.00    +0.000 A 
ATOM     22  C   UNL     1      -2.757  12.687  21.488  0.00  0.00    +0.000 A 
ATOM     23  C   UNL     1      -2.058  12.035  20.459  0.00  0.00    +0.000 A 
ATOM     24  O   UNL     1      -3.756  13.552  21.122  0.00  0.00    +0.000 OA
ATOM     25  C   UNL     1      -5.020  13.188  21.683  0.00  0.00    +0.000 C 
ATOM     26  C   UNL     1      -5.193  13.656  23.124  0.00  0.00    +0.000 C 
ATOM     27  C   UNL     1      -4.279  12.895  24.070  0.00  0.00    +0.000 C 
ATOM     28  O   UNL     1      -2.907  13.216  23.853  0.00  0.00    +0.000 OA
ENDBRANCH  16  18
ENDBRANCH  13  14
ENDBRANCH  12  13
ENDBRANCH   4  12
BRANCH   5  29
ATOM     29  C   UNL     1       3.246   5.884  17.915  0.00  0.00    +0.000 C 
BRANCH  29  30
ATOM     30  C   UNL     1       4.754   5.957  17.999  0.00  0.00    +0.000 A 
ATOM     31  C   UNL     1       5.543   6.637  17.058  0.00  0.00    +0.000 A 
ATOM     32  C   UNL     1       6.935   6.655  17.176  0.00  0.00    +0.000 A 
ATOM     33  C   UNL     1       7.558   6.016  18.244  0.00  0.00    +0.000 A 
ATOM     34  C   UNL     1       6.790   5.377  19.212  0.00  0.00    +0.000 A 
ATOM     35  C   UNL     1       5.398   5.356  19.095  0.00  0.00    +0.000 A 
ENDBRANCH  29  30
ENDBRANCH   5  29
TORSDOF 7
ENDMDL
