MODEL 1
REMARK VINA RESULT:      -8.3      0.000      0.000
REMARK  Name = 
REMARK  3 active torsions:
REMARK  status: ('A' for Active; 'I' for Inactive)
REMARK    1  A    between atoms: C_2  and  C_17
REMARK    2  A    between atoms: C_6  and  C_7
REMARK    3  A    between atoms: N_20  and  C_21
REMARK                            x       y       z     vdW  Elec       q    Type
REMARK                         _______ _______ _______ _____ _____    ______ ____
ROOT
ATOM      1  O   UNL     1       2.218   8.992  17.397  0.00  0.00    +0.000 OA
ATOM      2  C   UNL     1       1.567   9.013  18.436  0.00  0.00    +0.000 C 
ATOM      3  N   UNL     1       1.592   8.075  19.443  0.00  0.00    +0.000 N 
ATOM      4  C   UNL     1       2.407   6.984  19.359  0.00  0.00    +0.000 A 
ATOM      5  N   UNL     1       3.380   6.768  18.515  0.00  0.00    +0.000 NA
ATOM      6  C   UNL     1       3.961   5.536  18.749  0.00  0.00    +0.000 A 
ATOM      7  C   UNL     1       3.355   4.806  19.757  0.00  0.00    +0.000 A 
ATOM      8  S   UNL     1       2.109   5.745  20.491  0.00  0.00    +0.000 S 
ATOM      9  H   UNL     1       0.931   8.161  20.203  0.00  0.00    +0.000 HD
ENDROOT
BRANCH   6  10
ATOM     10  C   UNL     1       5.120   5.108  17.981  0.00  0.00    +0.000 A 
ATOM     11  C   UNL     1       6.412   5.301  18.490  0.00  0.00    +0.000 A 
ATOM     12  F   UNL     1       6.606   5.838  19.704  0.00  0.00    +0.000 F 
ATOM     13  C   UNL     1       7.548   4.908  17.777  0.00  0.00    +0.000 A 
ATOM     14  C   UNL     1       7.412   4.304  16.531  0.00  0.00    +0.000 A 
ATOM     15  C   UNL     1       6.138   4.100  16.005  0.00  0.00    +0.000 A 
ATOM     16  C   UNL     1       5.009   4.501  16.726  0.00  0.00    +0.000 A 
ATOM     17  F   UNL     1       3.806   4.288  16.170  0.00  0.00    +0.000 F 
ENDBRANCH   6  10
BRANCH   2  18
ATOM     18  C   UNL     1       0.593  10.093  18.668  0.00  0.00    +0.000 A 
ATOM     19  C   UNL     1       0.881  11.295  19.352  0.00  0.00    +0.000 A 
ATOM     20  C   UNL     1      -0.286  12.008  19.337  0.00  0.00    +0.000 A 
ATOM     21  N   UNL     1      -1.228  11.235  18.696  0.00  0.00    +0.000 N 
ATOM     22  N   UNL     1      -0.685  10.065  18.237  0.00  0.00    +0.000 NA
BRANCH  21  23
ATOM     23  C   UNL     1      -2.603  11.556  18.495  0.00  0.00    +0.000 A 
ATOM     24  C   UNL     1      -3.238  11.271  17.276  0.00  0.00    +0.000 A 
ATOM     25  C   UNL     1      -4.589  11.580  17.093  0.00  0.00    +0.000 A 
ATOM     26  C   UNL     1      -5.313  12.177  18.120  0.00  0.00    +0.000 A 
ATOM     27  C   UNL     1      -4.688  12.474  19.331  0.00  0.00    +0.000 A 
ATOM     28  C   UNL     1      -3.337  12.166  19.522  0.00  0.00    +0.000 A 
ENDBRANCH  21  23
ENDBRANCH   2  18
TORSDOF 3
ENDMDL
MODEL 2
REMARK VINA RESULT:      -8.3      2.253      2.662
REMARK  Name = 
REMARK  3 active torsions:
REMARK  status: ('A' for Active; 'I' for Inactive)
REMARK    1  A    between atoms: C_2  and  C_17
REMARK    2  A    between atoms: C_6  and  C_7
REMARK    3  A    between atoms: N_20  and  C_21
REMARK                            x       y       z     vdW  Elec       q    Type
REMARK                         _______ _______ _______ _____ _____    ______ ____
ROOT
ATOM      1  O   UNL     1       2.106   8.460  19.438  0.00  0.00    +0.000 OA
ATOM      2  C   UNL     1       1.560   8.088  20.471  0.00  0.00    +0.000 C 
ATOM      3  N   UNL     1       1.615   6.830  21.025  0.00  0.00    +0.000 N 
ATOM      4  C   UNL     1       2.340   5.838  20.432  0.00  0.00    +0.000 A 
ATOM      5  N   UNL     1       3.211   5.945  19.465  0.00  0.00    +0.000 NA
ATOM      6  C   UNL     1       3.725   4.705  19.135  0.00  0.00    +0.000 A 
ATOM      7  C   UNL     1       3.168   3.655  19.843  0.00  0.00    +0.000 A 
ATOM      8  S   UNL     1       2.065   4.263  21.021  0.00  0.00    +0.000 S 
ATOM      9  H   UNL     1       1.036   6.628  21.828  0.00  0.00    +0.000 HD
ENDROOT
BRANCH   6  10
ATOM     10  C   UNL     1       4.774   4.582  18.134  0.00  0.00    +0.000 A 
ATOM     11  C   UNL     1       6.085   4.971  18.437  0.00  0.00    +0.000 A 
ATOM     12  F   UNL     1       6.411   5.418  19.660  0.00  0.00    +0.000 F 
ATOM     13  C   UNL     1       7.116   4.873  17.498  0.00  0.00    +0.000 A 
ATOM     14  C   UNL     1       6.852   4.375  16.226  0.00  0.00    +0.000 A 
ATOM     15  C   UNL     1       5.556   3.981  15.902  0.00  0.00    +0.000 A 
ATOM     16  C   UNL     1       4.532   4.087  16.848  0.00  0.00    +0.000 A 
ATOM     17  F   UNL     1       3.301   3.700  16.481  0.00  0.00    +0.000 F 
ENDBRANCH   6  10
BRANCH   2  18
ATOM     18  C   UNL     1       0.689   9.015  21.213  0.00  0.00    +0.000 A 
ATOM     19  C   UNL     1       0.297   8.838  22.558  0.00  0.00    +0.000 A 
ATOM     20  C   UNL     1      -0.493   9.916  22.850  0.00  0.00    +0.000 A 
ATOM     21  N   UNL     1      -0.585  10.676  21.705  0.00  0.00    +0.000 N 
ATOM     22  N   UNL     1       0.180  10.153  20.697  0.00  0.00    +0.000 NA
BRANCH  21  23
ATOM     23  C   UNL     1      -1.350  11.866  21.530  0.00  0.00    +0.000 A 
ATOM     24  C   UNL     1      -2.350  12.221  22.449  0.00  0.00    +0.000 A 
ATOM     25  C   UNL     1      -3.087  13.395  22.276  0.00  0.00    +0.000 A 
ATOM     26  C   UNL     1      -2.836  14.220  21.184  0.00  0.00    +0.000 A 
ATOM     27  C   UNL     1      -1.852  13.872  20.259  0.00  0.00    +0.000 A 
ATOM     28  C   UNL     1      -1.109  12.699  20.428  0.00  0.00    +0.000 A 
ENDBRANCH  21  23
ENDBRANCH   2  18
TORSDOF 3
ENDMDL
MODEL 3
REMARK VINA RESULT:      -8.3      2.185      2.984
REMARK  Name = 
REMARK  3 active torsions:
REMARK  status: ('A' for Active; 'I' for Inactive)
REMARK    1  A    between atoms: C_2  and  C_17
REMARK    2  A    between atoms: C_6  and  C_7
REMARK    3  A    between atoms: N_20  and  C_21
REMARK                            x       y       z     vdW  Elec       q    Type
REMARK                         _______ _______ _______ _____ _____    ______ ____
ROOT
ATOM      1  O   UNL     1       2.121   8.449  19.470  0.00  0.00    +0.000 OA
ATOM      2  C   UNL     1       1.571   8.065  20.496  0.00  0.00    +0.000 C 
ATOM      3  N   UNL     1       1.625   6.800  21.036  0.00  0.00    +0.000 N 
ATOM      4  C   UNL     1       2.354   5.816  20.434  0.00  0.00    +0.000 A 
ATOM      5  N   UNL     1       3.229   5.935  19.473  0.00  0.00    +0.000 NA
ATOM      6  C   UNL     1       3.746   4.700  19.130  0.00  0.00    +0.000 A 
ATOM      7  C   UNL     1       3.187   3.641  19.823  0.00  0.00    +0.000 A 
ATOM      8  S   UNL     1       2.078   4.234  21.004  0.00  0.00    +0.000 S 
ATOM      9  H   UNL     1       1.043   6.588  21.834  0.00  0.00    +0.000 HD
ENDROOT
BRANCH   6  10
ATOM     10  C   UNL     1       4.799   4.590  18.133  0.00  0.00    +0.000 A 
ATOM     11  C   UNL     1       4.515   4.061  16.866  0.00  0.00    +0.000 A 
ATOM     12  F   UNL     1       3.269   3.692  16.532  0.00  0.00    +0.000 F 
ATOM     13  C   UNL     1       5.503   3.935  15.885  0.00  0.00    +0.000 A 
ATOM     14  C   UNL     1       6.806   4.342  16.154  0.00  0.00    +0.000 A 
ATOM     15  C   UNL     1       7.112   4.872  17.406  0.00  0.00    +0.000 A 
ATOM     16  C   UNL     1       6.116   4.990  18.380  0.00  0.00    +0.000 A 
ATOM     17  F   UNL     1       6.467   5.500  19.571  0.00  0.00    +0.000 F 
ENDBRANCH   6  10
BRANCH   2  18
ATOM     18  C   UNL     1       0.696   8.982  21.245  0.00  0.00    +0.000 A 
ATOM     19  C   UNL     1       0.348   8.822  22.605  0.00  0.00    +0.000 A 
ATOM     20  C   UNL     1      -0.464   9.883  22.898  0.00  0.00    +0.000 A 
ATOM     21  N   UNL     1      -0.611  10.616  21.741  0.00  0.00    +0.000 N 
ATOM     22  N   UNL     1       0.139  10.094  20.722  0.00  0.00    +0.000 NA
BRANCH  21  23
ATOM     23  C   UNL     1      -1.415  11.780  21.565  0.00  0.00    +0.000 A 
ATOM     24  C   UNL     1      -1.321  12.549  20.394  0.00  0.00    +0.000 A 
ATOM     25  C   UNL     1      -2.122  13.682  20.226  0.00  0.00    +0.000 A 
ATOM     26  C   UNL     1      -3.017  14.057  21.222  0.00  0.00    +0.000 A 
ATOM     27  C   UNL     1      -3.111  13.305  22.394  0.00  0.00    +0.000 A 
ATOM     28  C   UNL     1      -2.313  12.170  22.568  0.00  0.00    +0.000 A 
ENDBRANCH  21  23
ENDBRANCH   2  18
TORSDOF 3
ENDMDL
MODEL 4
REMARK VINA RESULT:      -8.2      0.855      1.702
REMARK  Name = 
REMARK  3 active torsions:
REMARK  status: ('A' for Active; 'I' for Inactive)
REMARK    1  A    between atoms: C_2  and  C_17
REMARK    2  A    between atoms: C_6  and  C_7
REMARK    3  A    between atoms: N_20  and  C_21
REMARK                            x       y       z     vdW  Elec       q    Type
REMARK                         _______ _______ _______ _____ _____    ______ ____
ROOT
ATOM      1  O   UNL     1       2.071   9.302  17.262  0.00  0.00    +0.000 OA
ATOM      2  C   UNL     1       1.570   9.282  18.381  0.00  0.00    +0.000 C 
ATOM      3  N   UNL     1       1.715   8.297  19.331  0.00  0.00    +0.000 N 
ATOM      4  C   UNL     1       2.490   7.202  19.087  0.00  0.00    +0.000 A 
ATOM      5  N   UNL     1       3.334   7.013  18.108  0.00  0.00    +0.000 NA
ATOM      6  C   UNL     1       3.919   5.765  18.204  0.00  0.00    +0.000 A 
ATOM      7  C   UNL     1       3.443   4.996  19.252  0.00  0.00    +0.000 A 
ATOM      8  S   UNL     1       2.326   5.914  20.192  0.00  0.00    +0.000 S 
ATOM      9  H   UNL     1       1.166   8.355  20.178  0.00  0.00    +0.000 HD
ENDROOT
BRANCH   6  10
ATOM     10  C   UNL     1       4.954   5.359  17.266  0.00  0.00    +0.000 A 
ATOM     11  C   UNL     1       4.743   4.264  16.417  0.00  0.00    +0.000 A 
ATOM     12  F   UNL     1       3.577   3.600  16.418  0.00  0.00    +0.000 F 
ATOM     13  C   UNL     1       5.717   3.842  15.508  0.00  0.00    +0.000 A 
ATOM     14  C   UNL     1       6.931   4.517  15.426  0.00  0.00    +0.000 A 
ATOM     15  C   UNL     1       7.163   5.609  16.259  0.00  0.00    +0.000 A 
ATOM     16  C   UNL     1       6.183   6.020  17.168  0.00  0.00    +0.000 A 
ATOM     17  F   UNL     1       6.461   7.074  17.951  0.00  0.00    +0.000 F 
ENDBRANCH   6  10
BRANCH   2  18
ATOM     18  C   UNL     1       0.657  10.361  18.793  0.00  0.00    +0.000 A 
ATOM     19  C   UNL     1       1.062  11.538  19.461  0.00  0.00    +0.000 A 
ATOM     20  C   UNL     1      -0.085  12.261  19.647  0.00  0.00    +0.000 A 
ATOM     21  N   UNL     1      -1.124  11.516  19.135  0.00  0.00    +0.000 N 
ATOM     22  N   UNL     1      -0.672  10.358  18.563  0.00  0.00    +0.000 NA
BRANCH  21  23
ATOM     23  C   UNL     1      -2.509  11.855  19.158  0.00  0.00    +0.000 A 
ATOM     24  C   UNL     1      -3.371  11.429  18.136  0.00  0.00    +0.000 A 
ATOM     25  C   UNL     1      -4.729  11.756  18.173  0.00  0.00    +0.000 A 
ATOM     26  C   UNL     1      -5.235  12.513  19.225  0.00  0.00    +0.000 A 
ATOM     27  C   UNL     1      -4.384  12.950  20.241  0.00  0.00    +0.000 A 
ATOM     28  C   UNL     1      -3.025  12.624  20.211  0.00  0.00    +0.000 A 
ENDBRANCH  21  23
ENDBRANCH   2  18
TORSDOF 3
ENDMDL
MODEL 5
REMARK VINA RESULT:      -8.0      0.406      1.885
REMARK  Name = 
REMARK  3 active torsions:
REMARK  status: ('A' for Active; 'I' for Inactive)
REMARK    1  A    between atoms: C_2  and  C_17
REMARK    2  A    between atoms: C_6  and  C_7
REMARK    3  A    between atoms: N_20  and  C_21
REMARK                            x       y       z     vdW  Elec       q    Type
REMARK                         _______ _______ _______ _____ _____    ______ ____
ROOT
ATOM      1  O   UNL     1       2.175   8.955  17.835  0.00  0.00    +0.000 OA
ATOM      2  C   UNL     1       1.530   8.886  18.875  0.00  0.00    +0.000 C 
ATOM      3  N   UNL     1       1.560   7.864  19.796  0.00  0.00    +0.000 N 
ATOM      4  C   UNL     1       2.374   6.784  19.614  0.00  0.00    +0.000 A 
ATOM      5  N   UNL     1       3.343   6.642  18.750  0.00  0.00    +0.000 NA
ATOM      6  C   UNL     1       3.925   5.396  18.873  0.00  0.00    +0.000 A 
ATOM      7  C   UNL     1       3.324   4.581  19.816  0.00  0.00    +0.000 A 
ATOM      8  S   UNL     1       2.081   5.452  20.635  0.00  0.00    +0.000 S 
ATOM      9  H   UNL     1       0.902   7.882  20.563  0.00  0.00    +0.000 HD
ENDROOT
BRANCH   6  10
ATOM     10  C   UNL     1       5.081   5.036  18.065  0.00  0.00    +0.000 A 
ATOM     11  C   UNL     1       4.903   4.435  16.812  0.00  0.00    +0.000 A 
ATOM     12  F   UNL     1       3.676   4.222  16.313  0.00  0.00    +0.000 F 
ATOM     13  C   UNL     1       5.990   4.071  16.012  0.00  0.00    +0.000 A 
ATOM     14  C   UNL     1       7.288   4.306  16.453  0.00  0.00    +0.000 A 
ATOM     15  C   UNL     1       7.490   4.904  17.695  0.00  0.00    +0.000 A 
ATOM     16  C   UNL     1       6.395   5.261  18.489  0.00  0.00    +0.000 A 
ATOM     17  F   UNL     1       6.646   5.826  19.680  0.00  0.00    +0.000 F 
ENDBRANCH   6  10
BRANCH   2  18
ATOM     18  C   UNL     1       0.557   9.940  19.204  0.00  0.00    +0.000 A 
ATOM     19  C   UNL     1       0.790  10.981  20.130  0.00  0.00    +0.000 A 
ATOM     20  C   UNL     1      -0.355  11.731  20.128  0.00  0.00    +0.000 A 
ATOM     21  N   UNL     1      -1.235  11.128  19.258  0.00  0.00    +0.000 N 
ATOM     22  N   UNL     1      -0.667  10.044  18.645  0.00  0.00    +0.000 NA
BRANCH  21  23
ATOM     23  C   UNL     1      -2.573  11.535  18.979  0.00  0.00    +0.000 A 
ATOM     24  C   UNL     1      -3.286  12.333  19.888  0.00  0.00    +0.000 A 
ATOM     25  C   UNL     1      -4.593  12.737  19.601  0.00  0.00    +0.000 A 
ATOM     26  C   UNL     1      -5.198  12.345  18.412  0.00  0.00    +0.000 A 
ATOM     27  C   UNL     1      -4.502  11.543  17.507  0.00  0.00    +0.000 A 
ATOM     28  C   UNL     1      -3.193  11.137  17.787  0.00  0.00    +0.000 A 
ENDBRANCH  21  23
ENDBRANCH   2  18
TORSDOF 3
ENDMDL
MODEL 6
REMARK VINA RESULT:      -8.0      1.716      2.670
REMARK  Name = 
REMARK  3 active torsions:
REMARK  status: ('A' for Active; 'I' for Inactive)
REMARK    1  A    between atoms: C_2  and  C_17
REMARK    2  A    between atoms: C_6  and  C_7
REMARK    3  A    between atoms: N_20  and  C_21
REMARK                            x       y       z     vdW  Elec       q    Type
REMARK                         _______ _______ _______ _____ _____    ______ ____
ROOT
ATOM      1  O   UNL     1       2.210   9.449  17.446  0.00  0.00    +0.000 OA
ATOM      2  C   UNL     1       1.700   9.406  18.560  0.00  0.00    +0.000 C 
ATOM      3  N   UNL     1       1.766   8.364  19.457  0.00  0.00    +0.000 N 
ATOM      4  C   UNL     1       2.463   7.230  19.157  0.00  0.00    +0.000 A 
ATOM      5  N   UNL     1       3.299   7.034  18.173  0.00  0.00    +0.000 NA
ATOM      6  C   UNL     1       3.792   5.743  18.205  0.00  0.00    +0.000 A 
ATOM      7  C   UNL     1       3.254   4.956  19.207  0.00  0.00    +0.000 A 
ATOM      8  S   UNL     1       2.198   5.901  20.190  0.00  0.00    +0.000 S 
ATOM      9  H   UNL     1       1.216   8.416  20.302  0.00  0.00    +0.000 HD
ENDROOT
BRANCH   6  10
ATOM     10  C   UNL     1       4.803   5.315  17.250  0.00  0.00    +0.000 A 
ATOM     11  C   UNL     1       4.591   4.171  16.467  0.00  0.00    +0.000 A 
ATOM     12  F   UNL     1       3.445   3.479  16.547  0.00  0.00    +0.000 F 
ATOM     13  C   UNL     1       5.543   3.727  15.545  0.00  0.00    +0.000 A 
ATOM     14  C   UNL     1       6.734   4.427  15.383  0.00  0.00    +0.000 A 
ATOM     15  C   UNL     1       6.966   5.567  16.149  0.00  0.00    +0.000 A 
ATOM     16  C   UNL     1       6.009   6.000  17.071  0.00  0.00    +0.000 A 
ATOM     17  F   UNL     1       6.287   7.100  17.788  0.00  0.00    +0.000 F 
ENDBRANCH   6  10
BRANCH   2  18
ATOM     18  C   UNL     1       0.863  10.524  19.026  0.00  0.00    +0.000 A 
ATOM     19  C   UNL     1       0.977  11.854  18.562  0.00  0.00    +0.000 A 
ATOM     20  C   UNL     1       0.020  12.557  19.241  0.00  0.00    +0.000 A 
ATOM     21  N   UNL     1      -0.605  11.675  20.095  0.00  0.00    +0.000 N 
ATOM     22  N   UNL     1      -0.123  10.404  19.938  0.00  0.00    +0.000 NA
BRANCH  21  23
ATOM     23  C   UNL     1      -1.632  11.981  21.035  0.00  0.00    +0.000 A 
ATOM     24  C   UNL     1      -1.482  11.663  22.394  0.00  0.00    +0.000 A 
ATOM     25  C   UNL     1      -2.490  11.978  23.310  0.00  0.00    +0.000 A 
ATOM     26  C   UNL     1      -3.653  12.605  22.877  0.00  0.00    +0.000 A 
ATOM     27  C   UNL     1      -3.817  12.916  21.527  0.00  0.00    +0.000 A 
ATOM     28  C   UNL     1      -2.812  12.606  20.606  0.00  0.00    +0.000 A 
ENDBRANCH  21  23
ENDBRANCH   2  18
TORSDOF 3
ENDMDL
MODEL 7
REMARK VINA RESULT:      -8.0      1.699      2.255
REMARK  Name = 
REMARK  3 active torsions:
REMARK  status: ('A' for Active; 'I' for Inactive)
REMARK    1  A    between atoms: C_2  and  C_17
REMARK    2  A    between atoms: C_6  and  C_7
REMARK    3  A    between atoms: N_20  and  C_21
REMARK                            x       y       z     vdW  Elec       q    Type
REMARK                         _______ _______ _______ _____ _____    ______ ____
ROOT
ATOM      1  O   UNL     1       2.185   9.415  17.440  0.00  0.00    +0.000 OA
ATOM      2  C   UNL     1       1.686   9.382  18.560  0.00  0.00    +0.000 C 
ATOM      3  N   UNL     1       1.768   8.352  19.468  0.00  0.00    +0.000 N 
ATOM      4  C   UNL     1       2.466   7.217  19.174  0.00  0.00    +0.000 A 
ATOM      5  N   UNL     1       3.293   7.013  18.184  0.00  0.00    +0.000 NA
ATOM      6  C   UNL     1       3.793   5.726  18.225  0.00  0.00    +0.000 A 
ATOM      7  C   UNL     1       3.269   4.948  19.242  0.00  0.00    +0.000 A 
ATOM      8  S   UNL     1       2.220   5.899  20.226  0.00  0.00    +0.000 S 
ATOM      9  H   UNL     1       1.226   8.411  20.319  0.00  0.00    +0.000 HD
ENDROOT
BRANCH   6  10
ATOM     10  C   UNL     1       4.795   5.291  17.264  0.00  0.00    +0.000 A 
ATOM     11  C   UNL     1       6.013   5.977  17.158  0.00  0.00    +0.000 A 
ATOM     12  F   UNL     1       6.298   7.011  17.964  0.00  0.00    +0.000 F 
ATOM     13  C   UNL     1       6.995   5.591  16.243  0.00  0.00    +0.000 A 
ATOM     14  C   UNL     1       6.779   4.498  15.410  0.00  0.00    +0.000 A 
ATOM     15  C   UNL     1       5.577   3.799  15.497  0.00  0.00    +0.000 A 
ATOM     16  C   UNL     1       4.599   4.197  16.415  0.00  0.00    +0.000 A 
ATOM     17  F   UNL     1       3.457   3.494  16.453  0.00  0.00    +0.000 F 
ENDBRANCH   6  10
BRANCH   2  18
ATOM     18  C   UNL     1       0.849  10.502  19.021  0.00  0.00    +0.000 A 
ATOM     19  C   UNL     1       0.951  11.826  18.540  0.00  0.00    +0.000 A 
ATOM     20  C   UNL     1      -0.002  12.533  19.222  0.00  0.00    +0.000 A 
ATOM     21  N   UNL     1      -0.612  11.659  20.093  0.00  0.00    +0.000 N 
ATOM     22  N   UNL     1      -0.126  10.388  19.947  0.00  0.00    +0.000 NA
BRANCH  21  23
ATOM     23  C   UNL     1      -1.630  11.971  21.041  0.00  0.00    +0.000 A 
ATOM     24  C   UNL     1      -1.469  11.658  22.400  0.00  0.00    +0.000 A 
ATOM     25  C   UNL     1      -2.467  11.979  23.324  0.00  0.00    +0.000 A 
ATOM     26  C   UNL     1      -3.633  12.608  22.900  0.00  0.00    +0.000 A 
ATOM     27  C   UNL     1      -3.808  12.914  21.550  0.00  0.00    +0.000 A 
ATOM     28  C   UNL     1      -2.812  12.598  20.620  0.00  0.00    +0.000 A 
ENDBRANCH  21  23
ENDBRANCH   2  18
TORSDOF 3
ENDMDL
MODEL 8
REMARK VINA RESULT:      -8.0      0.858      1.261
REMARK  Name = 
REMARK  3 active torsions:
REMARK  status: ('A' for Active; 'I' for Inactive)
REMARK    1  A    between atoms: C_2  and  C_17
REMARK    2  A    between atoms: C_6  and  C_7
REMARK    3  A    between atoms: N_20  and  C_21
REMARK                            x       y       z     vdW  Elec       q    Type
REMARK                         _______ _______ _______ _____ _____    ______ ____
ROOT
ATOM      1  O   UNL     1       1.931   9.073  17.393  0.00  0.00    +0.000 OA
ATOM      2  C   UNL     1       1.524   9.059  18.549  0.00  0.00    +0.000 C 
ATOM      3  N   UNL     1       1.793   8.108  19.507  0.00  0.00    +0.000 N 
ATOM      4  C   UNL     1       2.597   7.042  19.223  0.00  0.00    +0.000 A 
ATOM      5  N   UNL     1       3.367   6.867  18.182  0.00  0.00    +0.000 NA
ATOM      6  C   UNL     1       4.016   5.650  18.258  0.00  0.00    +0.000 A 
ATOM      7  C   UNL     1       3.665   4.888  19.358  0.00  0.00    +0.000 A 
ATOM      8  S   UNL     1       2.586   5.779  20.367  0.00  0.00    +0.000 S 
ATOM      9  H   UNL     1       1.313   8.162  20.394  0.00  0.00    +0.000 HD
ENDROOT
BRANCH   6  10
ATOM     10  C   UNL     1       4.989   5.267  17.245  0.00  0.00    +0.000 A 
ATOM     11  C   UNL     1       6.214   5.943  17.156  0.00  0.00    +0.000 A 
ATOM     12  F   UNL     1       6.533   6.917  18.022  0.00  0.00    +0.000 F 
ATOM     13  C   UNL     1       7.168   5.606  16.193  0.00  0.00    +0.000 A 
ATOM     14  C   UNL     1       6.916   4.575  15.294  0.00  0.00    +0.000 A 
ATOM     15  C   UNL     1       5.706   3.888  15.364  0.00  0.00    +0.000 A 
ATOM     16  C   UNL     1       4.757   4.236  16.330  0.00  0.00    +0.000 A 
ATOM     17  F   UNL     1       3.605   3.547  16.349  0.00  0.00    +0.000 F 
ENDBRANCH   6  10
BRANCH   2  18
ATOM     18  C   UNL     1       0.598  10.106  19.012  0.00  0.00    +0.000 A 
ATOM     19  C   UNL     1       0.939  11.130  19.923  0.00  0.00    +0.000 A 
ATOM     20  C   UNL     1      -0.197  11.877  20.070  0.00  0.00    +0.000 A 
ATOM     21  N   UNL     1      -1.175  11.289  19.299  0.00  0.00    +0.000 N 
ATOM     22  N   UNL     1      -0.683  10.218  18.603  0.00  0.00    +0.000 NA
BRANCH  21  23
ATOM     23  C   UNL     1      -2.536  11.699  19.189  0.00  0.00    +0.000 A 
ATOM     24  C   UNL     1      -3.102  12.575  20.129  0.00  0.00    +0.000 A 
ATOM     25  C   UNL     1      -4.434  12.981  20.007  0.00  0.00    +0.000 A 
ATOM     26  C   UNL     1      -5.210  12.513  18.952  0.00  0.00    +0.000 A 
ATOM     27  C   UNL     1      -4.660  11.633  18.018  0.00  0.00    +0.000 A 
ATOM     28  C   UNL     1      -3.327  11.225  18.134  0.00  0.00    +0.000 A 
ENDBRANCH  21  23
ENDBRANCH   2  18
TORSDOF 3
ENDMDL
MODEL 9
REMARK VINA RESULT:      -7.9      1.952      3.202
REMARK  Name = 
REMARK  3 active torsions:
REMARK  status: ('A' for Active; 'I' for Inactive)
REMARK    1  A    between atoms: C_2  and  C_17
REMARK    2  A    between atoms: C_6  and  C_7
REMARK    3  A    between atoms: N_20  and  C_21
REMARK                            x       y       z     vdW  Elec       q    Type
REMARK                         _______ _______ _______ _____ _____    ______ ____
ROOT
ATOM      1  O   UNL     1       1.982   9.085  17.435  0.00  0.00    +0.000 OA
ATOM      2  C   UNL     1       1.518   9.017  18.568  0.00  0.00    +0.000 C 
ATOM      3  N   UNL     1       1.738   8.019  19.490  0.00  0.00    +0.000 N 
ATOM      4  C   UNL     1       2.554   6.966  19.195  0.00  0.00    +0.000 A 
ATOM      5  N   UNL     1       3.374   6.838  18.187  0.00  0.00    +0.000 NA
ATOM      6  C   UNL     1       4.017   5.617  18.234  0.00  0.00    +0.000 A 
ATOM      7  C   UNL     1       3.610   4.803  19.277  0.00  0.00    +0.000 A 
ATOM      8  S   UNL     1       2.484   5.648  20.274  0.00  0.00    +0.000 S 
ATOM      9  H   UNL     1       1.215   8.032  20.354  0.00  0.00    +0.000 HD
ENDROOT
BRANCH   6  10
ATOM     10  C   UNL     1       5.038   5.280  17.254  0.00  0.00    +0.000 A 
ATOM     11  C   UNL     1       4.819   4.243  16.337  0.00  0.00    +0.000 A 
ATOM     12  F   UNL     1       3.656   3.575  16.312  0.00  0.00    +0.000 F 
ATOM     13  C   UNL     1       5.780   3.888  15.387  0.00  0.00    +0.000 A 
ATOM     14  C   UNL     1       6.989   4.573  15.332  0.00  0.00    +0.000 A 
ATOM     15  C   UNL     1       7.230   5.609  16.232  0.00  0.00    +0.000 A 
ATOM     16  C   UNL     1       6.263   5.953  17.181  0.00  0.00    +0.000 A 
ATOM     17  F   UNL     1       6.549   6.952  18.029  0.00  0.00    +0.000 F 
ENDBRANCH   6  10
BRANCH   2  18
ATOM     18  C   UNL     1       0.571  10.043  19.034  0.00  0.00    +0.000 A 
ATOM     19  C   UNL     1      -0.543  10.497  18.294  0.00  0.00    +0.000 A 
ATOM     20  C   UNL     1      -1.148  11.434  19.087  0.00  0.00    +0.000 A 
ATOM     21  N   UNL     1      -0.393  11.545  20.233  0.00  0.00    +0.000 N 
ATOM     22  N   UNL     1       0.649  10.657  20.233  0.00  0.00    +0.000 NA
BRANCH  21  23
ATOM     23  C   UNL     1      -0.619  12.441  21.319  0.00  0.00    +0.000 A 
ATOM     24  C   UNL     1       0.089  13.650  21.414  0.00  0.00    +0.000 A 
ATOM     25  C   UNL     1      -0.148  14.527  22.476  0.00  0.00    +0.000 A 
ATOM     26  C   UNL     1      -1.086  14.204  23.451  0.00  0.00    +0.000 A 
ATOM     27  C   UNL     1      -1.787  13.000  23.371  0.00  0.00    +0.000 A 
ATOM     28  C   UNL     1      -1.557  12.119  22.310  0.00  0.00    +0.000 A 
ENDBRANCH  21  23
ENDBRANCH   2  18
TORSDOF 3
ENDMDL
