MODEL 1
REMARK VINA RESULT:      -8.9      0.000      0.000
REMARK  Name = 
REMARK  7 active torsions:
REMARK  status: ('A' for Active; 'I' for Inactive)
REMARK    1  A    between atoms: C_1  and  O_2
REMARK    2  A    between atoms: O_2  and  C_3
REMARK    3  A    between atoms: C_3  and  C_5
REMARK    4  A    between atoms: C_5  and  N_6
REMARK    5  A    between atoms: C_7  and  C_9
REMARK    6  A    between atoms: C_12  and  N_13
REMARK    7  A    between atoms: N_13  and  C_14
REMARK                            x       y       z     vdW  Elec       q    Type
REMARK                         _______ _______ _______ _____ _____    ______ ____
ROOT
ATOM      1  C   UNL     1       1.127   9.284  18.959  0.00  0.00    +0.000 A 
ATOM      2  C   UNL     1       1.906   8.560  18.049  0.00  0.00    +0.000 A 
ATOM      3  C   UNL     1       2.568   7.392  18.466  0.00  0.00    +0.000 A 
ATOM      4  C   UNL     1       2.480   6.953  19.801  0.00  0.00    +0.000 A 
ATOM      5  C   UNL     1       1.699   7.690  20.692  0.00  0.00    +0.000 A 
ATOM      6  C   UNL     1       1.044   8.851  20.286  0.00  0.00    +0.000 A 
ENDROOT
BRANCH   1   8
ATOM      7  N   UNL     1      -0.788  10.304  17.883  0.00  0.00    +0.000 N 
ATOM      8  C   UNL     1       0.420  10.522  18.514  0.00  0.00    +0.000 C 
ATOM      9  O   UNL     1       0.929  11.620  18.662  0.00  0.00    +0.000 OA
ATOM     10  H   UNL     1      -1.081   9.365  17.627  0.00  0.00    +0.000 HD
BRANCH   7  11
ATOM     11  C   UNL     1      -1.616  11.388  17.393  0.00  0.00    +0.000 C 
BRANCH  11  12
ATOM     12  C   UNL     1      -2.933  10.828  16.875  0.00  0.00    +0.000 C 
ATOM     13  O   UNL     1      -3.686  10.118  17.538  0.00  0.00    +0.000 OA
BRANCH  12  15
ATOM     14  C   UNL     1      -3.137  10.148  14.648  0.00  0.00    +0.000 C 
ATOM     15  O   UNL     1      -3.137  11.213  15.597  0.00  0.00    +0.000 OA
ENDBRANCH  12  15
ENDBRANCH  11  12
ENDBRANCH   7  11
ENDBRANCH   1   8
BRANCH   4  16
ATOM     16  N   UNL     1       3.110   5.761  20.246  0.00  0.00    +0.000 N 
ATOM     17  H   UNL     1       3.002   5.680  21.260  0.00  0.00    +0.000 HD
BRANCH  16  18
ATOM     18  C   UNL     1       2.827   4.434  19.775  0.00  0.00    +0.000 A 
ATOM     19  N   UNL     1       1.553   4.193  19.366  0.00  0.00    +0.000 NA
ATOM     20  C   UNL     1       1.377   3.718  18.119  0.00  0.00    +0.000 A 
ATOM     21  N   UNL     1       2.310   3.684  17.150  0.00  0.00    +0.000 NA
ATOM     22  C   UNL     1       3.564   3.811  17.658  0.00  0.00    +0.000 A 
ATOM     23  C   UNL     1       3.800   3.753  19.036  0.00  0.00    +0.000 A 
ATOM     24  O   UNL     1       5.138   3.723  19.270  0.00  0.00    +0.000 OA
ATOM     25  C   UNL     1       5.669   4.387  18.215  0.00  0.00    +0.000 A 
ATOM     26  C   UNL     1       6.891   5.032  18.288  0.00  0.00    +0.000 A 
ATOM     27  C   UNL     1       7.048   6.081  17.382  0.00  0.00    +0.000 A 
ATOM     28  C   UNL     1       6.105   6.314  16.372  0.00  0.00    +0.000 A 
ATOM     29  C   UNL     1       4.970   5.496  16.211  0.00  0.00    +0.000 A 
ATOM     30  C   UNL     1       4.719   4.534  17.207  0.00  0.00    +0.000 A 
ENDBRANCH  16  18
ENDBRANCH   4  16
TORSDOF 6
ENDMDL
MODEL 2
REMARK VINA RESULT:      -8.8      0.425      1.005
REMARK  Name = 
REMARK  7 active torsions:
REMARK  status: ('A' for Active; 'I' for Inactive)
REMARK    1  A    between atoms: C_1  and  O_2
REMARK    2  A    between atoms: O_2  and  C_3
REMARK    3  A    between atoms: C_3  and  C_5
REMARK    4  A    between atoms: C_5  and  N_6
REMARK    5  A    between atoms: C_7  and  C_9
REMARK    6  A    between atoms: C_12  and  N_13
REMARK    7  A    between atoms: N_13  and  C_14
REMARK                            x       y       z     vdW  Elec       q    Type
REMARK                         _______ _______ _______ _____ _____    ______ ____
ROOT
ATOM      1  C   UNL     1       0.935   9.494  19.059  0.00  0.00    +0.000 A 
ATOM      2  C   UNL     1       0.854   8.987  20.360  0.00  0.00    +0.000 A 
ATOM      3  C   UNL     1       1.580   7.836  20.711  0.00  0.00    +0.000 A 
ATOM      4  C   UNL     1       2.372   7.166  19.759  0.00  0.00    +0.000 A 
ATOM      5  C   UNL     1       2.439   7.689  18.467  0.00  0.00    +0.000 A 
ATOM      6  C   UNL     1       1.717   8.827  18.111  0.00  0.00    +0.000 A 
ENDROOT
BRANCH   1   8
ATOM      7  N   UNL     1      -0.898  10.501  17.838  0.00  0.00    +0.000 N 
ATOM      8  C   UNL     1       0.167  10.720  18.688  0.00  0.00    +0.000 C 
ATOM      9  O   UNL     1       0.519  11.820  19.078  0.00  0.00    +0.000 OA
ATOM     10  H   UNL     1      -1.040   9.594  17.403  0.00  0.00    +0.000 HD
BRANCH   7  11
ATOM     11  C   UNL     1      -1.760  11.572  17.381  0.00  0.00    +0.000 C 
BRANCH  11  12
ATOM     12  C   UNL     1      -2.944  10.985  16.627  0.00  0.00    +0.000 C 
ATOM     13  O   UNL     1      -4.119  11.246  16.880  0.00  0.00    +0.000 OA
BRANCH  12  15
ATOM     14  C   UNL     1      -3.328  10.116  14.490  0.00  0.00    +0.000 C 
ATOM     15  O   UNL     1      -2.516  10.140  15.663  0.00  0.00    +0.000 OA
ENDBRANCH  12  15
ENDBRANCH  11  12
ENDBRANCH   7  11
ENDBRANCH   1   8
BRANCH   4  16
ATOM     16  N   UNL     1       3.142   6.020  20.089  0.00  0.00    +0.000 N 
ATOM     17  H   UNL     1       3.261   5.973  21.104  0.00  0.00    +0.000 HD
BRANCH  16  18
ATOM     18  C   UNL     1       2.831   4.665  19.726  0.00  0.00    +0.000 A 
ATOM     19  N   UNL     1       1.556   4.423  19.319  0.00  0.00    +0.000 NA
ATOM     20  C   UNL     1       1.385   3.849  18.114  0.00  0.00    +0.000 A 
ATOM     21  N   UNL     1       2.330   3.710  17.166  0.00  0.00    +0.000 NA
ATOM     22  C   UNL     1       3.580   3.848  17.681  0.00  0.00    +0.000 A 
ATOM     23  C   UNL     1       3.796   3.900  19.062  0.00  0.00    +0.000 A 
ATOM     24  O   UNL     1       5.130   3.857  19.318  0.00  0.00    +0.000 OA
ATOM     25  C   UNL     1       5.692   4.416  18.219  0.00  0.00    +0.000 A 
ATOM     26  C   UNL     1       6.929   5.035  18.257  0.00  0.00    +0.000 A 
ATOM     27  C   UNL     1       7.125   6.000  17.268  0.00  0.00    +0.000 A 
ATOM     28  C   UNL     1       6.202   6.170  16.228  0.00  0.00    +0.000 A 
ATOM     29  C   UNL     1       5.049   5.369  16.119  0.00  0.00    +0.000 A 
ATOM     30  C   UNL     1       4.759   4.502  17.188  0.00  0.00    +0.000 A 
ENDBRANCH  16  18
ENDBRANCH   4  16
TORSDOF 6
ENDMDL
MODEL 3
REMARK VINA RESULT:      -8.6      0.824      1.343
REMARK  Name = 
REMARK  7 active torsions:
REMARK  status: ('A' for Active; 'I' for Inactive)
REMARK    1  A    between atoms: C_1  and  O_2
REMARK    2  A    between atoms: O_2  and  C_3
REMARK    3  A    between atoms: C_3  and  C_5
REMARK    4  A    between atoms: C_5  and  N_6
REMARK    5  A    between atoms: C_7  and  C_9
REMARK    6  A    between atoms: C_12  and  N_13
REMARK    7  A    between atoms: N_13  and  C_14
REMARK                            x       y       z     vdW  Elec       q    Type
REMARK                         _______ _______ _______ _____ _____    ______ ____
ROOT
ATOM      1  C   UNL     1       1.078   9.348  18.935  0.00  0.00    +0.000 A 
ATOM      2  C   UNL     1       0.979   8.884  20.250  0.00  0.00    +0.000 A 
ATOM      3  C   UNL     1       1.686   7.734  20.643  0.00  0.00    +0.000 A 
ATOM      4  C   UNL     1       2.476   7.024  19.719  0.00  0.00    +0.000 A 
ATOM      5  C   UNL     1       2.560   7.504  18.411  0.00  0.00    +0.000 A 
ATOM      6  C   UNL     1       1.857   8.640  18.015  0.00  0.00    +0.000 A 
ENDROOT
BRANCH   1   8
ATOM      7  N   UNL     1      -0.826  10.331  17.805  0.00  0.00    +0.000 N 
ATOM      8  C   UNL     1       0.330  10.573  18.519  0.00  0.00    +0.000 C 
ATOM      9  O   UNL     1       0.768  11.685  18.759  0.00  0.00    +0.000 OA
ATOM     10  H   UNL     1      -1.052   9.395  17.479  0.00  0.00    +0.000 HD
BRANCH   7  11
ATOM     11  C   UNL     1      -1.683  11.398  17.328  0.00  0.00    +0.000 C 
BRANCH  11  12
ATOM     12  C   UNL     1      -2.938  11.463  18.186  0.00  0.00    +0.000 C 
ATOM     13  O   UNL     1      -3.012  12.072  19.252  0.00  0.00    +0.000 OA
BRANCH  12  15
ATOM     14  C   UNL     1      -5.073  11.527  17.236  0.00  0.00    +0.000 C 
ATOM     15  O   UNL     1      -3.936  10.754  17.615  0.00  0.00    +0.000 OA
ENDBRANCH  12  15
ENDBRANCH  11  12
ENDBRANCH   7  11
ENDBRANCH   1   8
BRANCH   4  16
ATOM     16  N   UNL     1       3.227   5.878  20.091  0.00  0.00    +0.000 N 
ATOM     17  H   UNL     1       3.312   5.845  21.110  0.00  0.00    +0.000 HD
BRANCH  16  18
ATOM     18  C   UNL     1       2.919   4.520  19.738  0.00  0.00    +0.000 A 
ATOM     19  N   UNL     1       1.631   4.261  19.387  0.00  0.00    +0.000 NA
ATOM     20  C   UNL     1       1.415   3.687  18.188  0.00  0.00    +0.000 A 
ATOM     21  N   UNL     1       2.320   3.563  17.200  0.00  0.00    +0.000 NA
ATOM     22  C   UNL     1       3.589   3.717  17.661  0.00  0.00    +0.000 A 
ATOM     23  C   UNL     1       3.864   3.769  19.031  0.00  0.00    +0.000 A 
ATOM     24  O   UNL     1       5.208   3.744  19.230  0.00  0.00    +0.000 OA
ATOM     25  C   UNL     1       5.715   4.313  18.109  0.00  0.00    +0.000 A 
ATOM     26  C   UNL     1       6.944   4.948  18.095  0.00  0.00    +0.000 A 
ATOM     27  C   UNL     1       7.084   5.917  17.101  0.00  0.00    +0.000 A 
ATOM     28  C   UNL     1       6.114   6.077  16.102  0.00  0.00    +0.000 A 
ATOM     29  C   UNL     1       4.968   5.261  16.041  0.00  0.00    +0.000 A 
ATOM     30  C   UNL     1       4.737   4.387  17.119  0.00  0.00    +0.000 A 
ENDBRANCH  16  18
ENDBRANCH   4  16
TORSDOF 6
ENDMDL
MODEL 4
REMARK VINA RESULT:      -8.5      0.822      1.233
REMARK  Name = 
REMARK  7 active torsions:
REMARK  status: ('A' for Active; 'I' for Inactive)
REMARK    1  A    between atoms: C_1  and  O_2
REMARK    2  A    between atoms: O_2  and  C_3
REMARK    3  A    between atoms: C_3  and  C_5
REMARK    4  A    between atoms: C_5  and  N_6
REMARK    5  A    between atoms: C_7  and  C_9
REMARK    6  A    between atoms: C_12  and  N_13
REMARK    7  A    between atoms: N_13  and  C_14
REMARK                            x       y       z     vdW  Elec       q    Type
REMARK                         _______ _______ _______ _____ _____    ______ ____
ROOT
ATOM      1  C   UNL     1       1.102   9.229  18.970  0.00  0.00    +0.000 A 
ATOM      2  C   UNL     1       1.870   8.547  18.020  0.00  0.00    +0.000 A 
ATOM      3  C   UNL     1       2.589   7.399  18.394  0.00  0.00    +0.000 A 
ATOM      4  C   UNL     1       2.570   6.938  19.724  0.00  0.00    +0.000 A 
ATOM      5  C   UNL     1       1.798   7.634  20.656  0.00  0.00    +0.000 A 
ATOM      6  C   UNL     1       1.087   8.776  20.293  0.00  0.00    +0.000 A 
ENDROOT
BRANCH   1   8
ATOM      7  N   UNL     1      -0.851  10.193  17.910  0.00  0.00    +0.000 N 
ATOM      8  C   UNL     1       0.334  10.447  18.571  0.00  0.00    +0.000 C 
ATOM      9  O   UNL     1       0.779  11.563  18.779  0.00  0.00    +0.000 OA
ATOM     10  H   UNL     1      -1.087   9.253  17.606  0.00  0.00    +0.000 HD
BRANCH   7  11
ATOM     11  C   UNL     1      -1.730  11.252  17.457  0.00  0.00    +0.000 C 
BRANCH  11  12
ATOM     12  C   UNL     1      -3.155  10.954  17.900  0.00  0.00    +0.000 C 
ATOM     13  O   UNL     1      -3.769   9.932  17.600  0.00  0.00    +0.000 OA
BRANCH  12  15
ATOM     14  C   UNL     1      -2.761  12.416  19.682  0.00  0.00    +0.000 C 
ATOM     15  O   UNL     1      -3.638  11.970  18.649  0.00  0.00    +0.000 OA
ENDBRANCH  12  15
ENDBRANCH  11  12
ENDBRANCH   7  11
ENDBRANCH   1   8
BRANCH   4  16
ATOM     16  N   UNL     1       3.260   5.765  20.127  0.00  0.00    +0.000 N 
ATOM     17  H   UNL     1       3.249   5.700  21.148  0.00  0.00    +0.000 HD
BRANCH  16  18
ATOM     18  C   UNL     1       2.957   4.425  19.705  0.00  0.00    +0.000 A 
ATOM     19  N   UNL     1       1.669   4.178  19.345  0.00  0.00    +0.000 NA
ATOM     20  C   UNL     1       1.450   3.667  18.119  0.00  0.00    +0.000 A 
ATOM     21  N   UNL     1       2.352   3.600  17.122  0.00  0.00    +0.000 NA
ATOM     22  C   UNL     1       3.622   3.736  17.585  0.00  0.00    +0.000 A 
ATOM     23  C   UNL     1       3.903   3.718  18.955  0.00  0.00    +0.000 A 
ATOM     24  O   UNL     1       5.248   3.689  19.147  0.00  0.00    +0.000 OA
ATOM     25  C   UNL     1       5.746   4.318  18.055  0.00  0.00    +0.000 A 
ATOM     26  C   UNL     1       6.972   4.960  18.069  0.00  0.00    +0.000 A 
ATOM     27  C   UNL     1       7.103   5.981  17.127  0.00  0.00    +0.000 A 
ATOM     28  C   UNL     1       6.128   6.188  16.143  0.00  0.00    +0.000 A 
ATOM     29  C   UNL     1       4.986   5.370  16.043  0.00  0.00    +0.000 A 
ATOM     30  C   UNL     1       4.764   4.440  17.075  0.00  0.00    +0.000 A 
ENDBRANCH  16  18
ENDBRANCH   4  16
TORSDOF 6
ENDMDL
MODEL 5
REMARK VINA RESULT:      -8.5      1.027      1.846
REMARK  Name = 
REMARK  7 active torsions:
REMARK  status: ('A' for Active; 'I' for Inactive)
REMARK    1  A    between atoms: C_1  and  O_2
REMARK    2  A    between atoms: O_2  and  C_3
REMARK    3  A    between atoms: C_3  and  C_5
REMARK    4  A    between atoms: C_5  and  N_6
REMARK    5  A    between atoms: C_7  and  C_9
REMARK    6  A    between atoms: C_12  and  N_13
REMARK    7  A    between atoms: N_13  and  C_14
REMARK                            x       y       z     vdW  Elec       q    Type
REMARK                         _______ _______ _______ _____ _____    ______ ____
ROOT
ATOM      1  C   UNL     1       1.224   9.272  19.010  0.00  0.00    +0.000 A 
ATOM      2  C   UNL     1       1.029   8.818  20.318  0.00  0.00    +0.000 A 
ATOM      3  C   UNL     1       1.648   7.631  20.748  0.00  0.00    +0.000 A 
ATOM      4  C   UNL     1       2.444   6.874  19.867  0.00  0.00    +0.000 A 
ATOM      5  C   UNL     1       2.624   7.345  18.566  0.00  0.00    +0.000 A 
ATOM      6  C   UNL     1       2.009   8.518  18.132  0.00  0.00    +0.000 A 
ENDROOT
BRANCH   1   8
ATOM      7  N   UNL     1      -0.707  10.380  18.054  0.00  0.00    +0.000 N 
ATOM      8  C   UNL     1       0.570  10.536  18.555  0.00  0.00    +0.000 C 
ATOM      9  O   UNL     1       1.171  11.596  18.584  0.00  0.00    +0.000 OA
ATOM     10  H   UNL     1      -1.092   9.454  17.887  0.00  0.00    +0.000 HD
BRANCH   7  11
ATOM     11  C   UNL     1      -1.495  11.497  17.576  0.00  0.00    +0.000 C 
BRANCH  11  12
ATOM     12  C   UNL     1      -2.499  11.905  18.644  0.00  0.00    +0.000 C 
ATOM     13  O   UNL     1      -3.666  11.518  18.676  0.00  0.00    +0.000 OA
BRANCH  12  15
ATOM     14  C   UNL     1      -1.905  12.280  20.875  0.00  0.00    +0.000 C 
ATOM     15  O   UNL     1      -1.927  12.751  19.529  0.00  0.00    +0.000 OA
ENDBRANCH  12  15
ENDBRANCH  11  12
ENDBRANCH   7  11
ENDBRANCH   1   8
BRANCH   4  16
ATOM     16  N   UNL     1       3.108   5.689  20.278  0.00  0.00    +0.000 N 
ATOM     17  H   UNL     1       3.016   5.584  21.292  0.00  0.00    +0.000 HD
BRANCH  16  18
ATOM     18  C   UNL     1       2.850   4.365  19.782  0.00  0.00    +0.000 A 
ATOM     19  N   UNL     1       1.579   4.107  19.372  0.00  0.00    +0.000 NA
ATOM     20  C   UNL     1       1.409   3.653  18.116  0.00  0.00    +0.000 A 
ATOM     21  N   UNL     1       2.341   3.655  17.145  0.00  0.00    +0.000 NA
ATOM     22  C   UNL     1       3.593   3.797  17.653  0.00  0.00    +0.000 A 
ATOM     23  C   UNL     1       3.834   3.718  19.028  0.00  0.00    +0.000 A 
ATOM     24  O   UNL     1       5.173   3.710  19.259  0.00  0.00    +0.000 OA
ATOM     25  C   UNL     1       5.688   4.404  18.216  0.00  0.00    +0.000 A 
ATOM     26  C   UNL     1       6.897   5.071  18.298  0.00  0.00    +0.000 A 
ATOM     27  C   UNL     1       7.031   6.140  17.411  0.00  0.00    +0.000 A 
ATOM     28  C   UNL     1       6.081   6.374  16.409  0.00  0.00    +0.000 A 
ATOM     29  C   UNL     1       4.962   5.536  16.235  0.00  0.00    +0.000 A 
ATOM     30  C   UNL     1       4.732   4.551  17.213  0.00  0.00    +0.000 A 
ENDBRANCH  16  18
ENDBRANCH   4  16
TORSDOF 6
ENDMDL
MODEL 6
REMARK VINA RESULT:      -8.3      1.753      3.066
REMARK  Name = 
REMARK  7 active torsions:
REMARK  status: ('A' for Active; 'I' for Inactive)
REMARK    1  A    between atoms: C_1  and  O_2
REMARK    2  A    between atoms: O_2  and  C_3
REMARK    3  A    between atoms: C_3  and  C_5
REMARK    4  A    between atoms: C_5  and  N_6
REMARK    5  A    between atoms: C_7  and  C_9
REMARK    6  A    between atoms: C_12  and  N_13
REMARK    7  A    between atoms: N_13  and  C_14
REMARK                            x       y       z     vdW  Elec       q    Type
REMARK                         _______ _______ _______ _____ _____    ______ ____
ROOT
ATOM      1  C   UNL     1       1.226   9.211  19.020  0.00  0.00    +0.000 A 
ATOM      2  C   UNL     1       1.077   8.774  20.340  0.00  0.00    +0.000 A 
ATOM      3  C   UNL     1       1.712   7.593  20.764  0.00  0.00    +0.000 A 
ATOM      4  C   UNL     1       2.477   6.824  19.866  0.00  0.00    +0.000 A 
ATOM      5  C   UNL     1       2.612   7.278  18.553  0.00  0.00    +0.000 A 
ATOM      6  C   UNL     1       1.982   8.445  18.126  0.00  0.00    +0.000 A 
ENDROOT
BRANCH   1   8
ATOM      7  N   UNL     1       1.116  11.630  19.063  0.00  0.00    +0.000 N 
ATOM      8  C   UNL     1       0.556  10.468  18.571  0.00  0.00    +0.000 C 
ATOM      9  O   UNL     1      -0.442  10.429  17.872  0.00  0.00    +0.000 OA
ATOM     10  H   UNL     1       1.834  11.599  19.781  0.00  0.00    +0.000 HD
BRANCH   7  11
ATOM     11  C   UNL     1       0.603  12.942  18.726  0.00  0.00    +0.000 C 
BRANCH  11  12
ATOM     12  C   UNL     1       1.723  13.968  18.829  0.00  0.00    +0.000 C 
ATOM     13  O   UNL     1       1.604  15.063  19.375  0.00  0.00    +0.000 OA
BRANCH  12  15
ATOM     14  C   UNL     1       3.924  14.433  18.193  0.00  0.00    +0.000 C 
ATOM     15  O   UNL     1       2.842  13.505  18.230  0.00  0.00    +0.000 OA
ENDBRANCH  12  15
ENDBRANCH  11  12
ENDBRANCH   7  11
ENDBRANCH   1   8
BRANCH   4  16
ATOM     16  N   UNL     1       3.156   5.645  20.269  0.00  0.00    +0.000 N 
ATOM     17  H   UNL     1       3.096   5.551  21.286  0.00  0.00    +0.000 HD
BRANCH  16  18
ATOM     18  C   UNL     1       2.886   4.316  19.796  0.00  0.00    +0.000 A 
ATOM     19  N   UNL     1       1.608   4.057  19.407  0.00  0.00    +0.000 NA
ATOM     20  C   UNL     1       1.419   3.586  18.161  0.00  0.00    +0.000 A 
ATOM     21  N   UNL     1       2.336   3.571  17.176  0.00  0.00    +0.000 NA
ATOM     22  C   UNL     1       3.596   3.715  17.664  0.00  0.00    +0.000 A 
ATOM     23  C   UNL     1       3.857   3.653  19.037  0.00  0.00    +0.000 A 
ATOM     24  O   UNL     1       5.199   3.643  19.249  0.00  0.00    +0.000 OA
ATOM     25  C   UNL     1       5.702   4.320  18.188  0.00  0.00    +0.000 A 
ATOM     26  C   UNL     1       6.914   4.984  18.244  0.00  0.00    +0.000 A 
ATOM     27  C   UNL     1       7.039   6.040  17.341  0.00  0.00    +0.000 A 
ATOM     28  C   UNL     1       6.076   6.264  16.349  0.00  0.00    +0.000 A 
ATOM     29  C   UNL     1       4.952   5.428  16.203  0.00  0.00    +0.000 A 
ATOM     30  C   UNL     1       4.732   4.458  17.197  0.00  0.00    +0.000 A 
ENDBRANCH  16  18
ENDBRANCH   4  16
TORSDOF 6
ENDMDL
MODEL 7
REMARK VINA RESULT:      -8.2      1.674      3.254
REMARK  Name = 
REMARK  7 active torsions:
REMARK  status: ('A' for Active; 'I' for Inactive)
REMARK    1  A    between atoms: C_1  and  O_2
REMARK    2  A    between atoms: O_2  and  C_3
REMARK    3  A    between atoms: C_3  and  C_5
REMARK    4  A    between atoms: C_5  and  N_6
REMARK    5  A    between atoms: C_7  and  C_9
REMARK    6  A    between atoms: C_12  and  N_13
REMARK    7  A    between atoms: N_13  and  C_14
REMARK                            x       y       z     vdW  Elec       q    Type
REMARK                         _______ _______ _______ _____ _____    ______ ____
ROOT
ATOM      1  C   UNL     1       0.552   9.654  19.219  0.00  0.00    +0.000 A 
ATOM      2  C   UNL     1       1.154   9.493  17.966  0.00  0.00    +0.000 A 
ATOM      3  C   UNL     1       2.124   8.494  17.778  0.00  0.00    +0.000 A 
ATOM      4  C   UNL     1       2.522   7.666  18.845  0.00  0.00    +0.000 A 
ATOM      5  C   UNL     1       1.909   7.844  20.086  0.00  0.00    +0.000 A 
ATOM      6  C   UNL     1       0.950   8.836  20.280  0.00  0.00    +0.000 A 
ENDROOT
BRANCH   1   8
ATOM      7  N   UNL     1      -1.532  10.673  18.521  0.00  0.00    +0.000 N 
ATOM      8  C   UNL     1      -0.483  10.713  19.417  0.00  0.00    +0.000 C 
ATOM      9  O   UNL     1      -0.347  11.566  20.278  0.00  0.00    +0.000 OA
ATOM     10  H   UNL     1      -1.507  10.053  17.716  0.00  0.00    +0.000 HD
BRANCH   7  11
ATOM     11  C   UNL     1      -2.631  11.615  18.569  0.00  0.00    +0.000 C 
BRANCH  11  12
ATOM     12  C   UNL     1      -3.523  11.419  17.352  0.00  0.00    +0.000 C 
ATOM     13  O   UNL     1      -4.744  11.284  17.409  0.00  0.00    +0.000 OA
BRANCH  12  15
ATOM     14  C   UNL     1      -3.169  10.414  15.271  0.00  0.00    +0.000 C 
ATOM     15  O   UNL     1      -2.781  11.403  16.223  0.00  0.00    +0.000 OA
ENDBRANCH  12  15
ENDBRANCH  11  12
ENDBRANCH   7  11
ENDBRANCH   1   8
BRANCH   4  16
ATOM     16  N   UNL     1       3.475   6.627  18.680  0.00  0.00    +0.000 N 
ATOM     17  H   UNL     1       3.415   5.984  19.473  0.00  0.00    +0.000 HD
BRANCH  16  18
ATOM     18  C   UNL     1       3.575   5.749  17.547  0.00  0.00    +0.000 A 
ATOM     19  N   UNL     1       4.791   5.673  16.943  0.00  0.00    +0.000 NA
ATOM     20  C   UNL     1       5.349   4.454  16.817  0.00  0.00    +0.000 A 
ATOM     21  N   UNL     1       4.942   3.333  17.439  0.00  0.00    +0.000 NA
ATOM     22  C   UNL     1       3.672   3.453  17.907  0.00  0.00    +0.000 A 
ATOM     23  C   UNL     1       2.867   4.543  17.557  0.00  0.00    +0.000 A 
ATOM     24  O   UNL     1       1.599   4.337  18.001  0.00  0.00    +0.000 OA
ATOM     25  C   UNL     1       1.759   3.553  19.094  0.00  0.00    +0.000 A 
ATOM     26  C   UNL     1       0.837   3.526  20.124  0.00  0.00    +0.000 A 
ATOM     27  C   UNL     1       1.358   3.141  21.360  0.00  0.00    +0.000 A 
ATOM     28  C   UNL     1       2.665   2.649  21.473  0.00  0.00    +0.000 A 
ATOM     29  C   UNL     1       3.504   2.502  20.352  0.00  0.00    +0.000 A 
ATOM     30  C   UNL     1       3.049   3.028  19.129  0.00  0.00    +0.000 A 
ENDBRANCH  16  18
ENDBRANCH   4  16
TORSDOF 6
ENDMDL
MODEL 8
REMARK VINA RESULT:      -8.2      1.739      2.305
REMARK  Name = 
REMARK  7 active torsions:
REMARK  status: ('A' for Active; 'I' for Inactive)
REMARK    1  A    between atoms: C_1  and  O_2
REMARK    2  A    between atoms: O_2  and  C_3
REMARK    3  A    between atoms: C_3  and  C_5
REMARK    4  A    between atoms: C_5  and  N_6
REMARK    5  A    between atoms: C_7  and  C_9
REMARK    6  A    between atoms: C_12  and  N_13
REMARK    7  A    between atoms: N_13  and  C_14
REMARK                            x       y       z     vdW  Elec       q    Type
REMARK                         _______ _______ _______ _____ _____    ______ ____
ROOT
ATOM      1  C   UNL     1       1.202   9.165  19.014  0.00  0.00    +0.000 A 
ATOM      2  C   UNL     1       2.001   8.458  18.111  0.00  0.00    +0.000 A 
ATOM      3  C   UNL     1       2.652   7.281  18.521  0.00  0.00    +0.000 A 
ATOM      4  C   UNL     1       2.531   6.816  19.845  0.00  0.00    +0.000 A 
ATOM      5  C   UNL     1       1.728   7.537  20.730  0.00  0.00    +0.000 A 
ATOM      6  C   UNL     1       1.086   8.707  20.330  0.00  0.00    +0.000 A 
ENDROOT
BRANCH   1   8
ATOM      7  N   UNL     1       1.170  11.583  18.883  0.00  0.00    +0.000 N 
ATOM      8  C   UNL     1       0.507  10.412  18.576  0.00  0.00    +0.000 C 
ATOM      9  O   UNL     1      -0.589  10.363  18.043  0.00  0.00    +0.000 OA
ATOM     10  H   UNL     1       1.990  11.576  19.483  0.00  0.00    +0.000 HD
BRANCH   7  11
ATOM     11  C   UNL     1       0.649  12.887  18.526  0.00  0.00    +0.000 C 
BRANCH  11  12
ATOM     12  C   UNL     1      -0.082  13.487  19.718  0.00  0.00    +0.000 C 
ATOM     13  O   UNL     1       0.481  13.953  20.707  0.00  0.00    +0.000 OA
BRANCH  12  15
ATOM     14  C   UNL     1      -2.100  12.548  20.436  0.00  0.00    +0.000 C 
ATOM     15  O   UNL     1      -1.419  13.418  19.533  0.00  0.00    +0.000 OA
ENDBRANCH  12  15
ENDBRANCH  11  12
ENDBRANCH   7  11
ENDBRANCH   1   8
BRANCH   4  16
ATOM     16  N   UNL     1       3.149   5.616  20.283  0.00  0.00    +0.000 N 
ATOM     17  H   UNL     1       3.011   5.513  21.291  0.00  0.00    +0.000 HD
BRANCH  16  18
ATOM     18  C   UNL     1       2.881   4.299  19.775  0.00  0.00    +0.000 A 
ATOM     19  N   UNL     1       1.604   4.048  19.379  0.00  0.00    +0.000 NA
ATOM     20  C   UNL     1       1.416   3.609  18.121  0.00  0.00    +0.000 A 
ATOM     21  N   UNL     1       2.333   3.622  17.137  0.00  0.00    +0.000 NA
ATOM     22  C   UNL     1       3.593   3.755  17.628  0.00  0.00    +0.000 A 
ATOM     23  C   UNL     1       3.853   3.658  18.999  0.00  0.00    +0.000 A 
ATOM     24  O   UNL     1       5.195   3.645  19.211  0.00  0.00    +0.000 OA
ATOM     25  C   UNL     1       5.697   4.350  18.169  0.00  0.00    +0.000 A 
ATOM     26  C   UNL     1       6.909   5.014  18.243  0.00  0.00    +0.000 A 
ATOM     27  C   UNL     1       7.033   6.094  17.367  0.00  0.00    +0.000 A 
ATOM     28  C   UNL     1       6.069   6.341  16.381  0.00  0.00    +0.000 A 
ATOM     29  C   UNL     1       4.946   5.508  16.212  0.00  0.00    +0.000 A 
ATOM     30  C   UNL     1       4.728   4.512  17.181  0.00  0.00    +0.000 A 
ENDBRANCH  16  18
ENDBRANCH   4  16
TORSDOF 6
ENDMDL
MODEL 9
REMARK VINA RESULT:      -8.2      1.780      2.988
REMARK  Name = 
REMARK  7 active torsions:
REMARK  status: ('A' for Active; 'I' for Inactive)
REMARK    1  A    between atoms: C_1  and  O_2
REMARK    2  A    between atoms: O_2  and  C_3
REMARK    3  A    between atoms: C_3  and  C_5
REMARK    4  A    between atoms: C_5  and  N_6
REMARK    5  A    between atoms: C_7  and  C_9
REMARK    6  A    between atoms: C_12  and  N_13
REMARK    7  A    between atoms: N_13  and  C_14
REMARK                            x       y       z     vdW  Elec       q    Type
REMARK                         _______ _______ _______ _____ _____    ______ ____
ROOT
ATOM      1  C   UNL     1       1.225   9.219  19.041  0.00  0.00    +0.000 A 
ATOM      2  C   UNL     1       2.025   8.502  18.146  0.00  0.00    +0.000 A 
ATOM      3  C   UNL     1       2.646   7.310  18.558  0.00  0.00    +0.000 A 
ATOM      4  C   UNL     1       2.497   6.840  19.877  0.00  0.00    +0.000 A 
ATOM      5  C   UNL     1       1.695   7.571  20.755  0.00  0.00    +0.000 A 
ATOM      6  C   UNL     1       1.081   8.756  20.353  0.00  0.00    +0.000 A 
ENDROOT
BRANCH   1   8
ATOM      7  N   UNL     1       1.280  11.633  18.852  0.00  0.00    +0.000 N 
ATOM      8  C   UNL     1       0.561  10.482  18.601  0.00  0.00    +0.000 C 
ATOM      9  O   UNL     1      -0.556  10.464  18.113  0.00  0.00    +0.000 OA
ATOM     10  H   UNL     1       2.123  11.608  19.419  0.00  0.00    +0.000 HD
BRANCH   7  11
ATOM     11  C   UNL     1       0.796  12.948  18.485  0.00  0.00    +0.000 C 
BRANCH  11  12
ATOM     12  C   UNL     1       1.949  13.940  18.509  0.00  0.00    +0.000 C 
ATOM     13  O   UNL     1       3.134  13.619  18.448  0.00  0.00    +0.000 OA
BRANCH  12  15
ATOM     14  C   UNL     1       2.349  16.100  19.309  0.00  0.00    +0.000 C 
ATOM     15  O   UNL     1       1.481  15.203  18.619  0.00  0.00    +0.000 OA
ENDBRANCH  12  15
ENDBRANCH  11  12
ENDBRANCH   7  11
ENDBRANCH   1   8
BRANCH   4  16
ATOM     16  N   UNL     1       3.085   5.625  20.317  0.00  0.00    +0.000 N 
ATOM     17  H   UNL     1       2.906   5.505  21.317  0.00  0.00    +0.000 HD
BRANCH  16  18
ATOM     18  C   UNL     1       2.824   4.321  19.774  0.00  0.00    +0.000 A 
ATOM     19  N   UNL     1       1.556   4.084  19.342  0.00  0.00    +0.000 NA
ATOM     20  C   UNL     1       1.397   3.673  18.070  0.00  0.00    +0.000 A 
ATOM     21  N   UNL     1       2.338   3.703  17.109  0.00  0.00    +0.000 NA
ATOM     22  C   UNL     1       3.586   3.820  17.633  0.00  0.00    +0.000 A 
ATOM     23  C   UNL     1       3.813   3.693  19.008  0.00  0.00    +0.000 A 
ATOM     24  O   UNL     1       5.149   3.669  19.251  0.00  0.00    +0.000 OA
ATOM     25  C   UNL     1       5.679   4.395  18.237  0.00  0.00    +0.000 A 
ATOM     26  C   UNL     1       6.890   5.052  18.354  0.00  0.00    +0.000 A 
ATOM     27  C   UNL     1       7.039   6.150  17.506  0.00  0.00    +0.000 A 
ATOM     28  C   UNL     1       6.100   6.423  16.502  0.00  0.00    +0.000 A 
ATOM     29  C   UNL     1       4.979   5.598  16.289  0.00  0.00    +0.000 A 
ATOM     30  C   UNL     1       4.734   4.582  17.230  0.00  0.00    +0.000 A 
ENDBRANCH  16  18
ENDBRANCH   4  16
TORSDOF 6
ENDMDL
