MODEL 1
REMARK VINA RESULT:      -9.3      0.000      0.000
REMARK  Name = 
REMARK  6 active torsions:
REMARK  status: ('A' for Active; 'I' for Inactive)
REMARK    1  A    between atoms: C_1  and  C_2
REMARK    2  A    between atoms: C_12  and  C_13
REMARK    3  A    between atoms: N_15  and  C_16
REMARK    4  A    between atoms: C_16  and  C_17
REMARK    5  A    between atoms: C_17  and  C_18
REMARK    6  A    between atoms: C_18  and  N_19
REMARK                            x       y       z     vdW  Elec       q    Type
REMARK                         _______ _______ _______ _____ _____    ______ ____
ROOT
ATOM      1  C   UNL     1       5.082   4.647  18.440  0.00  0.00    +0.000 C 
ATOM      2  O   UNL     1       5.419   3.798  19.261  0.00  0.00    +0.000 OA
ATOM      3  N   UNL     1       4.056   5.534  18.675  0.00  0.00    +0.000 N 
ATOM      4  H   UNL     1       3.955   6.335  18.072  0.00  0.00    +0.000 HD
ENDROOT
BRANCH   1  16
ATOM      5  C   UNL     1       7.462   6.610  17.914  0.00  0.00    +0.000 C 
ATOM      6  C   UNL     1       6.912   5.634  16.917  0.00  0.00    +0.000 A 
ATOM      7  N   UNL     1       7.520   5.713  15.697  0.00  0.00    +0.000 NA
ATOM      8  C   UNL     1       7.039   4.997  14.667  0.00  0.00    +0.000 A 
ATOM      9  C   UNL     1       7.608   5.149  13.414  0.00  0.00    +0.000 A 
ATOM     10  C   UNL     1       7.094   4.472  12.314  0.00  0.00    +0.000 A 
ATOM     11  F   UNL     1       7.641   4.666  11.106  0.00  0.00    +0.000 F 
ATOM     12  C   UNL     1       6.016   3.609  12.443  0.00  0.00    +0.000 A 
ATOM     13  C   UNL     1       5.446   3.421  13.700  0.00  0.00    +0.000 A 
ATOM     14  C   UNL     1       5.947   4.122  14.813  0.00  0.00    +0.000 A 
ATOM     15  C   UNL     1       5.372   4.004  16.084  0.00  0.00    +0.000 A 
ATOM     16  C   UNL     1       5.841   4.771  17.162  0.00  0.00    +0.000 A 
ENDBRANCH   1  16
BRANCH   3  17
ATOM     17  C   UNL     1       3.351   5.576  19.945  0.00  0.00    +0.000 C 
BRANCH  17  18
ATOM     18  C   UNL     1       1.979   6.237  19.818  0.00  0.00    +0.000 C 
BRANCH  18  19
ATOM     19  C   UNL     1       1.977   7.640  20.426  0.00  0.00    +0.000 C 
BRANCH  19  20
ATOM     20  N   UNL     1       1.475   8.641  19.510  0.00  0.00    +0.000 N 
ATOM     21  C   UNL     1       1.974   8.872  18.264  0.00  0.00    +0.000 C 
ATOM     22  O   UNL     1       2.882   8.277  17.705  0.00  0.00    +0.000 OA
ATOM     23  N   UNL     1       1.280   9.921  17.708  0.00  0.00    +0.000 N 
ATOM     24  C   UNL     1       0.234  10.409  18.571  0.00  0.00    +0.000 C 
ATOM     25  C   UNL     1      -1.157  10.217  17.966  0.00  0.00    +0.000 C 
ATOM     26  C   UNL     1      -1.923  11.468  18.379  0.00  0.00    +0.000 C 
ATOM     27  C   UNL     1      -0.865  12.557  18.336  0.00  0.00    +0.000 C 
ATOM     28  C   UNL     1       0.375  11.893  18.926  0.00  0.00    +0.000 C 
ATOM     29  C   UNL     1       0.450   9.499  19.791  0.00  0.00    +0.000 C 
ATOM     30  O   UNL     1      -0.195   9.542  20.830  0.00  0.00    +0.000 OA
ATOM     31  H   UNL     1       1.488  10.245  16.773  0.00  0.00    +0.000 HD
ENDBRANCH  19  20
ENDBRANCH  18  19
ENDBRANCH  17  18
ENDBRANCH   3  17
TORSDOF 5
ENDMDL
MODEL 2
REMARK VINA RESULT:      -8.9      2.573      3.572
REMARK  Name = 
REMARK  6 active torsions:
REMARK  status: ('A' for Active; 'I' for Inactive)
REMARK    1  A    between atoms: C_1  and  C_2
REMARK    2  A    between atoms: C_12  and  C_13
REMARK    3  A    between atoms: N_15  and  C_16
REMARK    4  A    between atoms: C_16  and  C_17
REMARK    5  A    between atoms: C_17  and  C_18
REMARK    6  A    between atoms: C_18  and  N_19
REMARK                            x       y       z     vdW  Elec       q    Type
REMARK                         _______ _______ _______ _____ _____    ______ ____
ROOT
ATOM      1  C   UNL     1       5.478   3.709  18.276  0.00  0.00    +0.000 C 
ATOM      2  O   UNL     1       5.735   4.278  19.334  0.00  0.00    +0.000 OA
ATOM      3  N   UNL     1       4.553   2.694  18.190  0.00  0.00    +0.000 N 
ATOM      4  H   UNL     1       4.227   2.406  17.281  0.00  0.00    +0.000 HD
ENDROOT
BRANCH   1  16
ATOM      5  C   UNL     1       7.448   6.128  18.024  0.00  0.00    +0.000 C 
ATOM      6  C   UNL     1       7.033   5.233  16.895  0.00  0.00    +0.000 A 
ATOM      7  N   UNL     1       7.559   5.606  15.692  0.00  0.00    +0.000 NA
ATOM      8  C   UNL     1       7.164   4.981  14.571  0.00  0.00    +0.000 A 
ATOM      9  C   UNL     1       7.639   5.423  13.348  0.00  0.00    +0.000 A 
ATOM     10  C   UNL     1       7.202   4.841  12.164  0.00  0.00    +0.000 A 
ATOM     11  F   UNL     1       7.649   5.313  10.992  0.00  0.00    +0.000 F 
ATOM     12  C   UNL     1       6.300   3.787  12.175  0.00  0.00    +0.000 A 
ATOM     13  C   UNL     1       5.831   3.309  13.395  0.00  0.00    +0.000 A 
ATOM     14  C   UNL     1       6.252   3.910  14.597  0.00  0.00    +0.000 A 
ATOM     15  C   UNL     1       5.767   3.498  15.843  0.00  0.00    +0.000 A 
ATOM     16  C   UNL     1       6.143   4.163  17.020  0.00  0.00    +0.000 A 
ENDBRANCH   1  16
BRANCH   3  17
ATOM     17  C   UNL     1       3.758   2.277  19.334  0.00  0.00    +0.000 C 
BRANCH  17  18
ATOM     18  C   UNL     1       2.324   1.930  18.940  0.00  0.00    +0.000 C 
BRANCH  18  19
ATOM     19  C   UNL     1       1.325   2.925  19.532  0.00  0.00    +0.000 C 
BRANCH  19  20
ATOM     20  N   UNL     1       1.841   4.275  19.565  0.00  0.00    +0.000 N 
ATOM     21  C   UNL     1       2.312   4.899  20.680  0.00  0.00    +0.000 C 
ATOM     22  O   UNL     1       2.408   4.436  21.806  0.00  0.00    +0.000 OA
ATOM     23  N   UNL     1       2.673   6.182  20.339  0.00  0.00    +0.000 N 
ATOM     24  C   UNL     1       2.492   6.450  18.935  0.00  0.00    +0.000 C 
ATOM     25  C   UNL     1       3.814   6.746  18.224  0.00  0.00    +0.000 C 
ATOM     26  C   UNL     1       3.464   7.836  17.218  0.00  0.00    +0.000 C 
ATOM     27  C   UNL     1       2.416   8.662  17.945  0.00  0.00    +0.000 C 
ATOM     28  C   UNL     1       1.549   7.623  18.651  0.00  0.00    +0.000 C 
ATOM     29  C   UNL     1       1.898   5.106  18.482  0.00  0.00    +0.000 C 
ATOM     30  O   UNL     1       1.543   4.836  17.342  0.00  0.00    +0.000 OA
ATOM     31  H   UNL     1       3.062   6.813  21.026  0.00  0.00    +0.000 HD
ENDBRANCH  19  20
ENDBRANCH  18  19
ENDBRANCH  17  18
ENDBRANCH   3  17
TORSDOF 5
ENDMDL
MODEL 3
REMARK VINA RESULT:      -8.7      0.845      1.586
REMARK  Name = 
REMARK  6 active torsions:
REMARK  status: ('A' for Active; 'I' for Inactive)
REMARK    1  A    between atoms: C_1  and  C_2
REMARK    2  A    between atoms: C_12  and  C_13
REMARK    3  A    between atoms: N_15  and  C_16
REMARK    4  A    between atoms: C_16  and  C_17
REMARK    5  A    between atoms: C_17  and  C_18
REMARK    6  A    between atoms: C_18  and  N_19
REMARK                            x       y       z     vdW  Elec       q    Type
REMARK                         _______ _______ _______ _____ _____    ______ ____
ROOT
ATOM      1  C   UNL     1       5.155   4.521  18.443  0.00  0.00    +0.000 C 
ATOM      2  O   UNL     1       5.618   3.792  19.316  0.00  0.00    +0.000 OA
ATOM      3  N   UNL     1       3.999   5.245  18.623  0.00  0.00    +0.000 N 
ATOM      4  H   UNL     1       3.775   5.979  17.969  0.00  0.00    +0.000 HD
ENDROOT
BRANCH   1  16
ATOM      5  C   UNL     1       7.493   6.535  17.921  0.00  0.00    +0.000 C 
ATOM      6  C   UNL     1       6.946   5.569  16.913  0.00  0.00    +0.000 A 
ATOM      7  N   UNL     1       7.535   5.682  15.687  0.00  0.00    +0.000 NA
ATOM      8  C   UNL     1       7.051   4.978  14.650  0.00  0.00    +0.000 A 
ATOM      9  C   UNL     1       7.599   5.163  13.392  0.00  0.00    +0.000 A 
ATOM     10  C   UNL     1       7.081   4.499  12.287  0.00  0.00    +0.000 A 
ATOM     11  F   UNL     1       7.607   4.725  11.075  0.00  0.00    +0.000 F 
ATOM     12  C   UNL     1       6.020   3.615  12.414  0.00  0.00    +0.000 A 
ATOM     13  C   UNL     1       5.471   3.394  13.675  0.00  0.00    +0.000 A 
ATOM     14  C   UNL     1       5.976   4.081  14.795  0.00  0.00    +0.000 A 
ATOM     15  C   UNL     1       5.421   3.929  16.071  0.00  0.00    +0.000 A 
ATOM     16  C   UNL     1       5.893   4.683  17.157  0.00  0.00    +0.000 A 
ENDBRANCH   1  16
BRANCH   3  17
ATOM     17  C   UNL     1       3.286   5.255  19.890  0.00  0.00    +0.000 C 
BRANCH  17  18
ATOM     18  C   UNL     1       2.116   6.237  19.882  0.00  0.00    +0.000 C 
BRANCH  18  19
ATOM     19  C   UNL     1       2.500   7.559  19.216  0.00  0.00    +0.000 C 
BRANCH  19  20
ATOM     20  N   UNL     1       1.575   8.627  19.529  0.00  0.00    +0.000 N 
ATOM     21  C   UNL     1       1.022   8.840  20.754  0.00  0.00    +0.000 C 
ATOM     22  O   UNL     1       1.223   8.209  21.780  0.00  0.00    +0.000 OA
ATOM     23  N   UNL     1       0.163   9.910  20.661  0.00  0.00    +0.000 N 
ATOM     24  C   UNL     1       0.149  10.492  19.343  0.00  0.00    +0.000 C 
ATOM     25  C   UNL     1       0.664  11.932  19.337  0.00  0.00    +0.000 C 
ATOM     26  C   UNL     1      -0.220  12.643  18.319  0.00  0.00    +0.000 C 
ATOM     27  C   UNL     1      -1.573  11.977  18.503  0.00  0.00    +0.000 C 
ATOM     28  C   UNL     1      -1.238  10.501  18.691  0.00  0.00    +0.000 C 
ATOM     29  C   UNL     1       1.121   9.543  18.623  0.00  0.00    +0.000 C 
ATOM     30  O   UNL     1       1.431   9.608  17.441  0.00  0.00    +0.000 OA
ATOM     31  H   UNL     1      -0.344  10.242  21.470  0.00  0.00    +0.000 HD
ENDBRANCH  19  20
ENDBRANCH  18  19
ENDBRANCH  17  18
ENDBRANCH   3  17
TORSDOF 5
ENDMDL
MODEL 4
REMARK VINA RESULT:      -8.7      3.915      8.969
REMARK  Name = 
REMARK  6 active torsions:
REMARK  status: ('A' for Active; 'I' for Inactive)
REMARK    1  A    between atoms: C_1  and  C_2
REMARK    2  A    between atoms: C_12  and  C_13
REMARK    3  A    between atoms: N_15  and  C_16
REMARK    4  A    between atoms: C_16  and  C_17
REMARK    5  A    between atoms: C_17  and  C_18
REMARK    6  A    between atoms: C_18  and  N_19
REMARK                            x       y       z     vdW  Elec       q    Type
REMARK                         _______ _______ _______ _____ _____    ______ ____
ROOT
ATOM      1  C   UNL     1       2.047   6.649  20.298  0.00  0.00    +0.000 C 
ATOM      2  O   UNL     1       3.167   6.563  19.803  0.00  0.00    +0.000 OA
ATOM      3  N   UNL     1       1.423   5.580  20.901  0.00  0.00    +0.000 N 
ATOM      4  H   UNL     1       0.608   5.748  21.470  0.00  0.00    +0.000 HD
ENDROOT
BRANCH   1  16
ATOM      5  C   UNL     1       2.091   8.755  17.983  0.00  0.00    +0.000 C 
ATOM      6  C   UNL     1       1.350   8.911  19.278  0.00  0.00    +0.000 A 
ATOM      7  N   UNL     1       0.718  10.116  19.392  0.00  0.00    +0.000 NA
ATOM      8  C   UNL     1       0.131  10.451  20.553  0.00  0.00    +0.000 A 
ATOM      9  C   UNL     1      -0.432  11.708  20.688  0.00  0.00    +0.000 A 
ATOM     10  C   UNL     1      -0.991  12.111  21.895  0.00  0.00    +0.000 A 
ATOM     11  F   UNL     1      -1.497  13.347  22.009  0.00  0.00    +0.000 F 
ATOM     12  C   UNL     1      -1.022  11.259  22.989  0.00  0.00    +0.000 A 
ATOM     13  C   UNL     1      -0.485   9.980  22.867  0.00  0.00    +0.000 A 
ATOM     14  C   UNL     1       0.103   9.575  21.654  0.00  0.00    +0.000 A 
ATOM     15  C   UNL     1       0.702   8.318  21.502  0.00  0.00    +0.000 A 
ATOM     16  C   UNL     1       1.349   7.967  20.308  0.00  0.00    +0.000 A 
ENDBRANCH   1  16
BRANCH   3  17
ATOM     17  C   UNL     1       2.081   4.294  21.059  0.00  0.00    +0.000 C 
BRANCH  17  18
ATOM     18  C   UNL     1       1.300   3.164  20.392  0.00  0.00    +0.000 C 
BRANCH  18  19
ATOM     19  C   UNL     1       2.174   2.386  19.407  0.00  0.00    +0.000 C 
BRANCH  19  20
ATOM     20  N   UNL     1       3.030   3.249  18.624  0.00  0.00    +0.000 N 
ATOM     21  C   UNL     1       2.595   4.105  17.659  0.00  0.00    +0.000 C 
ATOM     22  O   UNL     1       1.442   4.313  17.315  0.00  0.00    +0.000 OA
ATOM     23  N   UNL     1       3.690   4.723  17.102  0.00  0.00    +0.000 N 
ATOM     24  C   UNL     1       4.926   4.321  17.726  0.00  0.00    +0.000 C 
ATOM     25  C   UNL     1       5.630   5.485  18.426  0.00  0.00    +0.000 C 
ATOM     26  C   UNL     1       7.111   5.238  18.167  0.00  0.00    +0.000 C 
ATOM     27  C   UNL     1       7.130   4.644  16.769  0.00  0.00    +0.000 C 
ATOM     28  C   UNL     1       5.931   3.700  16.751  0.00  0.00    +0.000 C 
ATOM     29  C   UNL     1       4.391   3.295  18.738  0.00  0.00    +0.000 C 
ATOM     30  O   UNL     1       5.076   2.639  19.512  0.00  0.00    +0.000 OA
ATOM     31  H   UNL     1       3.583   5.411  16.370  0.00  0.00    +0.000 HD
ENDBRANCH  19  20
ENDBRANCH  18  19
ENDBRANCH  17  18
ENDBRANCH   3  17
TORSDOF 5
ENDMDL
MODEL 5
REMARK VINA RESULT:      -8.6      6.404      9.289
REMARK  Name = 
REMARK  6 active torsions:
REMARK  status: ('A' for Active; 'I' for Inactive)
REMARK    1  A    between atoms: C_1  and  C_2
REMARK    2  A    between atoms: C_12  and  C_13
REMARK    3  A    between atoms: N_15  and  C_16
REMARK    4  A    between atoms: C_16  and  C_17
REMARK    5  A    between atoms: C_17  and  C_18
REMARK    6  A    between atoms: C_18  and  N_19
REMARK                            x       y       z     vdW  Elec       q    Type
REMARK                         _______ _______ _______ _____ _____    ______ ____
ROOT
ATOM      1  C   UNL     1       9.245  10.966  19.212  0.00  0.00    +0.000 C 
ATOM      2  O   UNL     1       9.251  10.692  20.409  0.00  0.00    +0.000 OA
ATOM      3  N   UNL     1       8.923  10.041  18.244  0.00  0.00    +0.000 N 
ATOM      4  H   UNL     1       8.729  10.361  17.308  0.00  0.00    +0.000 HD
ENDROOT
BRANCH   1  16
ATOM      5  C   UNL     1      12.010  12.020  18.192  0.00  0.00    +0.000 C 
ATOM      6  C   UNL     1      10.763  12.845  18.311  0.00  0.00    +0.000 A 
ATOM      7  N   UNL     1      10.952  14.155  17.979  0.00  0.00    +0.000 NA
ATOM      8  C   UNL     1       9.960  15.040  18.171  0.00  0.00    +0.000 A 
ATOM      9  C   UNL     1      10.189  16.380  17.912  0.00  0.00    +0.000 A 
ATOM     10  C   UNL     1       9.205  17.330  18.159  0.00  0.00    +0.000 A 
ATOM     11  F   UNL     1       9.467  18.625  17.934  0.00  0.00    +0.000 F 
ATOM     12  C   UNL     1       7.960  16.961  18.648  0.00  0.00    +0.000 A 
ATOM     13  C   UNL     1       7.700  15.615  18.890  0.00  0.00    +0.000 A 
ATOM     14  C   UNL     1       8.700  14.651  18.663  0.00  0.00    +0.000 A 
ATOM     15  C   UNL     1       8.500  13.293  18.942  0.00  0.00    +0.000 A 
ATOM     16  C   UNL     1       9.538  12.363  18.779  0.00  0.00    +0.000 A 
ENDBRANCH   1  16
BRANCH   3  17
ATOM     17  C   UNL     1       8.493   8.694  18.580  0.00  0.00    +0.000 C 
BRANCH  17  18
ATOM     18  C   UNL     1       7.432   8.172  17.612  0.00  0.00    +0.000 C 
BRANCH  18  19
ATOM     19  C   UNL     1       7.559   6.663  17.405  0.00  0.00    +0.000 C 
BRANCH  19  20
ATOM     20  N   UNL     1       6.450   5.929  17.973  0.00  0.00    +0.000 N 
ATOM     21  C   UNL     1       6.441   5.377  19.218  0.00  0.00    +0.000 C 
ATOM     22  O   UNL     1       7.325   5.426  20.059  0.00  0.00    +0.000 OA
ATOM     23  N   UNL     1       5.243   4.724  19.393  0.00  0.00    +0.000 N 
ATOM     24  C   UNL     1       4.370   4.861  18.255  0.00  0.00    +0.000 C 
ATOM     25  C   UNL     1       3.087   5.621  18.595  0.00  0.00    +0.000 C 
ATOM     26  C   UNL     1       2.006   4.914  17.787  0.00  0.00    +0.000 C 
ATOM     27  C   UNL     1       2.442   3.459  17.813  0.00  0.00    +0.000 C 
ATOM     28  C   UNL     1       3.955   3.523  17.636  0.00  0.00    +0.000 C 
ATOM     29  C   UNL     1       5.277   5.677  17.320  0.00  0.00    +0.000 C 
ATOM     30  O   UNL     1       4.986   6.036  16.187  0.00  0.00    +0.000 OA
ATOM     31  H   UNL     1       5.030   4.254  20.262  0.00  0.00    +0.000 HD
ENDBRANCH  19  20
ENDBRANCH  18  19
ENDBRANCH  17  18
ENDBRANCH   3  17
TORSDOF 5
ENDMDL
MODEL 6
REMARK VINA RESULT:      -8.6      3.147      5.208
REMARK  Name = 
REMARK  6 active torsions:
REMARK  status: ('A' for Active; 'I' for Inactive)
REMARK    1  A    between atoms: C_1  and  C_2
REMARK    2  A    between atoms: C_12  and  C_13
REMARK    3  A    between atoms: N_15  and  C_16
REMARK    4  A    between atoms: C_16  and  C_17
REMARK    5  A    between atoms: C_17  and  C_18
REMARK    6  A    between atoms: C_18  and  N_19
REMARK                            x       y       z     vdW  Elec       q    Type
REMARK                         _______ _______ _______ _____ _____    ______ ____
ROOT
ATOM      1  C   UNL     1       1.763   8.193  19.510  0.00  0.00    +0.000 C 
ATOM      2  O   UNL     1       1.849   8.343  20.726  0.00  0.00    +0.000 OA
ATOM      3  N   UNL     1       1.103   9.090  18.701  0.00  0.00    +0.000 N 
ATOM      4  H   UNL     1       1.236   9.038  17.704  0.00  0.00    +0.000 HD
ENDROOT
BRANCH   1  16
ATOM      5  C   UNL     1       1.629   5.223  20.488  0.00  0.00    +0.000 C 
ATOM      6  C   UNL     1       2.383   5.701  19.283  0.00  0.00    +0.000 A 
ATOM      7  N   UNL     1       3.079   4.708  18.655  0.00  0.00    +0.000 NA
ATOM      8  C   UNL     1       3.909   5.014  17.645  0.00  0.00    +0.000 A 
ATOM      9  C   UNL     1       4.674   4.013  17.072  0.00  0.00    +0.000 A 
ATOM     10  C   UNL     1       5.590   4.305  16.068  0.00  0.00    +0.000 A 
ATOM     11  F   UNL     1       6.344   3.323  15.556  0.00  0.00    +0.000 F 
ATOM     12  C   UNL     1       5.746   5.600  15.596  0.00  0.00    +0.000 A 
ATOM     13  C   UNL     1       4.968   6.618  16.140  0.00  0.00    +0.000 A 
ATOM     14  C   UNL     1       4.055   6.332  17.173  0.00  0.00    +0.000 A 
ATOM     15  C   UNL     1       3.290   7.332  17.786  0.00  0.00    +0.000 A 
ATOM     16  C   UNL     1       2.444   7.033  18.865  0.00  0.00    +0.000 A 
ENDBRANCH   1  16
BRANCH   3  17
ATOM     17  C   UNL     1       0.527  10.318  19.223  0.00  0.00    +0.000 C 
BRANCH  17  18
ATOM     18  C   UNL     1      -0.986  10.376  19.015  0.00  0.00    +0.000 C 
BRANCH  18  19
ATOM     19  C   UNL     1      -1.369  11.456  18.001  0.00  0.00    +0.000 C 
BRANCH  19  20
ATOM     20  N   UNL     1      -2.764  11.393  17.625  0.00  0.00    +0.000 N 
ATOM     21  C   UNL     1      -3.224  10.946  16.424  0.00  0.00    +0.000 C 
ATOM     22  O   UNL     1      -2.567  10.505  15.494  0.00  0.00    +0.000 OA
ATOM     23  N   UNL     1      -4.593  11.075  16.409  0.00  0.00    +0.000 N 
ATOM     24  C   UNL     1      -5.111  11.585  17.654  0.00  0.00    +0.000 C 
ATOM     25  C   UNL     1      -6.017  10.577  18.364  0.00  0.00    +0.000 C 
ATOM     26  C   UNL     1      -7.122  11.429  18.975  0.00  0.00    +0.000 C 
ATOM     27  C   UNL     1      -7.323  12.532  17.949  0.00  0.00    +0.000 C 
ATOM     28  C   UNL     1      -5.909  12.883  17.500  0.00  0.00    +0.000 C 
ATOM     29  C   UNL     1      -3.797  11.799  18.421  0.00  0.00    +0.000 C 
ATOM     30  O   UNL     1      -3.703  12.254  19.554  0.00  0.00    +0.000 OA
ATOM     31  H   UNL     1      -5.134  10.785  15.607  0.00  0.00    +0.000 HD
ENDBRANCH  19  20
ENDBRANCH  18  19
ENDBRANCH  17  18
ENDBRANCH   3  17
TORSDOF 5
ENDMDL
MODEL 7
REMARK VINA RESULT:      -8.6      3.973      8.723
REMARK  Name = 
REMARK  6 active torsions:
REMARK  status: ('A' for Active; 'I' for Inactive)
REMARK    1  A    between atoms: C_1  and  C_2
REMARK    2  A    between atoms: C_12  and  C_13
REMARK    3  A    between atoms: N_15  and  C_16
REMARK    4  A    between atoms: C_16  and  C_17
REMARK    5  A    between atoms: C_17  and  C_18
REMARK    6  A    between atoms: C_18  and  N_19
REMARK                            x       y       z     vdW  Elec       q    Type
REMARK                         _______ _______ _______ _____ _____    ______ ____
ROOT
ATOM      1  C   UNL     1       1.852   5.520  20.423  0.00  0.00    +0.000 C 
ATOM      2  O   UNL     1       2.643   5.136  21.280  0.00  0.00    +0.000 OA
ATOM      3  N   UNL     1       1.277   4.663  19.512  0.00  0.00    +0.000 N 
ATOM      4  H   UNL     1       0.487   4.981  18.973  0.00  0.00    +0.000 HD
ENDROOT
BRANCH   1  16
ATOM      5  C   UNL     1       2.662   7.604  18.233  0.00  0.00    +0.000 C 
ATOM      6  C   UNL     1       1.788   7.892  19.416  0.00  0.00    +0.000 A 
ATOM      7  N   UNL     1       1.405   9.201  19.495  0.00  0.00    +0.000 NA
ATOM      8  C   UNL     1       0.736   9.634  20.576  0.00  0.00    +0.000 A 
ATOM      9  C   UNL     1       0.427  10.978  20.686  0.00  0.00    +0.000 A 
ATOM     10  C   UNL     1      -0.208  11.471  21.820  0.00  0.00    +0.000 A 
ATOM     11  F   UNL     1      -0.462  12.783  21.916  0.00  0.00    +0.000 F 
ATOM     12  C   UNL     1      -0.572  10.629  22.860  0.00  0.00    +0.000 A 
ATOM     13  C   UNL     1      -0.295   9.268  22.758  0.00  0.00    +0.000 A 
ATOM     14  C   UNL     1       0.369   8.767  21.622  0.00  0.00    +0.000 A 
ATOM     15  C   UNL     1       0.715   7.415  21.500  0.00  0.00    +0.000 A 
ATOM     16  C   UNL     1       1.444   6.955  20.393  0.00  0.00    +0.000 A 
ENDBRANCH   1  16
BRANCH   3  17
ATOM     17  C   UNL     1       1.510   3.229  19.552  0.00  0.00    +0.000 C 
BRANCH  17  18
ATOM     18  C   UNL     1       1.690   2.638  18.154  0.00  0.00    +0.000 C 
BRANCH  18  19
ATOM     19  C   UNL     1       3.055   1.965  18.004  0.00  0.00    +0.000 C 
BRANCH  19  20
ATOM     20  N   UNL     1       4.152   2.879  18.237  0.00  0.00    +0.000 N 
ATOM     21  C   UNL     1       4.884   2.935  19.384  0.00  0.00    +0.000 C 
ATOM     22  O   UNL     1       4.770   2.230  20.374  0.00  0.00    +0.000 OA
ATOM     23  N   UNL     1       5.805   3.949  19.260  0.00  0.00    +0.000 N 
ATOM     24  C   UNL     1       5.747   4.592  17.971  0.00  0.00    +0.000 C 
ATOM     25  C   UNL     1       7.036   4.407  17.170  0.00  0.00    +0.000 C 
ATOM     26  C   UNL     1       7.227   5.738  16.453  0.00  0.00    +0.000 C 
ATOM     27  C   UNL     1       6.712   6.756  17.458  0.00  0.00    +0.000 C 
ATOM     28  C   UNL     1       5.470   6.097  18.049  0.00  0.00    +0.000 C 
ATOM     29  C   UNL     1       4.576   3.819  17.342  0.00  0.00    +0.000 C 
ATOM     30  O   UNL     1       4.114   4.018  16.226  0.00  0.00    +0.000 OA
ATOM     31  H   UNL     1       6.460   4.150  20.003  0.00  0.00    +0.000 HD
ENDBRANCH  19  20
ENDBRANCH  18  19
ENDBRANCH  17  18
ENDBRANCH   3  17
TORSDOF 5
ENDMDL
MODEL 8
REMARK VINA RESULT:      -8.5      2.574      4.232
REMARK  Name = 
REMARK  6 active torsions:
REMARK  status: ('A' for Active; 'I' for Inactive)
REMARK    1  A    between atoms: C_1  and  C_2
REMARK    2  A    between atoms: C_12  and  C_13
REMARK    3  A    between atoms: N_15  and  C_16
REMARK    4  A    between atoms: C_16  and  C_17
REMARK    5  A    between atoms: C_17  and  C_18
REMARK    6  A    between atoms: C_18  and  N_19
REMARK                            x       y       z     vdW  Elec       q    Type
REMARK                         _______ _______ _______ _____ _____    ______ ____
ROOT
ATOM      1  C   UNL     1       2.028   8.004  19.657  0.00  0.00    +0.000 C 
ATOM      2  O   UNL     1       1.639   8.998  19.049  0.00  0.00    +0.000 OA
ATOM      3  N   UNL     1       1.906   7.880  21.022  0.00  0.00    +0.000 N 
ATOM      4  H   UNL     1       2.042   6.976  21.445  0.00  0.00    +0.000 HD
ENDROOT
BRANCH   1  16
ATOM      5  C   UNL     1       1.624   4.977  20.340  0.00  0.00    +0.000 C 
ATOM      6  C   UNL     1       2.418   5.501  19.181  0.00  0.00    +0.000 A 
ATOM      7  N   UNL     1       3.020   4.516  18.453  0.00  0.00    +0.000 NA
ATOM      8  C   UNL     1       3.876   4.843  17.470  0.00  0.00    +0.000 A 
ATOM      9  C   UNL     1       4.546   3.838  16.795  0.00  0.00    +0.000 A 
ATOM     10  C   UNL     1       5.485   4.144  15.817  0.00  0.00    +0.000 A 
ATOM     11  F   UNL     1       6.146   3.152  15.204  0.00  0.00    +0.000 F 
ATOM     12  C   UNL     1       5.758   5.459  15.473  0.00  0.00    +0.000 A 
ATOM     13  C   UNL     1       5.076   6.485  16.121  0.00  0.00    +0.000 A 
ATOM     14  C   UNL     1       4.140   6.182  17.129  0.00  0.00    +0.000 A 
ATOM     15  C   UNL     1       3.470   7.182  17.843  0.00  0.00    +0.000 A 
ATOM     16  C   UNL     1       2.600   6.857  18.895  0.00  0.00    +0.000 A 
ENDBRANCH   1  16
BRANCH   3  17
ATOM     17  C   UNL     1       1.238   8.888  21.831  0.00  0.00    +0.000 C 
BRANCH  17  18
ATOM     18  C   UNL     1      -0.268   8.922  21.577  0.00  0.00    +0.000 C 
BRANCH  18  19
ATOM     19  C   UNL     1      -0.802  10.355  21.576  0.00  0.00    +0.000 C 
BRANCH  19  20
ATOM     20  N   UNL     1      -0.357  11.112  20.427  0.00  0.00    +0.000 N 
ATOM     21  C   UNL     1      -0.817  10.937  19.158  0.00  0.00    +0.000 C 
ATOM     22  O   UNL     1      -1.678  10.158  18.780  0.00  0.00    +0.000 OA
ATOM     23  N   UNL     1      -0.137  11.797  18.327  0.00  0.00    +0.000 N 
ATOM     24  C   UNL     1       0.795  12.632  19.044  0.00  0.00    +0.000 C 
ATOM     25  C   UNL     1       0.431  14.115  18.959  0.00  0.00    +0.000 C 
ATOM     26  C   UNL     1       1.775  14.825  18.851  0.00  0.00    +0.000 C 
ATOM     27  C   UNL     1       2.615  13.867  18.024  0.00  0.00    +0.000 C 
ATOM     28  C   UNL     1       2.242  12.489  18.562  0.00  0.00    +0.000 C 
ATOM     29  C   UNL     1       0.601  12.085  20.467  0.00  0.00    +0.000 C 
ATOM     30  O   UNL     1       1.205  12.466  21.461  0.00  0.00    +0.000 OA
ATOM     31  H   UNL     1      -0.339  11.834  17.338  0.00  0.00    +0.000 HD
ENDBRANCH  19  20
ENDBRANCH  18  19
ENDBRANCH  17  18
ENDBRANCH   3  17
TORSDOF 5
ENDMDL
MODEL 9
REMARK VINA RESULT:      -8.4      6.432      9.291
REMARK  Name = 
REMARK  6 active torsions:
REMARK  status: ('A' for Active; 'I' for Inactive)
REMARK    1  A    between atoms: C_1  and  C_2
REMARK    2  A    between atoms: C_12  and  C_13
REMARK    3  A    between atoms: N_15  and  C_16
REMARK    4  A    between atoms: C_16  and  C_17
REMARK    5  A    between atoms: C_17  and  C_18
REMARK    6  A    between atoms: C_18  and  N_19
REMARK                            x       y       z     vdW  Elec       q    Type
REMARK                         _______ _______ _______ _____ _____    ______ ____
ROOT
ATOM      1  C   UNL     1       9.359  11.017  19.110  0.00  0.00    +0.000 C 
ATOM      2  O   UNL     1       9.326  10.776  20.313  0.00  0.00    +0.000 OA
ATOM      3  N   UNL     1       9.039  10.075  18.159  0.00  0.00    +0.000 N 
ATOM      4  H   UNL     1       8.878  10.374  17.210  0.00  0.00    +0.000 HD
ENDROOT
BRANCH   1  16
ATOM      5  C   UNL     1      12.175  11.975  18.137  0.00  0.00    +0.000 C 
ATOM      6  C   UNL     1      10.947  12.833  18.200  0.00  0.00    +0.000 A 
ATOM      7  N   UNL     1      11.178  14.129  17.839  0.00  0.00    +0.000 NA
ATOM      8  C   UNL     1      10.203  15.042  17.980  0.00  0.00    +0.000 A 
ATOM      9  C   UNL     1      10.473  16.369  17.692  0.00  0.00    +0.000 A 
ATOM     10  C   UNL     1       9.507  17.349  17.888  0.00  0.00    +0.000 A 
ATOM     11  F   UNL     1       9.807  18.631  17.636  0.00  0.00    +0.000 F 
ATOM     12  C   UNL     1       8.241  17.025  18.352  0.00  0.00    +0.000 A 
ATOM     13  C   UNL     1       7.940  15.692  18.622  0.00  0.00    +0.000 A 
ATOM     14  C   UNL     1       8.922  14.698  18.448  0.00  0.00    +0.000 A 
ATOM     15  C   UNL     1       8.680  13.354  18.758  0.00  0.00    +0.000 A 
ATOM     16  C   UNL     1       9.698  12.395  18.648  0.00  0.00    +0.000 A 
ENDBRANCH   1  16
BRANCH   3  17
ATOM     17  C   UNL     1       8.566   8.748  18.518  0.00  0.00    +0.000 C 
BRANCH  17  18
ATOM     18  C   UNL     1       7.456   8.263  17.588  0.00  0.00    +0.000 C 
BRANCH  18  19
ATOM     19  C   UNL     1       7.506   6.746  17.402  0.00  0.00    +0.000 C 
BRANCH  19  20
ATOM     20  N   UNL     1       6.216   6.121  17.590  0.00  0.00    +0.000 N 
ATOM     21  C   UNL     1       5.198   6.153  16.686  0.00  0.00    +0.000 C 
ATOM     22  O   UNL     1       5.203   6.670  15.579  0.00  0.00    +0.000 OA
ATOM     23  N   UNL     1       4.118   5.495  17.226  0.00  0.00    +0.000 N 
ATOM     24  C   UNL     1       4.402   4.947  18.528  0.00  0.00    +0.000 C 
ATOM     25  C   UNL     1       4.323   3.420  18.546  0.00  0.00    +0.000 C 
ATOM     26  C   UNL     1       3.705   3.091  19.900  0.00  0.00    +0.000 C 
ATOM     27  C   UNL     1       2.724   4.229  20.124  0.00  0.00    +0.000 C 
ATOM     28  C   UNL     1       3.468   5.464  19.627  0.00  0.00    +0.000 C 
ATOM     29  C   UNL     1       5.846   5.440  18.715  0.00  0.00    +0.000 C 
ATOM     30  O   UNL     1       6.539   5.245  19.705  0.00  0.00    +0.000 OA
ATOM     31  H   UNL     1       3.258   5.394  16.705  0.00  0.00    +0.000 HD
ENDBRANCH  19  20
ENDBRANCH  18  19
ENDBRANCH  17  18
ENDBRANCH   3  17
TORSDOF 5
ENDMDL
