MODEL 1
REMARK VINA RESULT:      -9.0      0.000      0.000
REMARK  Name = 
REMARK  4 active torsions:
REMARK  status: ('A' for Active; 'I' for Inactive)
REMARK    1  A    between atoms: C_1  and  C_2
REMARK    2  A    between atoms: C_4  and  N_5
REMARK    3  A    between atoms: C_12  and  C_13
REMARK    4  A    between atoms: C_15  and  C_16
REMARK                            x       y       z     vdW  Elec       q    Type
REMARK                         _______ _______ _______ _____ _____    ______ ____
ROOT
ATOM      1  N   UNL     1       4.263   4.754  18.220  0.00  0.00    +0.000 N 
ATOM      2  C   UNL     1       4.340   3.934  19.325  0.00  0.00    +0.000 C 
ATOM      3  O   UNL     1       5.361   3.387  19.733  0.00  0.00    +0.000 OA
ATOM      4  N   UNL     1       3.141   3.772  20.004  0.00  0.00    +0.000 N 
ATOM      5  C   UNL     1       3.050   2.979  21.214  0.00  0.00    +0.000 C 
ATOM      6  C   UNL     1       1.629   2.445  21.189  0.00  0.00    +0.000 C 
ATOM      7  C   UNL     1       0.822   3.545  20.501  0.00  0.00    +0.000 C 
ATOM      8  C   UNL     1       1.832   4.282  19.616  0.00  0.00    +0.000 C 
ATOM      9  H   UNL     1       3.428   5.315  18.129  0.00  0.00    +0.000 HD
ENDROOT
BRANCH   1  13
ATOM     10  C   UNL     1       6.743   4.388  13.916  0.00  0.00    +0.000 C 
ATOM     11  C   UNL     1       6.531   4.961  15.285  0.00  0.00    +0.000 A 
ATOM     12  C   UNL     1       5.446   4.560  16.060  0.00  0.00    +0.000 A 
ATOM     13  C   UNL     1       5.295   5.103  17.330  0.00  0.00    +0.000 A 
ATOM     14  C   UNL     1       6.214   6.053  17.773  0.00  0.00    +0.000 A 
ATOM     15  C   UNL     1       7.262   6.396  16.937  0.00  0.00    +0.000 A 
ATOM     16  N   UNL     1       7.439   5.874  15.708  0.00  0.00    +0.000 NA
ENDBRANCH   1  13
BRANCH   8  17
ATOM     17  C   UNL     1       1.820   5.760  19.828  0.00  0.00    +0.000 A 
ATOM     18  N   UNL     1       1.072   6.444  20.668  0.00  0.00    +0.000 NA
ATOM     19  C   UNL     1       1.378   7.763  20.381  0.00  0.00    +0.000 A 
ATOM     20  N   UNL     1       2.254   7.904  19.376  0.00  0.00    +0.000 NA
ATOM     21  N   UNL     1       2.496   6.638  19.029  0.00  0.00    +0.000 N 
ATOM     22  H   UNL     1       3.090   6.444  18.232  0.00  0.00    +0.000 HD
BRANCH  19  23
ATOM     23  C   UNL     1       0.797   8.884  21.113  0.00  0.00    +0.000 A 
ATOM     24  C   UNL     1       0.772  10.165  20.545  0.00  0.00    +0.000 A 
ATOM     25  C   UNL     1       0.196  11.233  21.234  0.00  0.00    +0.000 A 
ATOM     26  C   UNL     1      -0.359  11.034  22.499  0.00  0.00    +0.000 A 
ATOM     27  C   UNL     1      -0.335   9.764  23.078  0.00  0.00    +0.000 A 
ATOM     28  C   UNL     1       0.242   8.696  22.387  0.00  0.00    +0.000 A 
ENDBRANCH  19  23
ENDBRANCH   8  17
TORSDOF 3
ENDMDL
MODEL 2
REMARK VINA RESULT:      -8.8      3.899      8.364
REMARK  Name = 
REMARK  4 active torsions:
REMARK  status: ('A' for Active; 'I' for Inactive)
REMARK    1  A    between atoms: C_1  and  C_2
REMARK    2  A    between atoms: C_4  and  N_5
REMARK    3  A    between atoms: C_12  and  C_13
REMARK    4  A    between atoms: C_15  and  C_16
REMARK                            x       y       z     vdW  Elec       q    Type
REMARK                         _______ _______ _______ _____ _____    ______ ____
ROOT
ATOM      1  N   UNL     1       4.783   4.834  18.080  0.00  0.00    +0.000 N 
ATOM      2  C   UNL     1       5.887   5.126  18.852  0.00  0.00    +0.000 C 
ATOM      3  O   UNL     1       6.152   4.611  19.934  0.00  0.00    +0.000 OA
ATOM      4  N   UNL     1       6.741   6.068  18.297  0.00  0.00    +0.000 N 
ATOM      5  C   UNL     1       7.973   6.461  18.952  0.00  0.00    +0.000 C 
ATOM      6  C   UNL     1       8.175   7.899  18.507  0.00  0.00    +0.000 C 
ATOM      7  C   UNL     1       7.585   7.945  17.098  0.00  0.00    +0.000 C 
ATOM      8  C   UNL     1       6.539   6.827  17.069  0.00  0.00    +0.000 C 
ATOM      9  H   UNL     1       4.802   5.153  17.122  0.00  0.00    +0.000 HD
ENDROOT
BRANCH   1  13
ATOM     10  C   UNL     1       1.180   2.986  20.980  0.00  0.00    +0.000 C 
ATOM     11  C   UNL     1       2.003   3.001  19.728  0.00  0.00    +0.000 A 
ATOM     12  C   UNL     1       2.988   3.967  19.539  0.00  0.00    +0.000 A 
ATOM     13  C   UNL     1       3.739   3.936  18.371  0.00  0.00    +0.000 A 
ATOM     14  C   UNL     1       3.462   2.961  17.414  0.00  0.00    +0.000 A 
ATOM     15  C   UNL     1       2.464   2.040  17.682  0.00  0.00    +0.000 A 
ATOM     16  N   UNL     1       1.731   2.039  18.812  0.00  0.00    +0.000 NA
ENDBRANCH   1  13
BRANCH   8  17
ATOM     17  C   UNL     1       6.710   5.902  15.910  0.00  0.00    +0.000 A 
ATOM     18  N   UNL     1       5.779   5.467  15.086  0.00  0.00    +0.000 NA
ATOM     19  C   UNL     1       6.449   4.564  14.280  0.00  0.00    +0.000 A 
ATOM     20  N   UNL     1       7.740   4.407  14.608  0.00  0.00    +0.000 NA
ATOM     21  N   UNL     1       7.872   5.236  15.647  0.00  0.00    +0.000 N 
ATOM     22  H   UNL     1       8.753   5.272  16.147  0.00  0.00    +0.000 HD
BRANCH  19  23
ATOM     23  C   UNL     1       5.801   3.857  13.181  0.00  0.00    +0.000 A 
ATOM     24  C   UNL     1       4.506   4.209  12.776  0.00  0.00    +0.000 A 
ATOM     25  C   UNL     1       3.894   3.549  11.709  0.00  0.00    +0.000 A 
ATOM     26  C   UNL     1       4.568   2.529  11.037  0.00  0.00    +0.000 A 
ATOM     27  C   UNL     1       5.856   2.164  11.434  0.00  0.00    +0.000 A 
ATOM     28  C   UNL     1       6.467   2.825  12.502  0.00  0.00    +0.000 A 
ENDBRANCH  19  23
ENDBRANCH   8  17
TORSDOF 3
ENDMDL
MODEL 3
REMARK VINA RESULT:      -8.8      1.945      7.652
REMARK  Name = 
REMARK  4 active torsions:
REMARK  status: ('A' for Active; 'I' for Inactive)
REMARK    1  A    between atoms: C_1  and  C_2
REMARK    2  A    between atoms: C_4  and  N_5
REMARK    3  A    between atoms: C_12  and  C_13
REMARK    4  A    between atoms: C_15  and  C_16
REMARK                            x       y       z     vdW  Elec       q    Type
REMARK                         _______ _______ _______ _____ _____    ______ ____
ROOT
ATOM      1  N   UNL     1       2.888   5.945  18.862  0.00  0.00    +0.000 N 
ATOM      2  C   UNL     1       2.192   4.781  18.616  0.00  0.00    +0.000 C 
ATOM      3  O   UNL     1       0.989   4.709  18.385  0.00  0.00    +0.000 OA
ATOM      4  N   UNL     1       2.974   3.635  18.618  0.00  0.00    +0.000 N 
ATOM      5  C   UNL     1       2.414   2.329  18.332  0.00  0.00    +0.000 C 
ATOM      6  C   UNL     1       3.288   1.378  19.132  0.00  0.00    +0.000 C 
ATOM      7  C   UNL     1       4.667   2.037  19.126  0.00  0.00    +0.000 C 
ATOM      8  C   UNL     1       4.391   3.533  18.946  0.00  0.00    +0.000 C 
ATOM      9  H   UNL     1       3.896   5.891  18.809  0.00  0.00    +0.000 HD
ENDROOT
BRANCH   1  13
ATOM     10  C   UNL     1       0.598   9.711  21.181  0.00  0.00    +0.000 C 
ATOM     11  C   UNL     1       1.278   9.095  19.995  0.00  0.00    +0.000 A 
ATOM     12  C   UNL     1       1.772   7.795  20.059  0.00  0.00    +0.000 A 
ATOM     13  C   UNL     1       2.381   7.255  18.933  0.00  0.00    +0.000 A 
ATOM     14  C   UNL     1       2.506   8.042  17.789  0.00  0.00    +0.000 A 
ATOM     15  C   UNL     1       1.988   9.325  17.812  0.00  0.00    +0.000 A 
ATOM     16  N   UNL     1       1.380   9.867  18.886  0.00  0.00    +0.000 NA
ENDBRANCH   1  13
BRANCH   8  17
ATOM     17  C   UNL     1       5.178   4.139  17.831  0.00  0.00    +0.000 A 
ATOM     18  N   UNL     1       5.231   3.740  16.578  0.00  0.00    +0.000 NA
ATOM     19  C   UNL     1       6.181   4.570  16.009  0.00  0.00    +0.000 A 
ATOM     20  N   UNL     1       6.730   5.431  16.878  0.00  0.00    +0.000 NA
ATOM     21  N   UNL     1       6.105   5.124  18.017  0.00  0.00    +0.000 N 
ATOM     22  H   UNL     1       6.377   5.588  18.876  0.00  0.00    +0.000 HD
BRANCH  19  23
ATOM     23  C   UNL     1       6.539   4.507  14.596  0.00  0.00    +0.000 A 
ATOM     24  C   UNL     1       5.894   3.602  13.742  0.00  0.00    +0.000 A 
ATOM     25  C   UNL     1       6.219   3.556  12.385  0.00  0.00    +0.000 A 
ATOM     26  C   UNL     1       7.194   4.410  11.868  0.00  0.00    +0.000 A 
ATOM     27  C   UNL     1       7.848   5.311  12.710  0.00  0.00    +0.000 A 
ATOM     28  C   UNL     1       7.522   5.357  14.068  0.00  0.00    +0.000 A 
ENDBRANCH  19  23
ENDBRANCH   8  17
TORSDOF 3
ENDMDL
MODEL 4
REMARK VINA RESULT:      -8.6      1.279      2.403
REMARK  Name = 
REMARK  4 active torsions:
REMARK  status: ('A' for Active; 'I' for Inactive)
REMARK    1  A    between atoms: C_1  and  C_2
REMARK    2  A    between atoms: C_4  and  N_5
REMARK    3  A    between atoms: C_12  and  C_13
REMARK    4  A    between atoms: C_15  and  C_16
REMARK                            x       y       z     vdW  Elec       q    Type
REMARK                         _______ _______ _______ _____ _____    ______ ____
ROOT
ATOM      1  N   UNL     1       4.416   4.882  18.319  0.00  0.00    +0.000 N 
ATOM      2  C   UNL     1       4.402   3.912  19.298  0.00  0.00    +0.000 C 
ATOM      3  O   UNL     1       5.394   3.352  19.756  0.00  0.00    +0.000 OA
ATOM      4  N   UNL     1       3.139   3.605  19.783  0.00  0.00    +0.000 N 
ATOM      5  C   UNL     1       2.944   2.640  20.846  0.00  0.00    +0.000 C 
ATOM      6  C   UNL     1       1.570   2.060  20.559  0.00  0.00    +0.000 C 
ATOM      7  C   UNL     1       0.794   3.217  19.933  0.00  0.00    +0.000 C 
ATOM      8  C   UNL     1       1.862   4.116  19.301  0.00  0.00    +0.000 C 
ATOM      9  H   UNL     1       3.568   5.417  18.198  0.00  0.00    +0.000 HD
ENDROOT
BRANCH   1  13
ATOM     10  C   UNL     1       8.032   8.227  17.582  0.00  0.00    +0.000 C 
ATOM     11  C   UNL     1       7.279   6.981  17.224  0.00  0.00    +0.000 A 
ATOM     12  C   UNL     1       6.212   6.550  18.006  0.00  0.00    +0.000 A 
ATOM     13  C   UNL     1       5.530   5.399  17.631  0.00  0.00    +0.000 A 
ATOM     14  C   UNL     1       5.955   4.698  16.504  0.00  0.00    +0.000 A 
ATOM     15  C   UNL     1       7.027   5.197  15.784  0.00  0.00    +0.000 A 
ATOM     16  N   UNL     1       7.695   6.317  16.118  0.00  0.00    +0.000 NA
ENDBRANCH   1  13
BRANCH   8  17
ATOM     17  C   UNL     1       1.738   5.544  19.716  0.00  0.00    +0.000 A 
ATOM     18  N   UNL     1       1.691   6.605  18.938  0.00  0.00    +0.000 NA
ATOM     19  C   UNL     1       1.689   7.665  19.827  0.00  0.00    +0.000 A 
ATOM     20  N   UNL     1       1.770   7.288  21.111  0.00  0.00    +0.000 NA
ATOM     21  N   UNL     1       1.826   5.958  21.015  0.00  0.00    +0.000 N 
ATOM     22  H   UNL     1       1.959   5.402  21.852  0.00  0.00    +0.000 HD
BRANCH  19  23
ATOM     23  C   UNL     1       1.603   9.056  19.395  0.00  0.00    +0.000 A 
ATOM     24  C   UNL     1       0.923  10.001  20.176  0.00  0.00    +0.000 A 
ATOM     25  C   UNL     1       0.860  11.336  19.775  0.00  0.00    +0.000 A 
ATOM     26  C   UNL     1       1.473  11.742  18.588  0.00  0.00    +0.000 A 
ATOM     27  C   UNL     1       2.149  10.810  17.799  0.00  0.00    +0.000 A 
ATOM     28  C   UNL     1       2.211   9.473  18.201  0.00  0.00    +0.000 A 
ENDBRANCH  19  23
ENDBRANCH   8  17
TORSDOF 3
ENDMDL
MODEL 5
REMARK VINA RESULT:      -8.5      1.210      1.962
REMARK  Name = 
REMARK  4 active torsions:
REMARK  status: ('A' for Active; 'I' for Inactive)
REMARK    1  A    between atoms: C_1  and  C_2
REMARK    2  A    between atoms: C_4  and  N_5
REMARK    3  A    between atoms: C_12  and  C_13
REMARK    4  A    between atoms: C_15  and  C_16
REMARK                            x       y       z     vdW  Elec       q    Type
REMARK                         _______ _______ _______ _____ _____    ______ ____
ROOT
ATOM      1  N   UNL     1       4.257   4.770  18.284  0.00  0.00    +0.000 N 
ATOM      2  C   UNL     1       4.320   3.858  19.315  0.00  0.00    +0.000 C 
ATOM      3  O   UNL     1       5.340   3.299  19.706  0.00  0.00    +0.000 OA
ATOM      4  N   UNL     1       3.104   3.612  19.937  0.00  0.00    +0.000 N 
ATOM      5  C   UNL     1       2.995   2.713  21.069  0.00  0.00    +0.000 C 
ATOM      6  C   UNL     1       1.588   2.153  20.950  0.00  0.00    +0.000 C 
ATOM      7  C   UNL     1       0.777   3.293  20.336  0.00  0.00    +0.000 C 
ATOM      8  C   UNL     1       1.796   4.127  19.552  0.00  0.00    +0.000 C 
ATOM      9  H   UNL     1       3.412   5.320  18.215  0.00  0.00    +0.000 HD
ENDROOT
BRANCH   1  13
ATOM     10  C   UNL     1       6.938   4.765  14.086  0.00  0.00    +0.000 C 
ATOM     11  C   UNL     1       6.637   5.251  15.472  0.00  0.00    +0.000 A 
ATOM     12  C   UNL     1       5.542   4.754  16.174  0.00  0.00    +0.000 A 
ATOM     13  C   UNL     1       5.308   5.219  17.463  0.00  0.00    +0.000 A 
ATOM     14  C   UNL     1       6.157   6.187  17.997  0.00  0.00    +0.000 A 
ATOM     15  C   UNL     1       7.221   6.626  17.230  0.00  0.00    +0.000 A 
ATOM     16  N   UNL     1       7.478   6.182  15.984  0.00  0.00    +0.000 NA
ENDBRANCH   1  13
BRANCH   8  17
ATOM     17  C   UNL     1       1.743   5.579  19.893  0.00  0.00    +0.000 A 
ATOM     18  N   UNL     1       1.661   6.596  19.061  0.00  0.00    +0.000 NA
ATOM     19  C   UNL     1       1.757   7.704  19.885  0.00  0.00    +0.000 A 
ATOM     20  N   UNL     1       1.931   7.396  21.179  0.00  0.00    +0.000 NA
ATOM     21  N   UNL     1       1.945   6.061  21.155  0.00  0.00    +0.000 N 
ATOM     22  H   UNL     1       2.130   5.549  22.009  0.00  0.00    +0.000 HD
BRANCH  19  23
ATOM     23  C   UNL     1       1.673   9.070  19.382  0.00  0.00    +0.000 A 
ATOM     24  C   UNL     1       1.035  10.065  20.135  0.00  0.00    +0.000 A 
ATOM     25  C   UNL     1       0.973  11.378  19.665  0.00  0.00    +0.000 A 
ATOM     26  C   UNL     1       1.547  11.711  18.437  0.00  0.00    +0.000 A 
ATOM     27  C   UNL     1       2.180  10.728  17.675  0.00  0.00    +0.000 A 
ATOM     28  C   UNL     1       2.240   9.414  18.146  0.00  0.00    +0.000 A 
ENDBRANCH  19  23
ENDBRANCH   8  17
TORSDOF 3
ENDMDL
MODEL 6
REMARK VINA RESULT:      -8.5      0.485      1.371
REMARK  Name = 
REMARK  4 active torsions:
REMARK  status: ('A' for Active; 'I' for Inactive)
REMARK    1  A    between atoms: C_1  and  C_2
REMARK    2  A    between atoms: C_4  and  N_5
REMARK    3  A    between atoms: C_12  and  C_13
REMARK    4  A    between atoms: C_15  and  C_16
REMARK                            x       y       z     vdW  Elec       q    Type
REMARK                         _______ _______ _______ _____ _____    ______ ____
ROOT
ATOM      1  N   UNL     1       4.327   4.874  18.453  0.00  0.00    +0.000 N 
ATOM      2  C   UNL     1       4.296   4.014  19.530  0.00  0.00    +0.000 C 
ATOM      3  O   UNL     1       5.272   3.451  20.016  0.00  0.00    +0.000 OA
ATOM      4  N   UNL     1       3.035   3.829  20.079  0.00  0.00    +0.000 N 
ATOM      5  C   UNL     1       2.826   2.992  21.244  0.00  0.00    +0.000 C 
ATOM      6  C   UNL     1       1.415   2.461  21.057  0.00  0.00    +0.000 C 
ATOM      7  C   UNL     1       0.679   3.587  20.334  0.00  0.00    +0.000 C 
ATOM      8  C   UNL     1       1.770   4.355  19.581  0.00  0.00    +0.000 C 
ATOM      9  H   UNL     1       3.504   5.440  18.300  0.00  0.00    +0.000 HD
ENDROOT
BRANCH   1  13
ATOM     10  C   UNL     1       8.084   7.922  17.267  0.00  0.00    +0.000 C 
ATOM     11  C   UNL     1       7.256   6.689  17.064  0.00  0.00    +0.000 A 
ATOM     12  C   UNL     1       6.194   6.400  17.917  0.00  0.00    +0.000 A 
ATOM     13  C   UNL     1       5.442   5.255  17.684  0.00  0.00    +0.000 A 
ATOM     14  C   UNL     1       5.793   4.419  16.626  0.00  0.00    +0.000 A 
ATOM     15  C   UNL     1       6.864   4.780  15.828  0.00  0.00    +0.000 A 
ATOM     16  N   UNL     1       7.601   5.891  16.023  0.00  0.00    +0.000 NA
ENDBRANCH   1  13
BRANCH   8  17
ATOM     17  C   UNL     1       1.734   5.824  19.846  0.00  0.00    +0.000 A 
ATOM     18  N   UNL     1       0.971   6.466  20.706  0.00  0.00    +0.000 NA
ATOM     19  C   UNL     1       1.258   7.799  20.469  0.00  0.00    +0.000 A 
ATOM     20  N   UNL     1       2.135   7.990  19.473  0.00  0.00    +0.000 NA
ATOM     21  N   UNL     1       2.399   6.740  19.083  0.00  0.00    +0.000 N 
ATOM     22  H   UNL     1       3.000   6.584  18.282  0.00  0.00    +0.000 HD
BRANCH  19  23
ATOM     23  C   UNL     1       0.656   8.883  21.237  0.00  0.00    +0.000 A 
ATOM     24  C   UNL     1       0.658  10.193  20.736  0.00  0.00    +0.000 A 
ATOM     25  C   UNL     1       0.063  11.227  21.460  0.00  0.00    +0.000 A 
ATOM     26  C   UNL     1      -0.539  10.965  22.692  0.00  0.00    +0.000 A 
ATOM     27  C   UNL     1      -0.543   9.667  23.203  0.00  0.00    +0.000 A 
ATOM     28  C   UNL     1       0.054   8.632  22.479  0.00  0.00    +0.000 A 
ENDBRANCH  19  23
ENDBRANCH   8  17
TORSDOF 3
ENDMDL
MODEL 7
REMARK VINA RESULT:      -8.5      1.783      7.696
REMARK  Name = 
REMARK  4 active torsions:
REMARK  status: ('A' for Active; 'I' for Inactive)
REMARK    1  A    between atoms: C_1  and  C_2
REMARK    2  A    between atoms: C_4  and  N_5
REMARK    3  A    between atoms: C_12  and  C_13
REMARK    4  A    between atoms: C_15  and  C_16
REMARK                            x       y       z     vdW  Elec       q    Type
REMARK                         _______ _______ _______ _____ _____    ______ ____
ROOT
ATOM      1  N   UNL     1       2.822   6.511  19.222  0.00  0.00    +0.000 N 
ATOM      2  C   UNL     1       2.318   5.241  19.405  0.00  0.00    +0.000 C 
ATOM      3  O   UNL     1       1.137   4.968  19.595  0.00  0.00    +0.000 OA
ATOM      4  N   UNL     1       3.267   4.232  19.333  0.00  0.00    +0.000 N 
ATOM      5  C   UNL     1       2.905   2.834  19.458  0.00  0.00    +0.000 C 
ATOM      6  C   UNL     1       4.141   2.194  20.068  0.00  0.00    +0.000 C 
ATOM      7  C   UNL     1       5.305   3.010  19.506  0.00  0.00    +0.000 C 
ATOM      8  C   UNL     1       4.710   4.386  19.191  0.00  0.00    +0.000 C 
ATOM      9  H   UNL     1       3.760   6.577  18.851  0.00  0.00    +0.000 HD
ENDROOT
BRANCH   1  13
ATOM     10  C   UNL     1       0.116  10.045  21.455  0.00  0.00    +0.000 C 
ATOM     11  C   UNL     1       0.810   9.454  20.265  0.00  0.00    +0.000 A 
ATOM     12  C   UNL     1       1.505   8.253  20.376  0.00  0.00    +0.000 A 
ATOM     13  C   UNL     1       2.121   7.730  19.245  0.00  0.00    +0.000 A 
ATOM     14  C   UNL     1       2.049   8.439  18.047  0.00  0.00    +0.000 A 
ATOM     15  C   UNL     1       1.338   9.626  18.026  0.00  0.00    +0.000 A 
ATOM     16  N   UNL     1       0.720  10.147  19.104  0.00  0.00    +0.000 NA
ENDBRANCH   1  13
BRANCH   8  17
ATOM     17  C   UNL     1       5.001   4.839  17.799  0.00  0.00    +0.000 A 
ATOM     18  N   UNL     1       5.441   4.112  16.794  0.00  0.00    +0.000 NA
ATOM     19  C   UNL     1       5.643   5.035  15.783  0.00  0.00    +0.000 A 
ATOM     20  N   UNL     1       5.377   6.298  16.150  0.00  0.00    +0.000 NA
ATOM     21  N   UNL     1       5.002   6.152  17.423  0.00  0.00    +0.000 N 
ATOM     22  H   UNL     1       4.800   6.973  17.981  0.00  0.00    +0.000 HD
BRANCH  19  23
ATOM     23  C   UNL     1       6.099   4.658  14.450  0.00  0.00    +0.000 A 
ATOM     24  C   UNL     1       7.297   5.176  13.937  0.00  0.00    +0.000 A 
ATOM     25  C   UNL     1       7.746   4.798  12.671  0.00  0.00    +0.000 A 
ATOM     26  C   UNL     1       7.003   3.901  11.903  0.00  0.00    +0.000 A 
ATOM     27  C   UNL     1       5.807   3.382  12.399  0.00  0.00    +0.000 A 
ATOM     28  C   UNL     1       5.357   3.761  13.667  0.00  0.00    +0.000 A 
ENDBRANCH  19  23
ENDBRANCH   8  17
TORSDOF 3
ENDMDL
MODEL 8
REMARK VINA RESULT:      -8.2      2.279      6.436
REMARK  Name = 
REMARK  4 active torsions:
REMARK  status: ('A' for Active; 'I' for Inactive)
REMARK    1  A    between atoms: C_1  and  C_2
REMARK    2  A    between atoms: C_4  and  N_5
REMARK    3  A    between atoms: C_12  and  C_13
REMARK    4  A    between atoms: C_15  and  C_16
REMARK                            x       y       z     vdW  Elec       q    Type
REMARK                         _______ _______ _______ _____ _____    ______ ____
ROOT
ATOM      1  N   UNL     1       2.832   5.989  19.136  0.00  0.00    +0.000 N 
ATOM      2  C   UNL     1       2.397   4.917  18.387  0.00  0.00    +0.000 C 
ATOM      3  O   UNL     1       1.423   4.923  17.639  0.00  0.00    +0.000 OA
ATOM      4  N   UNL     1       3.177   3.776  18.511  0.00  0.00    +0.000 N 
ATOM      5  C   UNL     1       2.890   2.571  17.760  0.00  0.00    +0.000 C 
ATOM      6  C   UNL     1       3.391   1.456  18.661  0.00  0.00    +0.000 C 
ATOM      7  C   UNL     1       4.584   2.069  19.393  0.00  0.00    +0.000 C 
ATOM      8  C   UNL     1       4.311   3.576  19.404  0.00  0.00    +0.000 C 
ATOM      9  H   UNL     1       3.763   5.923  19.524  0.00  0.00    +0.000 HD
ENDROOT
BRANCH   1  13
ATOM     10  C   UNL     1       0.393   9.607  21.537  0.00  0.00    +0.000 C 
ATOM     11  C   UNL     1       1.078   9.037  20.331  0.00  0.00    +0.000 A 
ATOM     12  C   UNL     1       1.644   7.766  20.373  0.00  0.00    +0.000 A 
ATOM     13  C   UNL     1       2.255   7.269  19.229  0.00  0.00    +0.000 A 
ATOM     14  C   UNL     1       2.309   8.069  18.088  0.00  0.00    +0.000 A 
ATOM     15  C   UNL     1       1.722   9.321  18.134  0.00  0.00    +0.000 A 
ATOM     16  N   UNL     1       1.111   9.821  19.225  0.00  0.00    +0.000 NA
ENDBRANCH   1  13
BRANCH   8  17
ATOM     17  C   UNL     1       5.461   4.378  18.893  0.00  0.00    +0.000 A 
ATOM     18  N   UNL     1       5.697   5.659  19.088  0.00  0.00    +0.000 NA
ATOM     19  C   UNL     1       6.815   5.910  18.312  0.00  0.00    +0.000 A 
ATOM     20  N   UNL     1       7.242   4.840  17.626  0.00  0.00    +0.000 NA
ATOM     21  N   UNL     1       6.364   3.901  17.986  0.00  0.00    +0.000 N 
ATOM     22  H   UNL     1       6.411   2.983  17.558  0.00  0.00    +0.000 HD
BRANCH  19  23
ATOM     23  C   UNL     1       7.458   7.218  18.256  0.00  0.00    +0.000 A 
ATOM     24  C   UNL     1       7.026   8.182  17.335  0.00  0.00    +0.000 A 
ATOM     25  C   UNL     1       7.626   9.442  17.296  0.00  0.00    +0.000 A 
ATOM     26  C   UNL     1       8.665   9.751  18.175  0.00  0.00    +0.000 A 
ATOM     27  C   UNL     1       9.108   8.798  19.092  0.00  0.00    +0.000 A 
ATOM     28  C   UNL     1       8.508   7.537  19.130  0.00  0.00    +0.000 A 
ENDBRANCH  19  23
ENDBRANCH   8  17
TORSDOF 3
ENDMDL
MODEL 9
REMARK VINA RESULT:      -8.1      5.470      9.610
REMARK  Name = 
REMARK  4 active torsions:
REMARK  status: ('A' for Active; 'I' for Inactive)
REMARK    1  A    between atoms: C_1  and  C_2
REMARK    2  A    between atoms: C_4  and  N_5
REMARK    3  A    between atoms: C_12  and  C_13
REMARK    4  A    between atoms: C_15  and  C_16
REMARK                            x       y       z     vdW  Elec       q    Type
REMARK                         _______ _______ _______ _____ _____    ______ ____
ROOT
ATOM      1  N   UNL     1      -3.183  12.296  20.023  0.00  0.00    +0.000 N 
ATOM      2  C   UNL     1      -3.864  12.451  21.212  0.00  0.00    +0.000 C 
ATOM      3  O   UNL     1      -5.067  12.263  21.369  0.00  0.00    +0.000 OA
ATOM      4  N   UNL     1      -3.067  12.825  22.284  0.00  0.00    +0.000 N 
ATOM      5  C   UNL     1      -3.611  12.989  23.618  0.00  0.00    +0.000 C 
ATOM      6  C   UNL     1      -2.722  14.051  24.241  0.00  0.00    +0.000 C 
ATOM      7  C   UNL     1      -1.352  13.821  23.604  0.00  0.00    +0.000 C 
ATOM      8  C   UNL     1      -1.649  13.160  22.254  0.00  0.00    +0.000 C 
ATOM      9  H   UNL     1      -2.175  12.257  20.079  0.00  0.00    +0.000 HD
ENDROOT
BRANCH   1  13
ATOM     10  C   UNL     1      -2.847  10.338  15.456  0.00  0.00    +0.000 C 
ATOM     11  C   UNL     1      -3.600  11.016  16.561  0.00  0.00    +0.000 A 
ATOM     12  C   UNL     1      -2.979  11.290  17.776  0.00  0.00    +0.000 A 
ATOM     13  C   UNL     1      -3.708  11.934  18.768  0.00  0.00    +0.000 A 
ATOM     14  C   UNL     1      -5.042  12.256  18.527  0.00  0.00    +0.000 A 
ATOM     15  C   UNL     1      -5.581  11.946  17.290  0.00  0.00    +0.000 A 
ATOM     16  N   UNL     1      -4.893  11.335  16.307  0.00  0.00    +0.000 NA
ENDBRANCH   1  13
BRANCH   8  17
ATOM     17  C   UNL     1      -0.872  11.903  22.040  0.00  0.00    +0.000 A 
ATOM     18  N   UNL     1      -0.343  11.468  20.916  0.00  0.00    +0.000 NA
ATOM     19  C   UNL     1       0.158  10.222  21.249  0.00  0.00    +0.000 A 
ATOM     20  N   UNL     1      -0.080   9.870  22.521  0.00  0.00    +0.000 NA
ATOM     21  N   UNL     1      -0.748  10.928  22.988  0.00  0.00    +0.000 N 
ATOM     22  H   UNL     1      -1.118  10.907  23.931  0.00  0.00    +0.000 HD
BRANCH  19  23
ATOM     23  C   UNL     1       0.878   9.382  20.298  0.00  0.00    +0.000 A 
ATOM     24  C   UNL     1       1.004   9.775  18.958  0.00  0.00    +0.000 A 
ATOM     25  C   UNL     1       1.711   8.984  18.052  0.00  0.00    +0.000 A 
ATOM     26  C   UNL     1       2.298   7.790  18.473  0.00  0.00    +0.000 A 
ATOM     27  C   UNL     1       2.175   7.384  19.803  0.00  0.00    +0.000 A 
ATOM     28  C   UNL     1       1.466   8.177  20.709  0.00  0.00    +0.000 A 
ENDBRANCH  19  23
ENDBRANCH   8  17
TORSDOF 3
ENDMDL
