MODEL 1
REMARK VINA RESULT:     -10.0      0.000      0.000
REMARK  Name = 
REMARK  6 active torsions:
REMARK  status: ('A' for Active; 'I' for Inactive)
REMARK    1  A    between atoms: C_1  and  N_2
REMARK    2  A    between atoms: C_6  and  C_7
REMARK    3  A    between atoms: C_7  and  C_8
REMARK    4  A    between atoms: C_8  and  C_9
REMARK    5  A    between atoms: C_11  and  N_12
REMARK    6  A    between atoms: C_19  and  C_20
REMARK                            x       y       z     vdW  Elec       q    Type
REMARK                         _______ _______ _______ _____ _____    ______ ____
ROOT
ATOM      1  C   UNL     1       4.314   5.308  17.203  0.00  0.00    +0.000 C 
ATOM      2  C   UNL     1       3.825   6.172  18.112  0.00  0.00    +0.000 C 
ATOM      3  C   UNL     1       2.866   6.127  19.205  0.00  0.00    +0.000 C 
ATOM      4  C   UNL     1       2.619   5.056  19.979  0.00  0.00    +0.000 C 
ATOM      5  C   UNL     1       3.169   3.678  19.834  0.00  0.00    +0.000 C 
ATOM      6  N   UNL     1       2.443   2.903  18.840  0.00  0.00    +0.000 NA
ATOM      7  C   UNL     1       2.670   3.300  17.448  0.00  0.00    +0.000 C 
ATOM      8  C   UNL     1       4.066   3.817  17.073  0.00  0.00    +0.000 C 
ATOM      9  H   UNL     1       1.442   2.959  19.025  0.00  0.00    +0.000 HD
ENDROOT
BRANCH   3  10
ATOM     10  N   UNL     1       2.195   7.334  19.430  0.00  0.00    +0.000 N 
ATOM     11  C   UNL     1       1.509   7.691  20.672  0.00  0.00    +0.000 C 
ATOM     12  C   UNL     1       0.974   9.066  20.398  0.00  0.00    +0.000 A 
ATOM     13  C   UNL     1       1.305   9.438  19.099  0.00  0.00    +0.000 A 
ATOM     14  C   UNL     1       0.924  10.632  18.517  0.00  0.00    +0.000 A 
ATOM     15  C   UNL     1       0.168  11.504  19.288  0.00  0.00    +0.000 A 
ATOM     16  C   UNL     1      -0.164  11.163  20.612  0.00  0.00    +0.000 A 
ATOM     17  C   UNL     1       0.239   9.939  21.192  0.00  0.00    +0.000 A 
ATOM     18  C   UNL     1       2.094   8.369  18.488  0.00  0.00    +0.000 C 
ATOM     19  O   UNL     1       2.518   8.476  17.352  0.00  0.00    +0.000 OA
BRANCH  17  20
ATOM     20  C   UNL     1      -0.132   9.636  22.619  0.00  0.00    +0.000 C 
ATOM     21  F   UNL     1      -0.946   8.553  22.752  0.00  0.00    +0.000 F 
ATOM     22  F   UNL     1       0.959   9.378  23.391  0.00  0.00    +0.000 F 
ATOM     23  F   UNL     1      -0.782  10.669  23.218  0.00  0.00    +0.000 F 
ENDBRANCH  17  20
ENDBRANCH   3  10
BRANCH   1  24
ATOM     24  C   UNL     1       5.119   5.917  16.044  0.00  0.00    +0.000 C 
BRANCH  24  25
ATOM     25  C   UNL     1       6.596   5.511  15.967  0.00  0.00    +0.000 C 
BRANCH  25  31
ATOM     26  C   UNL     1       7.556   8.068  17.514  0.00  0.00    +0.000 C 
ATOM     27  N   UNL     1       7.642   6.705  17.962  0.00  0.00    +0.000 N 
ATOM     28  C   UNL     1       8.140   6.294  19.162  0.00  0.00    +0.000 A 
ATOM     29  N   UNL     1       8.084   4.986  19.236  0.00  0.00    +0.000 NA
ATOM     30  N   UNL     1       7.524   4.527  18.069  0.00  0.00    +0.000 NA
ATOM     31  C   UNL     1       7.248   5.565  17.306  0.00  0.00    +0.000 A 
ENDBRANCH  25  31
ENDBRANCH  24  25
ENDBRANCH   1  24
TORSDOF 5
ENDMDL
MODEL 2
REMARK VINA RESULT:      -9.9      1.800      2.481
REMARK  Name = 
REMARK  6 active torsions:
REMARK  status: ('A' for Active; 'I' for Inactive)
REMARK    1  A    between atoms: C_1  and  N_2
REMARK    2  A    between atoms: C_6  and  C_7
REMARK    3  A    between atoms: C_7  and  C_8
REMARK    4  A    between atoms: C_8  and  C_9
REMARK    5  A    between atoms: C_11  and  N_12
REMARK    6  A    between atoms: C_19  and  C_20
REMARK                            x       y       z     vdW  Elec       q    Type
REMARK                         _______ _______ _______ _____ _____    ______ ____
ROOT
ATOM      1  C   UNL     1       4.101   4.628  17.542  0.00  0.00    +0.000 C 
ATOM      2  C   UNL     1       3.705   5.607  18.376  0.00  0.00    +0.000 C 
ATOM      3  C   UNL     1       2.774   5.737  19.487  0.00  0.00    +0.000 C 
ATOM      4  C   UNL     1       2.466   4.764  20.362  0.00  0.00    +0.000 C 
ATOM      5  C   UNL     1       2.903   3.338  20.333  0.00  0.00    +0.000 C 
ATOM      6  N   UNL     1       2.092   2.537  19.429  0.00  0.00    +0.000 NA
ATOM      7  C   UNL     1       2.313   2.788  18.002  0.00  0.00    +0.000 C 
ATOM      8  C   UNL     1       3.734   3.156  17.554  0.00  0.00    +0.000 C 
ATOM      9  H   UNL     1       1.104   2.689  19.627  0.00  0.00    +0.000 HD
ENDROOT
BRANCH   3  10
ATOM     10  N   UNL     1       2.206   7.009  19.613  0.00  0.00    +0.000 N 
ATOM     11  C   UNL     1       1.471   7.485  20.785  0.00  0.00    +0.000 C 
ATOM     12  C   UNL     1       1.088   8.888  20.417  0.00  0.00    +0.000 A 
ATOM     13  C   UNL     1       1.542   9.168  19.133  0.00  0.00    +0.000 A 
ATOM     14  C   UNL     1       1.317  10.363  18.477  0.00  0.00    +0.000 A 
ATOM     15  C   UNL     1       0.595  11.334  19.154  0.00  0.00    +0.000 A 
ATOM     16  C   UNL     1       0.140  11.088  20.463  0.00  0.00    +0.000 A 
ATOM     17  C   UNL     1       0.385   9.860  21.120  0.00  0.00    +0.000 A 
ATOM     18  C   UNL     1       2.269   8.004  18.626  0.00  0.00    +0.000 C 
ATOM     19  O   UNL     1       2.779   8.019  17.521  0.00  0.00    +0.000 OA
BRANCH  17  20
ATOM     20  C   UNL     1      -0.113   9.659  22.526  0.00  0.00    +0.000 C 
ATOM     21  F   UNL     1      -0.960   8.602  22.659  0.00  0.00    +0.000 F 
ATOM     22  F   UNL     1       0.903   9.436  23.404  0.00  0.00    +0.000 F 
ATOM     23  F   UNL     1      -0.788  10.741  22.999  0.00  0.00    +0.000 F 
ENDBRANCH  17  20
ENDBRANCH   3  10
BRANCH   1  24
ATOM     24  C   UNL     1       4.919   5.064  16.316  0.00  0.00    +0.000 C 
BRANCH  24  25
ATOM     25  C   UNL     1       5.659   3.945  15.571  0.00  0.00    +0.000 C 
BRANCH  25  31
ATOM     26  C   UNL     1       5.780   3.361  12.489  0.00  0.00    +0.000 C 
ATOM     27  N   UNL     1       6.646   4.232  13.237  0.00  0.00    +0.000 N 
ATOM     28  C   UNL     1       7.661   4.978  12.719  0.00  0.00    +0.000 A 
ATOM     29  N   UNL     1       8.253   5.641  13.682  0.00  0.00    +0.000 NA
ATOM     30  N   UNL     1       7.607   5.338  14.855  0.00  0.00    +0.000 NA
ATOM     31  C   UNL     1       6.630   4.497  14.584  0.00  0.00    +0.000 A 
ENDBRANCH  25  31
ENDBRANCH  24  25
ENDBRANCH   1  24
TORSDOF 5
ENDMDL
MODEL 3
REMARK VINA RESULT:      -9.7      0.963      1.555
REMARK  Name = 
REMARK  6 active torsions:
REMARK  status: ('A' for Active; 'I' for Inactive)
REMARK    1  A    between atoms: C_1  and  N_2
REMARK    2  A    between atoms: C_6  and  C_7
REMARK    3  A    between atoms: C_7  and  C_8
REMARK    4  A    between atoms: C_8  and  C_9
REMARK    5  A    between atoms: C_11  and  N_12
REMARK    6  A    between atoms: C_19  and  C_20
REMARK                            x       y       z     vdW  Elec       q    Type
REMARK                         _______ _______ _______ _____ _____    ______ ____
ROOT
ATOM      1  C   UNL     1       4.171   4.123  17.919  0.00  0.00    +0.000 C 
ATOM      2  C   UNL     1       3.769   5.160  18.676  0.00  0.00    +0.000 C 
ATOM      3  C   UNL     1       2.771   5.392  19.709  0.00  0.00    +0.000 C 
ATOM      4  C   UNL     1       2.351   4.480  20.603  0.00  0.00    +0.000 C 
ATOM      5  C   UNL     1       2.714   3.035  20.673  0.00  0.00    +0.000 C 
ATOM      6  N   UNL     1       1.928   2.230  19.751  0.00  0.00    +0.000 NA
ATOM      7  C   UNL     1       2.261   2.398  18.333  0.00  0.00    +0.000 C 
ATOM      8  C   UNL     1       3.727   2.673  17.973  0.00  0.00    +0.000 C 
ATOM      9  H   UNL     1       0.937   2.441  19.869  0.00  0.00    +0.000 HD
ENDROOT
BRANCH   3  10
ATOM     10  N   UNL     1       2.263   6.695  19.733  0.00  0.00    +0.000 N 
ATOM     11  C   UNL     1       1.529   7.285  20.853  0.00  0.00    +0.000 C 
ATOM     12  C   UNL     1       1.222   8.676  20.381  0.00  0.00    +0.000 A 
ATOM     13  C   UNL     1       1.714   8.843  19.090  0.00  0.00    +0.000 A 
ATOM     14  C   UNL     1       1.560   9.999  18.348  0.00  0.00    +0.000 A 
ATOM     15  C   UNL     1       0.873  11.048  18.941  0.00  0.00    +0.000 A 
ATOM     16  C   UNL     1       0.381  10.915  20.252  0.00  0.00    +0.000 A 
ATOM     17  C   UNL     1       0.553   9.727  20.998  0.00  0.00    +0.000 A 
ATOM     18  C   UNL     1       2.393   7.614  18.682  0.00  0.00    +0.000 C 
ATOM     19  O   UNL     1       2.925   7.527  17.591  0.00  0.00    +0.000 OA
BRANCH  17  20
ATOM     20  C   UNL     1       0.019   9.649  22.403  0.00  0.00    +0.000 C 
ATOM     21  F   UNL     1       0.977   9.398  23.337  0.00  0.00    +0.000 F 
ATOM     22  F   UNL     1      -0.585  10.805  22.789  0.00  0.00    +0.000 F 
ATOM     23  F   UNL     1      -0.913   8.669  22.552  0.00  0.00    +0.000 F 
ENDBRANCH  17  20
ENDBRANCH   3  10
BRANCH   1  24
ATOM     24  C   UNL     1       5.095   4.456  16.737  0.00  0.00    +0.000 C 
BRANCH  24  25
ATOM     25  C   UNL     1       6.598   4.476  17.046  0.00  0.00    +0.000 C 
BRANCH  25  31
ATOM     26  C   UNL     1       7.990   5.493  19.669  0.00  0.00    +0.000 C 
ATOM     27  N   UNL     1       7.696   6.266  18.492  0.00  0.00    +0.000 N 
ATOM     28  C   UNL     1       8.000   7.581  18.310  0.00  0.00    +0.000 A 
ATOM     29  N   UNL     1       7.575   7.971  17.133  0.00  0.00    +0.000 NA
ATOM     30  N   UNL     1       6.992   6.888  16.521  0.00  0.00    +0.000 NA
ATOM     31  C   UNL     1       7.076   5.857  17.338  0.00  0.00    +0.000 A 
ENDBRANCH  25  31
ENDBRANCH  24  25
ENDBRANCH   1  24
TORSDOF 5
ENDMDL
MODEL 4
REMARK VINA RESULT:      -9.6      1.200      1.931
REMARK  Name = 
REMARK  6 active torsions:
REMARK  status: ('A' for Active; 'I' for Inactive)
REMARK    1  A    between atoms: C_1  and  N_2
REMARK    2  A    between atoms: C_6  and  C_7
REMARK    3  A    between atoms: C_7  and  C_8
REMARK    4  A    between atoms: C_8  and  C_9
REMARK    5  A    between atoms: C_11  and  N_12
REMARK    6  A    between atoms: C_19  and  C_20
REMARK                            x       y       z     vdW  Elec       q    Type
REMARK                         _______ _______ _______ _____ _____    ______ ____
ROOT
ATOM      1  C   UNL     1       4.776   4.724  19.090  0.00  0.00    +0.000 C 
ATOM      2  C   UNL     1       3.836   5.530  19.617  0.00  0.00    +0.000 C 
ATOM      3  C   UNL     1       2.395   5.688  19.503  0.00  0.00    +0.000 C 
ATOM      4  C   UNL     1       1.518   4.696  19.269  0.00  0.00    +0.000 C 
ATOM      5  C   UNL     1       1.818   3.266  18.969  0.00  0.00    +0.000 C 
ATOM      6  N   UNL     1       2.152   3.061  17.569  0.00  0.00    +0.000 NA
ATOM      7  C   UNL     1       3.460   3.575  17.155  0.00  0.00    +0.000 C 
ATOM      8  C   UNL     1       4.602   3.524  18.178  0.00  0.00    +0.000 C 
ATOM      9  H   UNL     1       1.441   3.494  16.979  0.00  0.00    +0.000 HD
ENDROOT
BRANCH   3  10
ATOM     10  N   UNL     1       1.946   7.001  19.684  0.00  0.00    +0.000 N 
ATOM     11  C   UNL     1       1.274   7.498  20.885  0.00  0.00    +0.000 C 
ATOM     12  C   UNL     1       1.015   8.943  20.573  0.00  0.00    +0.000 A 
ATOM     13  C   UNL     1       1.475   9.227  19.291  0.00  0.00    +0.000 A 
ATOM     14  C   UNL     1       1.350  10.461  18.682  0.00  0.00    +0.000 A 
ATOM     15  C   UNL     1       0.728  11.468  19.406  0.00  0.00    +0.000 A 
ATOM     16  C   UNL     1       0.272  11.216  20.713  0.00  0.00    +0.000 A 
ATOM     17  C   UNL     1       0.413   9.948  21.322  0.00  0.00    +0.000 A 
ATOM     18  C   UNL     1       2.085   8.022  18.732  0.00  0.00    +0.000 C 
ATOM     19  O   UNL     1       2.579   8.031  17.619  0.00  0.00    +0.000 OA
BRANCH  17  20
ATOM     20  C   UNL     1      -0.080   9.742  22.729  0.00  0.00    +0.000 C 
ATOM     21  F   UNL     1      -0.699  10.834  23.255  0.00  0.00    +0.000 F 
ATOM     22  F   UNL     1      -0.981   8.726  22.814  0.00  0.00    +0.000 F 
ATOM     23  F   UNL     1       0.924   9.429  23.591  0.00  0.00    +0.000 F 
ENDBRANCH  17  20
ENDBRANCH   3  10
BRANCH   1  24
ATOM     24  C   UNL     1       6.238   5.143  19.309  0.00  0.00    +0.000 C 
BRANCH  24  25
ATOM     25  C   UNL     1       6.811   6.137  18.289  0.00  0.00    +0.000 C 
BRANCH  25  31
ATOM     26  C   UNL     1       4.980   6.704  15.804  0.00  0.00    +0.000 C 
ATOM     27  N   UNL     1       6.105   5.810  15.861  0.00  0.00    +0.000 N 
ATOM     28  C   UNL     1       6.584   5.070  14.824  0.00  0.00    +0.000 A 
ATOM     29  N   UNL     1       7.607   4.356  15.229  0.00  0.00    +0.000 NA
ATOM     30  N   UNL     1       7.814   4.642  16.556  0.00  0.00    +0.000 NA
ATOM     31  C   UNL     1       6.915   5.528  16.934  0.00  0.00    +0.000 A 
ENDBRANCH  25  31
ENDBRANCH  24  25
ENDBRANCH   1  24
TORSDOF 5
ENDMDL
MODEL 5
REMARK VINA RESULT:      -9.4      0.590      1.338
REMARK  Name = 
REMARK  6 active torsions:
REMARK  status: ('A' for Active; 'I' for Inactive)
REMARK    1  A    between atoms: C_1  and  N_2
REMARK    2  A    between atoms: C_6  and  C_7
REMARK    3  A    between atoms: C_7  and  C_8
REMARK    4  A    between atoms: C_8  and  C_9
REMARK    5  A    between atoms: C_11  and  N_12
REMARK    6  A    between atoms: C_19  and  C_20
REMARK                            x       y       z     vdW  Elec       q    Type
REMARK                         _______ _______ _______ _____ _____    ______ ____
ROOT
ATOM      1  C   UNL     1       4.180   5.394  17.150  0.00  0.00    +0.000 C 
ATOM      2  C   UNL     1       3.724   6.268  18.065  0.00  0.00    +0.000 C 
ATOM      3  C   UNL     1       2.830   6.228  19.212  0.00  0.00    +0.000 C 
ATOM      4  C   UNL     1       2.653   5.171  20.024  0.00  0.00    +0.000 C 
ATOM      5  C   UNL     1       3.227   3.801  19.878  0.00  0.00    +0.000 C 
ATOM      6  N   UNL     1       2.463   2.987  18.946  0.00  0.00    +0.000 NA
ATOM      7  C   UNL     1       2.601   3.356  17.534  0.00  0.00    +0.000 C 
ATOM      8  C   UNL     1       3.960   3.895  17.068  0.00  0.00    +0.000 C 
ATOM      9  H   UNL     1       1.473   3.025  19.187  0.00  0.00    +0.000 HD
ENDROOT
BRANCH   3  10
ATOM     10  N   UNL     1       2.145   7.425  19.448  0.00  0.00    +0.000 N 
ATOM     11  C   UNL     1       1.463   7.765  20.697  0.00  0.00    +0.000 C 
ATOM     12  C   UNL     1       0.908   9.135  20.434  0.00  0.00    +0.000 A 
ATOM     13  C   UNL     1       1.225   9.518  19.135  0.00  0.00    +0.000 A 
ATOM     14  C   UNL     1       0.824  10.711  18.562  0.00  0.00    +0.000 A 
ATOM     15  C   UNL     1       0.063  11.568  19.343  0.00  0.00    +0.000 A 
ATOM     16  C   UNL     1      -0.256  11.216  20.668  0.00  0.00    +0.000 A 
ATOM     17  C   UNL     1       0.167   9.994  21.238  0.00  0.00    +0.000 A 
ATOM     18  C   UNL     1       2.024   8.464  18.514  0.00  0.00    +0.000 C 
ATOM     19  O   UNL     1       2.439   8.582  17.375  0.00  0.00    +0.000 OA
BRANCH  17  20
ATOM     20  C   UNL     1      -0.191   9.678  22.666  0.00  0.00    +0.000 C 
ATOM     21  F   UNL     1       0.891   9.454  23.462  0.00  0.00    +0.000 F 
ATOM     22  F   UNL     1      -0.886  10.687  23.257  0.00  0.00    +0.000 F 
ATOM     23  F   UNL     1      -0.971   8.569  22.774  0.00  0.00    +0.000 F 
ENDBRANCH  17  20
ENDBRANCH   3  10
BRANCH   1  24
ATOM     24  C   UNL     1       4.903   5.993  15.933  0.00  0.00    +0.000 C 
BRANCH  24  25
ATOM     25  C   UNL     1       6.419   5.765  15.873  0.00  0.00    +0.000 C 
BRANCH  25  31
ATOM     26  C   UNL     1       7.612   4.645  18.552  0.00  0.00    +0.000 C 
ATOM     27  N   UNL     1       7.652   6.006  18.092  0.00  0.00    +0.000 N 
ATOM     28  C   UNL     1       8.245   7.046  18.742  0.00  0.00    +0.000 A 
ATOM     29  N   UNL     1       8.078   8.148  18.051  0.00  0.00    +0.000 NA
ATOM     30  N   UNL     1       7.374   7.825  16.917  0.00  0.00    +0.000 NA
ATOM     31  C   UNL     1       7.127   6.531  16.936  0.00  0.00    +0.000 A 
ENDBRANCH  25  31
ENDBRANCH  24  25
ENDBRANCH   1  24
TORSDOF 5
ENDMDL
MODEL 6
REMARK VINA RESULT:      -9.3      1.391      2.232
REMARK  Name = 
REMARK  6 active torsions:
REMARK  status: ('A' for Active; 'I' for Inactive)
REMARK    1  A    between atoms: C_1  and  N_2
REMARK    2  A    between atoms: C_6  and  C_7
REMARK    3  A    between atoms: C_7  and  C_8
REMARK    4  A    between atoms: C_8  and  C_9
REMARK    5  A    between atoms: C_11  and  N_12
REMARK    6  A    between atoms: C_19  and  C_20
REMARK                            x       y       z     vdW  Elec       q    Type
REMARK                         _______ _______ _______ _____ _____    ______ ____
ROOT
ATOM      1  C   UNL     1       4.995   4.652  19.191  0.00  0.00    +0.000 C 
ATOM      2  C   UNL     1       4.070   5.479  19.713  0.00  0.00    +0.000 C 
ATOM      3  C   UNL     1       2.618   5.555  19.746  0.00  0.00    +0.000 C 
ATOM      4  C   UNL     1       1.783   4.501  19.744  0.00  0.00    +0.000 C 
ATOM      5  C   UNL     1       2.134   3.058  19.600  0.00  0.00    +0.000 C 
ATOM      6  N   UNL     1       2.327   2.681  18.208  0.00  0.00    +0.000 NA
ATOM      7  C   UNL     1       3.550   3.193  17.584  0.00  0.00    +0.000 C 
ATOM      8  C   UNL     1       4.797   3.333  18.468  0.00  0.00    +0.000 C 
ATOM      9  H   UNL     1       1.533   2.997  17.653  0.00  0.00    +0.000 HD
ENDROOT
BRANCH   3  10
ATOM     10  N   UNL     1       2.113   6.858  19.805  0.00  0.00    +0.000 N 
ATOM     11  C   UNL     1       1.408   7.431  20.952  0.00  0.00    +0.000 C 
ATOM     12  C   UNL     1       1.092   8.830  20.510  0.00  0.00    +0.000 A 
ATOM     13  C   UNL     1       1.553   9.018  19.211  0.00  0.00    +0.000 A 
ATOM     14  C   UNL     1       1.383  10.186  18.493  0.00  0.00    +0.000 A 
ATOM     15  C   UNL     1       0.713  11.226  19.120  0.00  0.00    +0.000 A 
ATOM     16  C   UNL     1       0.253  11.072  20.440  0.00  0.00    +0.000 A 
ATOM     17  C   UNL     1       0.441   9.871  21.161  0.00  0.00    +0.000 A 
ATOM     18  C   UNL     1       2.219   7.795  18.766  0.00  0.00    +0.000 C 
ATOM     19  O   UNL     1       2.725   7.725  17.661  0.00  0.00    +0.000 OA
BRANCH  17  20
ATOM     20  C   UNL     1      -0.059   9.770  22.578  0.00  0.00    +0.000 C 
ATOM     21  F   UNL     1       0.922   9.510  23.484  0.00  0.00    +0.000 F 
ATOM     22  F   UNL     1      -0.657  10.919  22.996  0.00  0.00    +0.000 F 
ATOM     23  F   UNL     1      -0.984   8.785  22.734  0.00  0.00    +0.000 F 
ENDBRANCH  17  20
ENDBRANCH   3  10
BRANCH   1  24
ATOM     24  C   UNL     1       6.444   5.164  19.184  0.00  0.00    +0.000 C 
BRANCH  24  25
ATOM     25  C   UNL     1       7.200   5.023  17.856  0.00  0.00    +0.000 C 
BRANCH  25  31
ATOM     26  C   UNL     1       6.361   3.630  15.172  0.00  0.00    +0.000 C 
ATOM     27  N   UNL     1       6.071   4.980  15.571  0.00  0.00    +0.000 N 
ATOM     28  C   UNL     1       5.351   5.884  14.849  0.00  0.00    +0.000 A 
ATOM     29  N   UNL     1       5.294   7.020  15.500  0.00  0.00    +0.000 NA
ATOM     30  N   UNL     1       5.977   6.858  16.680  0.00  0.00    +0.000 NA
ATOM     31  C   UNL     1       6.435   5.624  16.728  0.00  0.00    +0.000 A 
ENDBRANCH  25  31
ENDBRANCH  24  25
ENDBRANCH   1  24
TORSDOF 5
ENDMDL
MODEL 7
REMARK VINA RESULT:      -9.2      1.495      2.182
REMARK  Name = 
REMARK  6 active torsions:
REMARK  status: ('A' for Active; 'I' for Inactive)
REMARK    1  A    between atoms: C_1  and  N_2
REMARK    2  A    between atoms: C_6  and  C_7
REMARK    3  A    between atoms: C_7  and  C_8
REMARK    4  A    between atoms: C_8  and  C_9
REMARK    5  A    between atoms: C_11  and  N_12
REMARK    6  A    between atoms: C_19  and  C_20
REMARK                            x       y       z     vdW  Elec       q    Type
REMARK                         _______ _______ _______ _____ _____    ______ ____
ROOT
ATOM      1  C   UNL     1       4.579   4.223  19.199  0.00  0.00    +0.000 C 
ATOM      2  C   UNL     1       3.843   5.195  19.769  0.00  0.00    +0.000 C 
ATOM      3  C   UNL     1       2.467   5.358  20.212  0.00  0.00    +0.000 C 
ATOM      4  C   UNL     1       1.686   4.378  20.700  0.00  0.00    +0.000 C 
ATOM      5  C   UNL     1       1.998   2.922  20.793  0.00  0.00    +0.000 C 
ATOM      6  N   UNL     1       1.768   2.234  19.532  0.00  0.00    +0.000 NA
ATOM      7  C   UNL     1       2.738   2.526  18.472  0.00  0.00    +0.000 C 
ATOM      8  C   UNL     1       4.191   2.789  18.890  0.00  0.00    +0.000 C 
ATOM      9  H   UNL     1       0.838   2.463  19.180  0.00  0.00    +0.000 HD
ENDROOT
BRANCH   3  10
ATOM     10  N   UNL     1       1.984   6.668  20.119  0.00  0.00    +0.000 N 
ATOM     11  C   UNL     1       1.212   7.350  21.157  0.00  0.00    +0.000 C 
ATOM     12  C   UNL     1       0.956   8.708  20.570  0.00  0.00    +0.000 A 
ATOM     13  C   UNL     1       1.510   8.772  19.297  0.00  0.00    +0.000 A 
ATOM     14  C   UNL     1       1.415   9.873  18.467  0.00  0.00    +0.000 A 
ATOM     15  C   UNL     1       0.722  10.974  18.948  0.00  0.00    +0.000 A 
ATOM     16  C   UNL     1       0.167  10.946  20.241  0.00  0.00    +0.000 A 
ATOM     17  C   UNL     1       0.280   9.813  21.077  0.00  0.00    +0.000 A 
ATOM     18  C   UNL     1       2.182   7.505  19.011  0.00  0.00    +0.000 C 
ATOM     19  O   UNL     1       2.763   7.329  17.956  0.00  0.00    +0.000 OA
BRANCH  17  20
ATOM     20  C   UNL     1      -0.320   9.846  22.458  0.00  0.00    +0.000 C 
ATOM     21  F   UNL     1      -1.104   8.769  22.737  0.00  0.00    +0.000 F 
ATOM     22  F   UNL     1       0.630   9.878  23.431  0.00  0.00    +0.000 F 
ATOM     23  F   UNL     1      -1.102  10.941  22.658  0.00  0.00    +0.000 F 
ENDBRANCH  17  20
ENDBRANCH   3  10
BRANCH   1  24
ATOM     24  C   UNL     1       5.951   4.639  18.646  0.00  0.00    +0.000 C 
BRANCH  24  25
ATOM     25  C   UNL     1       5.962   5.877  17.740  0.00  0.00    +0.000 C 
BRANCH  25  31
ATOM     26  C   UNL     1       4.644   4.043  15.559  0.00  0.00    +0.000 C 
ATOM     27  N   UNL     1       5.885   4.761  15.449  0.00  0.00    +0.000 N 
ATOM     28  C   UNL     1       6.694   4.783  14.353  0.00  0.00    +0.000 A 
ATOM     29  N   UNL     1       7.749   5.521  14.600  0.00  0.00    +0.000 NA
ATOM     30  N   UNL     1       7.626   6.006  15.879  0.00  0.00    +0.000 NA
ATOM     31  C   UNL     1       6.496   5.556  16.386  0.00  0.00    +0.000 A 
ENDBRANCH  25  31
ENDBRANCH  24  25
ENDBRANCH   1  24
TORSDOF 5
ENDMDL
MODEL 8
REMARK VINA RESULT:      -9.1      2.224      4.461
REMARK  Name = 
REMARK  6 active torsions:
REMARK  status: ('A' for Active; 'I' for Inactive)
REMARK    1  A    between atoms: C_1  and  N_2
REMARK    2  A    between atoms: C_6  and  C_7
REMARK    3  A    between atoms: C_7  and  C_8
REMARK    4  A    between atoms: C_8  and  C_9
REMARK    5  A    between atoms: C_11  and  N_12
REMARK    6  A    between atoms: C_19  and  C_20
REMARK                            x       y       z     vdW  Elec       q    Type
REMARK                         _______ _______ _______ _____ _____    ______ ____
ROOT
ATOM      1  C   UNL     1       3.246   4.318  17.281  0.00  0.00    +0.000 C 
ATOM      2  C   UNL     1       2.748   5.532  17.578  0.00  0.00    +0.000 C 
ATOM      3  C   UNL     1       3.284   6.832  17.952  0.00  0.00    +0.000 C 
ATOM      4  C   UNL     1       4.465   7.332  17.550  0.00  0.00    +0.000 C 
ATOM      5  C   UNL     1       5.518   6.650  16.743  0.00  0.00    +0.000 C 
ATOM      6  N   UNL     1       6.363   5.794  17.561  0.00  0.00    +0.000 NA
ATOM      7  C   UNL     1       5.727   4.564  18.043  0.00  0.00    +0.000 C 
ATOM      8  C   UNL     1       4.694   3.891  17.130  0.00  0.00    +0.000 C 
ATOM      9  H   UNL     1       6.698   6.315  18.371  0.00  0.00    +0.000 HD
ENDROOT
BRANCH   3  10
ATOM     10  N   UNL     1       2.444   7.581  18.783  0.00  0.00    +0.000 N 
ATOM     11  C   UNL     1       1.832   8.860  18.420  0.00  0.00    +0.000 C 
ATOM     12  C   UNL     1       1.035   9.229  19.636  0.00  0.00    +0.000 A 
ATOM     13  C   UNL     1       1.210   8.255  20.614  0.00  0.00    +0.000 A 
ATOM     14  C   UNL     1       0.645   8.315  21.874  0.00  0.00    +0.000 A 
ATOM     15  C   UNL     1      -0.143   9.419  22.166  0.00  0.00    +0.000 A 
ATOM     16  C   UNL     1      -0.354  10.410  21.190  0.00  0.00    +0.000 A 
ATOM     17  C   UNL     1       0.228  10.329  19.904  0.00  0.00    +0.000 A 
ATOM     18  C   UNL     1       2.072   7.201  20.081  0.00  0.00    +0.000 C 
ATOM     19  O   UNL     1       2.354   6.225  20.752  0.00  0.00    +0.000 OA
BRANCH  17  20
ATOM     20  C   UNL     1      -0.047  11.412  18.895  0.00  0.00    +0.000 C 
ATOM     21  F   UNL     1      -0.729  10.976  17.801  0.00  0.00    +0.000 F 
ATOM     22  F   UNL     1      -0.789  12.425  19.418  0.00  0.00    +0.000 F 
ATOM     23  F   UNL     1       1.093  11.983  18.423  0.00  0.00    +0.000 F 
ENDBRANCH  17  20
ENDBRANCH   3  10
BRANCH   1  24
ATOM     24  C   UNL     1       2.238   3.160  17.226  0.00  0.00    +0.000 C 
BRANCH  24  25
ATOM     25  C   UNL     1       2.506   1.990  18.182  0.00  0.00    +0.000 C 
BRANCH  25  31
ATOM     26  C   UNL     1       4.546   2.103  20.565  0.00  0.00    +0.000 C 
ATOM     27  N   UNL     1       3.144   2.419  20.613  0.00  0.00    +0.000 N 
ATOM     28  C   UNL     1       2.465   2.851  21.712  0.00  0.00    +0.000 A 
ATOM     29  N   UNL     1       1.203   3.029  21.406  0.00  0.00    +0.000 NA
ATOM     30  N   UNL     1       1.050   2.722  20.076  0.00  0.00    +0.000 NA
ATOM     31  C   UNL     1       2.223   2.366  19.596  0.00  0.00    +0.000 A 
ENDBRANCH  25  31
ENDBRANCH  24  25
ENDBRANCH   1  24
TORSDOF 5
ENDMDL
MODEL 9
REMARK VINA RESULT:      -9.1      2.239      4.593
REMARK  Name = 
REMARK  6 active torsions:
REMARK  status: ('A' for Active; 'I' for Inactive)
REMARK    1  A    between atoms: C_1  and  N_2
REMARK    2  A    between atoms: C_6  and  C_7
REMARK    3  A    between atoms: C_7  and  C_8
REMARK    4  A    between atoms: C_8  and  C_9
REMARK    5  A    between atoms: C_11  and  N_12
REMARK    6  A    between atoms: C_19  and  C_20
REMARK                            x       y       z     vdW  Elec       q    Type
REMARK                         _______ _______ _______ _____ _____    ______ ____
ROOT
ATOM      1  C   UNL     1       3.835   4.045  17.231  0.00  0.00    +0.000 C 
ATOM      2  C   UNL     1       3.201   5.205  17.482  0.00  0.00    +0.000 C 
ATOM      3  C   UNL     1       3.580   6.595  17.684  0.00  0.00    +0.000 C 
ATOM      4  C   UNL     1       4.629   7.206  17.109  0.00  0.00    +0.000 C 
ATOM      5  C   UNL     1       5.682   6.596  16.246  0.00  0.00    +0.000 C 
ATOM      6  N   UNL     1       6.719   5.944  17.030  0.00  0.00    +0.000 NA
ATOM      7  C   UNL     1       6.319   4.694  17.682  0.00  0.00    +0.000 C 
ATOM      8  C   UNL     1       5.306   3.802  16.952  0.00  0.00    +0.000 C 
ATOM      9  H   UNL     1       7.057   6.582  17.750  0.00  0.00    +0.000 HD
ENDROOT
BRANCH   3  10
ATOM     10  N   UNL     1       2.729   7.302  18.541  0.00  0.00    +0.000 N 
ATOM     11  C   UNL     1       2.097   8.582  18.221  0.00  0.00    +0.000 C 
ATOM     12  C   UNL     1       1.297   8.898  19.451  0.00  0.00    +0.000 A 
ATOM     13  C   UNL     1       1.490   7.895  20.396  0.00  0.00    +0.000 A 
ATOM     14  C   UNL     1       0.928   7.905  21.658  0.00  0.00    +0.000 A 
ATOM     15  C   UNL     1       0.122   8.985  21.988  0.00  0.00    +0.000 A 
ATOM     16  C   UNL     1      -0.107  10.005  21.046  0.00  0.00    +0.000 A 
ATOM     17  C   UNL     1       0.473   9.975  19.757  0.00  0.00    +0.000 A 
ATOM     18  C   UNL     1       2.367   6.874  19.827  0.00  0.00    +0.000 C 
ATOM     19  O   UNL     1       2.666   5.881  20.464  0.00  0.00    +0.000 OA
BRANCH  17  20
ATOM     20  C   UNL     1       0.178  11.086  18.785  0.00  0.00    +0.000 C 
ATOM     21  F   UNL     1       1.294  11.697  18.301  0.00  0.00    +0.000 F 
ATOM     22  F   UNL     1      -0.509  10.648  17.696  0.00  0.00    +0.000 F 
ATOM     23  F   UNL     1      -0.579  12.073  19.336  0.00  0.00    +0.000 F 
ENDBRANCH  17  20
ENDBRANCH   3  10
BRANCH   1  24
ATOM     24  C   UNL     1       3.002   2.762  17.388  0.00  0.00    +0.000 C 
BRANCH  24  25
ATOM     25  C   UNL     1       3.424   1.824  18.527  0.00  0.00    +0.000 C 
BRANCH  25  31
ATOM     26  C   UNL     1       0.425   2.545  19.111  0.00  0.00    +0.000 C 
ATOM     27  N   UNL     1       1.511   2.540  20.053  0.00  0.00    +0.000 N 
ATOM     28  C   UNL     1       1.411   2.828  21.381  0.00  0.00    +0.000 A 
ATOM     29  N   UNL     1       2.594   2.744  21.939  0.00  0.00    +0.000 NA
ATOM     30  N   UNL     1       3.489   2.380  20.963  0.00  0.00    +0.000 NA
ATOM     31  C   UNL     1       2.833   2.246  19.828  0.00  0.00    +0.000 A 
ENDBRANCH  25  31
ENDBRANCH  24  25
ENDBRANCH   1  24
TORSDOF 5
ENDMDL
