MODEL 1
REMARK VINA RESULT:      -7.5      0.000      0.000
REMARK  Name = 
REMARK  6 active torsions:
REMARK  status: ('A' for Active; 'I' for Inactive)
REMARK    1  A    between atoms: C_1  and  N_2
REMARK    2  A    between atoms: C_6  and  C_7
REMARK    3  A    between atoms: C_7  and  C_8
REMARK    4  A    between atoms: C_8  and  C_9
REMARK    5  A    between atoms: C_13  and  N_14
REMARK    6  A    between atoms: C_16  and  N_17
REMARK                            x       y       z     vdW  Elec       q    Type
REMARK                         _______ _______ _______ _____ _____    ______ ____
ROOT
ATOM      1  C   UNL     1       4.657   5.897  16.701  0.00  0.00    +0.000 A 
ATOM      2  C   UNL     1       4.491   7.299  16.687  0.00  0.00    +0.000 A 
ATOM      3  C   UNL     1       3.458   7.928  17.379  0.00  0.00    +0.000 A 
ATOM      4  C   UNL     1       2.572   7.177  18.141  0.00  0.00    +0.000 A 
ATOM      5  C   UNL     1       2.742   5.796  18.259  0.00  0.00    +0.000 A 
ATOM      6  C   UNL     1       3.757   5.175  17.512  0.00  0.00    +0.000 A 
ENDROOT
BRANCH   5   7
ATOM      7  N   UNL     1       1.956   5.050  19.151  0.00  0.00    +0.000 N 
ATOM      8  C   UNL     1       2.159   3.686  19.303  0.00  0.00    +0.000 A 
ATOM      9  C   UNL     1       1.688   2.433  19.544  0.00  0.00    +0.000 A 
ATOM     10  C   UNL     1       0.977   2.887  20.695  0.00  0.00    +0.000 A 
ATOM     11  C   UNL     1       1.853   3.907  20.748  0.00  0.00    +0.000 A 
ATOM     12  C   UNL     1       1.683   5.315  20.450  0.00  0.00    +0.000 A 
ATOM     13  O   UNL     1       1.567   6.311  21.123  0.00  0.00    +0.000 OA
BRANCH   9  14
ATOM     14  N   UNL     1       1.841   1.210  19.131  0.00  0.00    +0.000 N 
ATOM     15  H   UNL     1       1.966   0.980  18.145  0.00  0.00    +0.000 HD
ATOM     16  H   UNL     1       2.033   0.425  19.744  0.00  0.00    +0.000 HD
ENDBRANCH   9  14
ENDBRANCH   5   7
BRANCH   1  17
ATOM     17  C   UNL     1       5.780   5.161  15.817  0.00  0.00    +0.000 C 
ATOM     18  C   UNL     1       5.646   3.618  15.632  0.00  0.00    +0.000 C 
ATOM     19  O   UNL     1       5.438   3.737  14.209  0.00  0.00    +0.000 OA
ATOM     20  C   UNL     1       5.502   5.172  14.277  0.00  0.00    +0.000 C 
BRANCH  17  21
ATOM     21  C   UNL     1       7.208   5.674  16.162  0.00  0.00    +0.000 C 
BRANCH  21  27
ATOM     22  C   UNL     1       8.032   8.285  17.976  0.00  0.00    +0.000 C 
ATOM     23  N   UNL     1       7.922   6.900  18.347  0.00  0.00    +0.000 N 
ATOM     24  C   UNL     1       8.232   6.453  19.600  0.00  0.00    +0.000 A 
ATOM     25  N   UNL     1       8.088   5.153  19.658  0.00  0.00    +0.000 NA
ATOM     26  N   UNL     1       7.664   4.732  18.422  0.00  0.00    +0.000 NA
ATOM     27  C   UNL     1       7.549   5.780  17.624  0.00  0.00    +0.000 A 
ENDBRANCH  21  27
ENDBRANCH  17  21
ENDBRANCH   1  17
TORSDOF 5
ENDMDL
MODEL 2
REMARK VINA RESULT:      -7.5      3.969      6.056
REMARK  Name = 
REMARK  6 active torsions:
REMARK  status: ('A' for Active; 'I' for Inactive)
REMARK    1  A    between atoms: C_1  and  N_2
REMARK    2  A    between atoms: C_6  and  C_7
REMARK    3  A    between atoms: C_7  and  C_8
REMARK    4  A    between atoms: C_8  and  C_9
REMARK    5  A    between atoms: C_13  and  N_14
REMARK    6  A    between atoms: C_16  and  N_17
REMARK                            x       y       z     vdW  Elec       q    Type
REMARK                         _______ _______ _______ _____ _____    ______ ____
ROOT
ATOM      1  C   UNL     1       2.336   7.388  19.155  0.00  0.00    +0.000 A 
ATOM      2  C   UNL     1       1.837   7.120  20.447  0.00  0.00    +0.000 A 
ATOM      3  C   UNL     1       1.116   8.067  21.172  0.00  0.00    +0.000 A 
ATOM      4  C   UNL     1       0.840   9.309  20.613  0.00  0.00    +0.000 A 
ATOM      5  C   UNL     1       1.237   9.596  19.306  0.00  0.00    +0.000 A 
ATOM      6  C   UNL     1       2.006   8.647  18.611  0.00  0.00    +0.000 A 
ENDROOT
BRANCH   5   7
ATOM      7  N   UNL     1       0.824  10.779  18.674  0.00  0.00    +0.000 N 
ATOM      8  C   UNL     1      -0.329  11.433  19.079  0.00  0.00    +0.000 A 
ATOM      9  C   UNL     1      -1.427  12.189  18.806  0.00  0.00    +0.000 A 
ATOM     10  C   UNL     1      -0.637  13.130  18.082  0.00  0.00    +0.000 A 
ATOM     11  C   UNL     1       0.415  12.697  18.801  0.00  0.00    +0.000 A 
ATOM     12  C   UNL     1       1.554  11.889  18.415  0.00  0.00    +0.000 A 
ATOM     13  O   UNL     1       2.714  12.126  18.181  0.00  0.00    +0.000 OA
BRANCH   9  14
ATOM     14  N   UNL     1      -2.685  12.275  19.121  0.00  0.00    +0.000 N 
ATOM     15  H   UNL     1      -3.389  11.653  18.725  0.00  0.00    +0.000 HD
ATOM     16  H   UNL     1      -3.038  12.823  19.899  0.00  0.00    +0.000 HD
ENDBRANCH   9  14
ENDBRANCH   5   7
BRANCH   1  17
ATOM     17  C   UNL     1       3.259   6.338  18.361  0.00  0.00    +0.000 C 
ATOM     18  C   UNL     1       4.219   5.446  19.209  0.00  0.00    +0.000 C 
ATOM     19  O   UNL     1       3.532   4.233  18.837  0.00  0.00    +0.000 OA
ATOM     20  C   UNL     1       2.568   4.966  18.062  0.00  0.00    +0.000 C 
BRANCH  17  21
ATOM     21  C   UNL     1       3.884   6.973  17.086  0.00  0.00    +0.000 C 
BRANCH  21  27
ATOM     22  C   UNL     1       5.073   4.243  15.698  0.00  0.00    +0.000 C 
ATOM     23  N   UNL     1       5.764   5.400  16.203  0.00  0.00    +0.000 N 
ATOM     24  C   UNL     1       7.128   5.486  16.221  0.00  0.00    +0.000 A 
ATOM     25  N   UNL     1       7.496   6.616  16.769  0.00  0.00    +0.000 NA
ATOM     26  N   UNL     1       6.354   7.297  17.111  0.00  0.00    +0.000 NA
ATOM     27  C   UNL     1       5.301   6.577  16.763  0.00  0.00    +0.000 A 
ENDBRANCH  21  27
ENDBRANCH  17  21
ENDBRANCH   1  17
TORSDOF 5
ENDMDL
MODEL 3
REMARK VINA RESULT:      -7.4      4.067      6.774
REMARK  Name = 
REMARK  6 active torsions:
REMARK  status: ('A' for Active; 'I' for Inactive)
REMARK    1  A    between atoms: C_1  and  N_2
REMARK    2  A    between atoms: C_6  and  C_7
REMARK    3  A    between atoms: C_7  and  C_8
REMARK    4  A    between atoms: C_8  and  C_9
REMARK    5  A    between atoms: C_13  and  N_14
REMARK    6  A    between atoms: C_16  and  N_17
REMARK                            x       y       z     vdW  Elec       q    Type
REMARK                         _______ _______ _______ _____ _____    ______ ____
ROOT
ATOM      1  C   UNL     1       2.170   7.413  19.212  0.00  0.00    +0.000 A 
ATOM      2  C   UNL     1       1.758   7.219  20.547  0.00  0.00    +0.000 A 
ATOM      3  C   UNL     1       1.151   8.231  21.288  0.00  0.00    +0.000 A 
ATOM      4  C   UNL     1       0.903   9.468  20.705  0.00  0.00    +0.000 A 
ATOM      5  C   UNL     1       1.212   9.686  19.361  0.00  0.00    +0.000 A 
ATOM      6  C   UNL     1       1.870   8.670  18.646  0.00  0.00    +0.000 A 
ENDROOT
BRANCH   5   7
ATOM      7  N   UNL     1       0.819  10.869  18.717  0.00  0.00    +0.000 N 
ATOM      8  C   UNL     1      -0.327  11.543  19.112  0.00  0.00    +0.000 A 
ATOM      9  C   UNL     1      -1.413  12.312  18.827  0.00  0.00    +0.000 A 
ATOM     10  C   UNL     1      -0.606  13.236  18.099  0.00  0.00    +0.000 A 
ATOM     11  C   UNL     1       0.436  12.795  18.826  0.00  0.00    +0.000 A 
ATOM     12  C   UNL     1       1.565  11.967  18.452  0.00  0.00    +0.000 A 
ATOM     13  O   UNL     1       2.730  12.185  18.220  0.00  0.00    +0.000 OA
BRANCH   9  14
ATOM     14  N   UNL     1      -2.670  12.419  19.136  0.00  0.00    +0.000 N 
ATOM     15  H   UNL     1      -3.392  11.863  18.677  0.00  0.00    +0.000 HD
ATOM     16  H   UNL     1      -3.013  12.907  19.957  0.00  0.00    +0.000 HD
ENDBRANCH   9  14
ENDBRANCH   5   7
BRANCH   1  17
ATOM     17  C   UNL     1       2.967   6.283  18.391  0.00  0.00    +0.000 C 
ATOM     18  C   UNL     1       4.127   6.759  17.464  0.00  0.00    +0.000 C 
ATOM     19  O   UNL     1       5.126   6.068  18.243  0.00  0.00    +0.000 OA
ATOM     20  C   UNL     1       4.138   5.613  19.184  0.00  0.00    +0.000 C 
BRANCH  17  21
ATOM     21  C   UNL     1       1.999   5.235  17.771  0.00  0.00    +0.000 C 
BRANCH  21  27
ATOM     22  C   UNL     1       1.094   3.438  20.367  0.00  0.00    +0.000 C 
ATOM     23  N   UNL     1       1.894   3.077  19.227  0.00  0.00    +0.000 N 
ATOM     24  C   UNL     1       2.475   1.847  19.103  0.00  0.00    +0.000 A 
ATOM     25  N   UNL     1       3.180   1.796  18.001  0.00  0.00    +0.000 NA
ATOM     26  N   UNL     1       3.054   3.012  17.378  0.00  0.00    +0.000 NA
ATOM     27  C   UNL     1       2.270   3.791  18.104  0.00  0.00    +0.000 A 
ENDBRANCH  21  27
ENDBRANCH  17  21
ENDBRANCH   1  17
TORSDOF 5
ENDMDL
MODEL 4
REMARK VINA RESULT:      -7.4      2.482      3.641
REMARK  Name = 
REMARK  6 active torsions:
REMARK  status: ('A' for Active; 'I' for Inactive)
REMARK    1  A    between atoms: C_1  and  N_2
REMARK    2  A    between atoms: C_6  and  C_7
REMARK    3  A    between atoms: C_7  and  C_8
REMARK    4  A    between atoms: C_8  and  C_9
REMARK    5  A    between atoms: C_13  and  N_14
REMARK    6  A    between atoms: C_16  and  N_17
REMARK                            x       y       z     vdW  Elec       q    Type
REMARK                         _______ _______ _______ _____ _____    ______ ____
ROOT
ATOM      1  C   UNL     1       5.467   6.306  17.900  0.00  0.00    +0.000 A 
ATOM      2  C   UNL     1       4.812   7.526  17.630  0.00  0.00    +0.000 A 
ATOM      3  C   UNL     1       3.422   7.629  17.599  0.00  0.00    +0.000 A 
ATOM      4  C   UNL     1       2.636   6.516  17.872  0.00  0.00    +0.000 A 
ATOM      5  C   UNL     1       3.232   5.305  18.229  0.00  0.00    +0.000 A 
ATOM      6  C   UNL     1       4.634   5.209  18.204  0.00  0.00    +0.000 A 
ENDROOT
BRANCH   5   7
ATOM      7  N   UNL     1       2.452   4.222  18.664  0.00  0.00    +0.000 N 
ATOM      8  C   UNL     1       2.188   4.039  20.013  0.00  0.00    +0.000 A 
ATOM      9  C   UNL     1       1.962   3.226  21.082  0.00  0.00    +0.000 A 
ATOM     10  C   UNL     1       0.985   2.485  20.352  0.00  0.00    +0.000 A 
ATOM     11  C   UNL     1       0.836   3.576  19.578  0.00  0.00    +0.000 A 
ATOM     12  C   UNL     1       1.241   3.825  18.209  0.00  0.00    +0.000 A 
ATOM     13  O   UNL     1       0.659   3.866  17.152  0.00  0.00    +0.000 OA
BRANCH   9  14
ATOM     14  N   UNL     1       2.269   3.121  22.340  0.00  0.00    +0.000 N 
ATOM     15  H   UNL     1       2.652   3.902  22.874  0.00  0.00    +0.000 HD
ATOM     16  H   UNL     1       1.990   2.343  22.928  0.00  0.00    +0.000 HD
ENDBRANCH   9  14
ENDBRANCH   5   7
BRANCH   1  17
ATOM     17  C   UNL     1       7.066   6.161  17.829  0.00  0.00    +0.000 C 
ATOM     18  C   UNL     1       7.887   7.448  17.505  0.00  0.00    +0.000 C 
ATOM     19  O   UNL     1       8.529   7.448  18.798  0.00  0.00    +0.000 OA
ATOM     20  C   UNL     1       7.789   6.287  19.212  0.00  0.00    +0.000 C 
BRANCH  17  21
ATOM     21  C   UNL     1       7.493   4.881  17.056  0.00  0.00    +0.000 C 
BRANCH  21  27
ATOM     22  C   UNL     1       5.238   3.075  15.493  0.00  0.00    +0.000 C 
ATOM     23  N   UNL     1       6.185   4.024  14.972  0.00  0.00    +0.000 N 
ATOM     24  C   UNL     1       6.313   4.268  13.633  0.00  0.00    +0.000 A 
ATOM     25  N   UNL     1       7.272   5.136  13.428  0.00  0.00    +0.000 NA
ATOM     26  N   UNL     1       7.781   5.481  14.655  0.00  0.00    +0.000 NA
ATOM     27  C   UNL     1       7.125   4.824  15.596  0.00  0.00    +0.000 A 
ENDBRANCH  21  27
ENDBRANCH  17  21
ENDBRANCH   1  17
TORSDOF 5
ENDMDL
MODEL 5
REMARK VINA RESULT:      -7.3      4.081      6.885
REMARK  Name = 
REMARK  6 active torsions:
REMARK  status: ('A' for Active; 'I' for Inactive)
REMARK    1  A    between atoms: C_1  and  N_2
REMARK    2  A    between atoms: C_6  and  C_7
REMARK    3  A    between atoms: C_7  and  C_8
REMARK    4  A    between atoms: C_8  and  C_9
REMARK    5  A    between atoms: C_13  and  N_14
REMARK    6  A    between atoms: C_16  and  N_17
REMARK                            x       y       z     vdW  Elec       q    Type
REMARK                         _______ _______ _______ _____ _____    ______ ____
ROOT
ATOM      1  C   UNL     1       2.178   7.439  19.247  0.00  0.00    +0.000 A 
ATOM      2  C   UNL     1       1.764   7.253  20.583  0.00  0.00    +0.000 A 
ATOM      3  C   UNL     1       1.153   8.269  21.316  0.00  0.00    +0.000 A 
ATOM      4  C   UNL     1       0.903   9.501  20.723  0.00  0.00    +0.000 A 
ATOM      5  C   UNL     1       1.214   9.710  19.378  0.00  0.00    +0.000 A 
ATOM      6  C   UNL     1       1.876   8.691  18.672  0.00  0.00    +0.000 A 
ENDROOT
BRANCH   5   7
ATOM      7  N   UNL     1       0.819  10.888  18.725  0.00  0.00    +0.000 N 
ATOM      8  C   UNL     1      -0.281  11.607  19.167  0.00  0.00    +0.000 A 
ATOM      9  C   UNL     1      -1.358  12.402  18.925  0.00  0.00    +0.000 A 
ATOM     10  C   UNL     1      -0.569  13.281  18.125  0.00  0.00    +0.000 A 
ATOM     11  C   UNL     1       0.501  12.826  18.802  0.00  0.00    +0.000 A 
ATOM     12  C   UNL     1       1.581  11.954  18.386  0.00  0.00    +0.000 A 
ATOM     13  O   UNL     1       2.736  12.129  18.081  0.00  0.00    +0.000 OA
BRANCH   9  14
ATOM     14  N   UNL     1      -2.592  12.557  19.303  0.00  0.00    +0.000 N 
ATOM     15  H   UNL     1      -2.966  13.465  19.579  0.00  0.00    +0.000 HD
ATOM     16  H   UNL     1      -3.314  11.855  19.182  0.00  0.00    +0.000 HD
ENDBRANCH   9  14
ENDBRANCH   5   7
BRANCH   1  17
ATOM     17  C   UNL     1       2.979   6.305  18.435  0.00  0.00    +0.000 C 
ATOM     18  C   UNL     1       4.052   6.784  17.410  0.00  0.00    +0.000 C 
ATOM     19  O   UNL     1       5.133   6.187  18.157  0.00  0.00    +0.000 OA
ATOM     20  C   UNL     1       4.232   5.738  19.183  0.00  0.00    +0.000 C 
BRANCH  17  21
ATOM     21  C   UNL     1       2.030   5.178  17.936  0.00  0.00    +0.000 C 
BRANCH  21  27
ATOM     22  C   UNL     1       3.340   2.168  17.817  0.00  0.00    +0.000 C 
ATOM     23  N   UNL     1       2.399   2.731  18.750  0.00  0.00    +0.000 N 
ATOM     24  C   UNL     1       1.841   1.995  19.757  0.00  0.00    +0.000 A 
ATOM     25  N   UNL     1       0.991   2.732  20.428  0.00  0.00    +0.000 NA
ATOM     26  N   UNL     1       0.995   3.981  19.861  0.00  0.00    +0.000 NA
ATOM     27  C   UNL     1       1.850   3.996  18.852  0.00  0.00    +0.000 A 
ENDBRANCH  21  27
ENDBRANCH  17  21
ENDBRANCH   1  17
TORSDOF 5
ENDMDL
MODEL 6
REMARK VINA RESULT:      -7.3      2.260      3.457
REMARK  Name = 
REMARK  6 active torsions:
REMARK  status: ('A' for Active; 'I' for Inactive)
REMARK    1  A    between atoms: C_1  and  N_2
REMARK    2  A    between atoms: C_6  and  C_7
REMARK    3  A    between atoms: C_7  and  C_8
REMARK    4  A    between atoms: C_8  and  C_9
REMARK    5  A    between atoms: C_13  and  N_14
REMARK    6  A    between atoms: C_16  and  N_17
REMARK                            x       y       z     vdW  Elec       q    Type
REMARK                         _______ _______ _______ _____ _____    ______ ____
ROOT
ATOM      1  C   UNL     1       5.438   6.441  17.850  0.00  0.00    +0.000 A 
ATOM      2  C   UNL     1       4.717   7.623  17.576  0.00  0.00    +0.000 A 
ATOM      3  C   UNL     1       3.324   7.659  17.589  0.00  0.00    +0.000 A 
ATOM      4  C   UNL     1       2.601   6.516  17.912  0.00  0.00    +0.000 A 
ATOM      5  C   UNL     1       3.265   5.343  18.274  0.00  0.00    +0.000 A 
ATOM      6  C   UNL     1       4.669   5.313  18.205  0.00  0.00    +0.000 A 
ENDROOT
BRANCH   5   7
ATOM      7  N   UNL     1       2.553   4.235  18.758  0.00  0.00    +0.000 N 
ATOM      8  C   UNL     1       3.169   2.999  18.889  0.00  0.00    +0.000 A 
ATOM      9  C   UNL     1       3.127   1.640  18.856  0.00  0.00    +0.000 A 
ATOM     10  C   UNL     1       1.964   1.624  19.682  0.00  0.00    +0.000 A 
ATOM     11  C   UNL     1       2.345   2.837  20.124  0.00  0.00    +0.000 A 
ATOM     12  C   UNL     1       1.790   4.151  19.873  0.00  0.00    +0.000 A 
ATOM     13  O   UNL     1       1.109   4.915  20.514  0.00  0.00    +0.000 OA
BRANCH   9  14
ATOM     14  N   UNL     1       3.836   0.627  18.456  0.00  0.00    +0.000 N 
ATOM     15  H   UNL     1       3.674   0.170  17.558  0.00  0.00    +0.000 HD
ATOM     16  H   UNL     1       4.701   0.331  18.896  0.00  0.00    +0.000 HD
ENDBRANCH   9  14
ENDBRANCH   5   7
BRANCH   1  17
ATOM     17  C   UNL     1       7.040   6.371  17.730  0.00  0.00    +0.000 C 
ATOM     18  C   UNL     1       7.781   7.672  17.296  0.00  0.00    +0.000 C 
ATOM     19  O   UNL     1       8.466   7.788  18.561  0.00  0.00    +0.000 OA
ATOM     20  C   UNL     1       7.801   6.621  19.075  0.00  0.00    +0.000 C 
BRANCH  17  21
ATOM     21  C   UNL     1       7.505   5.066  17.024  0.00  0.00    +0.000 C 
BRANCH  21  27
ATOM     22  C   UNL     1       5.245   3.170  15.580  0.00  0.00    +0.000 C 
ATOM     23  N   UNL     1       6.193   4.083  14.999  0.00  0.00    +0.000 N 
ATOM     24  C   UNL     1       6.319   4.244  13.648  0.00  0.00    +0.000 A 
ATOM     25  N   UNL     1       7.279   5.095  13.388  0.00  0.00    +0.000 NA
ATOM     26  N   UNL     1       7.791   5.515  14.590  0.00  0.00    +0.000 NA
ATOM     27  C   UNL     1       7.135   4.919  15.572  0.00  0.00    +0.000 A 
ENDBRANCH  21  27
ENDBRANCH  17  21
ENDBRANCH   1  17
TORSDOF 5
ENDMDL
MODEL 7
REMARK VINA RESULT:      -7.3      4.182      7.342
REMARK  Name = 
REMARK  6 active torsions:
REMARK  status: ('A' for Active; 'I' for Inactive)
REMARK    1  A    between atoms: C_1  and  N_2
REMARK    2  A    between atoms: C_6  and  C_7
REMARK    3  A    between atoms: C_7  and  C_8
REMARK    4  A    between atoms: C_8  and  C_9
REMARK    5  A    between atoms: C_13  and  N_14
REMARK    6  A    between atoms: C_16  and  N_17
REMARK                            x       y       z     vdW  Elec       q    Type
REMARK                         _______ _______ _______ _____ _____    ______ ____
ROOT
ATOM      1  C   UNL     1       1.622   8.472  19.686  0.00  0.00    +0.000 A 
ATOM      2  C   UNL     1       1.817   8.896  18.354  0.00  0.00    +0.000 A 
ATOM      3  C   UNL     1       2.604   8.176  17.457  0.00  0.00    +0.000 A 
ATOM      4  C   UNL     1       3.197   6.983  17.852  0.00  0.00    +0.000 A 
ATOM      5  C   UNL     1       2.967   6.475  19.132  0.00  0.00    +0.000 A 
ATOM      6  C   UNL     1       2.213   7.241  20.038  0.00  0.00    +0.000 A 
ENDROOT
BRANCH   5   7
ATOM      7  N   UNL     1       3.423   5.197  19.489  0.00  0.00    +0.000 N 
ATOM      8  C   UNL     1       2.846   4.061  18.941  0.00  0.00    +0.000 A 
ATOM      9  C   UNL     1       2.460   2.759  19.034  0.00  0.00    +0.000 A 
ATOM     10  C   UNL     1       3.739   2.384  19.544  0.00  0.00    +0.000 A 
ATOM     11  C   UNL     1       4.225   3.486  18.945  0.00  0.00    +0.000 A 
ATOM     12  C   UNL     1       4.696   4.736  19.507  0.00  0.00    +0.000 A 
ATOM     13  O   UNL     1       5.787   5.218  19.694  0.00  0.00    +0.000 OA
BRANCH   9  14
ATOM     14  N   UNL     1       1.475   1.982  18.698  0.00  0.00    +0.000 N 
ATOM     15  H   UNL     1       1.182   1.863  17.727  0.00  0.00    +0.000 HD
ATOM     16  H   UNL     1       1.047   1.307  19.322  0.00  0.00    +0.000 HD
ENDBRANCH   9  14
ENDBRANCH   5   7
BRANCH   1  17
ATOM     17  C   UNL     1       0.805   9.356  20.752  0.00  0.00    +0.000 C 
ATOM     18  C   UNL     1      -0.469   8.715  21.385  0.00  0.00    +0.000 C 
ATOM     19  O   UNL     1       0.107   8.710  22.708  0.00  0.00    +0.000 OA
ATOM     20  C   UNL     1       1.342   9.260  22.219  0.00  0.00    +0.000 C 
BRANCH  17  21
ATOM     21  C   UNL     1       0.649  10.829  20.277  0.00  0.00    +0.000 C 
BRANCH  21  27
ATOM     22  C   UNL     1      -1.434  10.294  17.795  0.00  0.00    +0.000 C 
ATOM     23  N   UNL     1      -1.594  11.094  18.979  0.00  0.00    +0.000 N 
ATOM     24  C   UNL     1      -2.713  11.845  19.208  0.00  0.00    +0.000 A 
ATOM     25  N   UNL     1      -2.584  12.507  20.330  0.00  0.00    +0.000 NA
ATOM     26  N   UNL     1      -1.361  12.181  20.860  0.00  0.00    +0.000 NA
ATOM     27  C   UNL     1      -0.758  11.319  20.058  0.00  0.00    +0.000 A 
ENDBRANCH  21  27
ENDBRANCH  17  21
ENDBRANCH   1  17
TORSDOF 5
ENDMDL
MODEL 8
REMARK VINA RESULT:      -7.3      2.818      6.728
REMARK  Name = 
REMARK  6 active torsions:
REMARK  status: ('A' for Active; 'I' for Inactive)
REMARK    1  A    between atoms: C_1  and  N_2
REMARK    2  A    between atoms: C_6  and  C_7
REMARK    3  A    between atoms: C_7  and  C_8
REMARK    4  A    between atoms: C_8  and  C_9
REMARK    5  A    between atoms: C_13  and  N_14
REMARK    6  A    between atoms: C_16  and  N_17
REMARK                            x       y       z     vdW  Elec       q    Type
REMARK                         _______ _______ _______ _____ _____    ______ ____
ROOT
ATOM      1  C   UNL     1       5.041   4.616  17.192  0.00  0.00    +0.000 A 
ATOM      2  C   UNL     1       5.622   5.758  17.782  0.00  0.00    +0.000 A 
ATOM      3  C   UNL     1       6.739   6.386  17.233  0.00  0.00    +0.000 A 
ATOM      4  C   UNL     1       7.295   5.910  16.051  0.00  0.00    +0.000 A 
ATOM      5  C   UNL     1       6.708   4.834  15.382  0.00  0.00    +0.000 A 
ATOM      6  C   UNL     1       5.614   4.184  15.978  0.00  0.00    +0.000 A 
ENDROOT
BRANCH   5   7
ATOM      7  N   UNL     1       7.158   4.449  14.110  0.00  0.00    +0.000 N 
ATOM      8  C   UNL     1       6.272   3.950  13.166  0.00  0.00    +0.000 A 
ATOM      9  C   UNL     1       5.987   3.130  12.118  0.00  0.00    +0.000 A 
ATOM     10  C   UNL     1       7.152   3.567  11.420  0.00  0.00    +0.000 A 
ATOM     11  C   UNL     1       7.092   4.689  12.160  0.00  0.00    +0.000 A 
ATOM     12  C   UNL     1       7.932   5.148  13.247  0.00  0.00    +0.000 A 
ATOM     13  O   UNL     1       8.806   5.976  13.346  0.00  0.00    +0.000 OA
BRANCH   9  14
ATOM     14  N   UNL     1       5.039   2.355  11.685  0.00  0.00    +0.000 N 
ATOM     15  H   UNL     1       4.696   1.561  12.225  0.00  0.00    +0.000 HD
ATOM     16  H   UNL     1       4.449   2.572  10.889  0.00  0.00    +0.000 HD
ENDBRANCH   9  14
ENDBRANCH   5   7
BRANCH   1  17
ATOM     17  C   UNL     1       3.820   3.827  17.881  0.00  0.00    +0.000 C 
ATOM     18  C   UNL     1       3.681   2.307  17.562  0.00  0.00    +0.000 C 
ATOM     19  O   UNL     1       3.932   1.926  18.931  0.00  0.00    +0.000 OA
ATOM     20  C   UNL     1       4.123   3.297  19.322  0.00  0.00    +0.000 C 
BRANCH  17  21
ATOM     21  C   UNL     1       2.501   4.649  17.821  0.00  0.00    +0.000 C 
BRANCH  21  27
ATOM     22  C   UNL     1       1.055   4.143  20.726  0.00  0.00    +0.000 C 
ATOM     23  N   UNL     1       1.604   5.349  20.164  0.00  0.00    +0.000 N 
ATOM     24  C   UNL     1       1.531   6.553  20.806  0.00  0.00    +0.000 A 
ATOM     25  N   UNL     1       2.064   7.488  20.061  0.00  0.00    +0.000 NA
ATOM     26  N   UNL     1       2.508   6.890  18.908  0.00  0.00    +0.000 NA
ATOM     27  C   UNL     1       2.245   5.595  18.964  0.00  0.00    +0.000 A 
ENDBRANCH  21  27
ENDBRANCH  17  21
ENDBRANCH   1  17
TORSDOF 5
ENDMDL
MODEL 9
REMARK VINA RESULT:      -7.2      3.580      7.423
REMARK  Name = 
REMARK  6 active torsions:
REMARK  status: ('A' for Active; 'I' for Inactive)
REMARK    1  A    between atoms: C_1  and  N_2
REMARK    2  A    between atoms: C_6  and  C_7
REMARK    3  A    between atoms: C_7  and  C_8
REMARK    4  A    between atoms: C_8  and  C_9
REMARK    5  A    between atoms: C_13  and  N_14
REMARK    6  A    between atoms: C_16  and  N_17
REMARK                            x       y       z     vdW  Elec       q    Type
REMARK                         _______ _______ _______ _____ _____    ______ ____
ROOT
ATOM      1  C   UNL     1       1.846   6.993  20.361  0.00  0.00    +0.000 A 
ATOM      2  C   UNL     1       1.340   5.799  20.917  0.00  0.00    +0.000 A 
ATOM      3  C   UNL     1       1.870   4.551  20.594  0.00  0.00    +0.000 A 
ATOM      4  C   UNL     1       2.952   4.457  19.726  0.00  0.00    +0.000 A 
ATOM      5  C   UNL     1       3.545   5.613  19.215  0.00  0.00    +0.000 A 
ATOM      6  C   UNL     1       2.964   6.858  19.512  0.00  0.00    +0.000 A 
ENDROOT
BRANCH   5   7
ATOM      7  N   UNL     1       4.733   5.541  18.472  0.00  0.00    +0.000 N 
ATOM      8  C   UNL     1       5.946   5.297  19.099  0.00  0.00    +0.000 A 
ATOM      9  C   UNL     1       7.293   5.466  19.191  0.00  0.00    +0.000 A 
ATOM     10  C   UNL     1       7.458   5.153  17.809  0.00  0.00    +0.000 A 
ATOM     11  C   UNL     1       6.290   4.491  17.889  0.00  0.00    +0.000 A 
ATOM     12  C   UNL     1       4.982   4.816  17.357  0.00  0.00    +0.000 A 
ATOM     13  O   UNL     1       4.330   4.418  16.421  0.00  0.00    +0.000 OA
BRANCH   9  14
ATOM     14  N   UNL     1       8.218   5.654  20.084  0.00  0.00    +0.000 N 
ATOM     15  H   UNL     1       9.179   5.339  19.947  0.00  0.00    +0.000 HD
ATOM     16  H   UNL     1       8.118   6.272  20.882  0.00  0.00    +0.000 HD
ENDBRANCH   9  14
ENDBRANCH   5   7
BRANCH   1  17
ATOM     17  C   UNL     1       1.168   8.423  20.648  0.00  0.00    +0.000 C 
ATOM     18  C   UNL     1      -0.241   8.424  21.316  0.00  0.00    +0.000 C 
ATOM     19  O   UNL     1       0.248   9.072  22.509  0.00  0.00    +0.000 OA
ATOM     20  C   UNL     1       1.594   9.081  22.002  0.00  0.00    +0.000 C 
BRANCH  17  21
ATOM     21  C   UNL     1       1.340   9.391  19.442  0.00  0.00    +0.000 C 
BRANCH  21  27
ATOM     22  C   UNL     1       0.628  12.285  20.822  0.00  0.00    +0.000 C 
ATOM     23  N   UNL     1      -0.076  11.547  19.807  0.00  0.00    +0.000 N 
ATOM     24  C   UNL     1      -1.266  11.972  19.289  0.00  0.00    +0.000 A 
ATOM     25  N   UNL     1      -1.712  11.099  18.421  0.00  0.00    +0.000 NA
ATOM     26  N   UNL     1      -0.793  10.081  18.355  0.00  0.00    +0.000 NA
ATOM     27  C   UNL     1       0.206  10.346  19.181  0.00  0.00    +0.000 A 
ENDBRANCH  21  27
ENDBRANCH  17  21
ENDBRANCH   1  17
TORSDOF 5
ENDMDL
