MODEL 1
REMARK VINA RESULT:      -9.2      0.000      0.000
REMARK  Name = 
REMARK  5 active torsions:
REMARK  status: ('A' for Active; 'I' for Inactive)
REMARK    1  A    between atoms: C_1  and  C_2
REMARK    2  A    between atoms: C_8  and  C_9
REMARK    3  A    between atoms: N_11  and  C_12
REMARK    4  A    between atoms: C_17  and  O_18
REMARK    5  A    between atoms: O_18  and  C_19
REMARK                            x       y       z     vdW  Elec       q    Type
REMARK                         _______ _______ _______ _____ _____    ______ ____
ROOT
ATOM      1  C   UNL     1       2.029   7.450  19.145  0.00  0.00    +0.000 C 
ATOM      2  O   UNL     1       2.153   7.096  17.975  0.00  0.00    +0.000 OA
ATOM      3  N   UNL     1       2.145   6.631  20.255  0.00  0.00    +0.000 N 
ATOM      4  H   UNL     1       1.887   7.014  21.152  0.00  0.00    +0.000 HD
ENDROOT
BRANCH   1  12
ATOM      5  C   UNL     1      -0.517  10.020  23.189  0.00  0.00    +0.000 C 
ATOM      6  C   UNL     1      -0.088  10.853  22.043  0.00  0.00    +0.000 A 
ATOM      7  N   UNL     1      -0.271  12.151  21.900  0.00  0.00    +0.000 NA
ATOM      8  N   UNL     1       0.227  12.525  20.674  0.00  0.00    +0.000 NA
ATOM      9  C   UNL     1       0.712  11.454  20.090  0.00  0.00    +0.000 A 
ATOM     10  C   UNL     1       1.303  11.224  18.816  0.00  0.00    +0.000 A 
ATOM     11  C   UNL     1       1.724   9.987  18.480  0.00  0.00    +0.000 A 
ATOM     12  C   UNL     1       1.601   8.867  19.416  0.00  0.00    +0.000 A 
ATOM     13  C   UNL     1       1.008   9.087  20.609  0.00  0.00    +0.000 A 
ATOM     14  N   UNL     1       0.561  10.363  20.931  0.00  0.00    +0.000 N 
ENDBRANCH   1  12
BRANCH   3  15
ATOM     15  C   UNL     1       2.336   5.219  20.216  0.00  0.00    +0.000 A 
ATOM     16  C   UNL     1       1.282   4.353  20.550  0.00  0.00    +0.000 A 
ATOM     17  C   UNL     1       1.424   2.963  20.516  0.00  0.00    +0.000 A 
ATOM     18  C   UNL     1       2.629   2.402  20.130  0.00  0.00    +0.000 A 
ATOM     19  C   UNL     1       3.689   3.235  19.779  0.00  0.00    +0.000 A 
ATOM     20  C   UNL     1       3.564   4.637  19.831  0.00  0.00    +0.000 A 
BRANCH  20  21
ATOM     21  O   UNL     1       4.709   5.264  19.387  0.00  0.00    +0.000 OA
BRANCH  21  22
ATOM     22  C   UNL     1       5.276   5.029  18.161  0.00  0.00    +0.000 A 
ATOM     23  C   UNL     1       4.554   4.741  17.000  0.00  0.00    +0.000 A 
ATOM     24  C   UNL     1       5.226   4.346  15.841  0.00  0.00    +0.000 A 
ATOM     25  C   UNL     1       6.620   4.321  15.810  0.00  0.00    +0.000 A 
ATOM     26  C   UNL     1       7.347   4.731  16.925  0.00  0.00    +0.000 A 
ATOM     27  C   UNL     1       6.677   5.091  18.096  0.00  0.00    +0.000 A 
ATOM     28 CL   UNL     1       7.620   5.594  19.454  0.00  0.00    +0.000 Cl
ENDBRANCH  21  22
ENDBRANCH  20  21
ENDBRANCH   3  15
TORSDOF 4
ENDMDL
MODEL 2
REMARK VINA RESULT:      -8.8      1.497      1.905
REMARK  Name = 
REMARK  5 active torsions:
REMARK  status: ('A' for Active; 'I' for Inactive)
REMARK    1  A    between atoms: C_1  and  C_2
REMARK    2  A    between atoms: C_8  and  C_9
REMARK    3  A    between atoms: N_11  and  C_12
REMARK    4  A    between atoms: C_17  and  O_18
REMARK    5  A    between atoms: O_18  and  C_19
REMARK                            x       y       z     vdW  Elec       q    Type
REMARK                         _______ _______ _______ _____ _____    ______ ____
ROOT
ATOM      1  C   UNL     1       2.279   6.886  18.896  0.00  0.00    +0.000 C 
ATOM      2  O   UNL     1       1.943   6.349  17.844  0.00  0.00    +0.000 OA
ATOM      3  N   UNL     1       2.910   6.262  19.958  0.00  0.00    +0.000 N 
ATOM      4  H   UNL     1       3.010   6.780  20.818  0.00  0.00    +0.000 HD
ENDROOT
BRANCH   1  12
ATOM      5  C   UNL     1      -0.023   9.678  22.939  0.00  0.00    +0.000 C 
ATOM      6  C   UNL     1       0.352  10.450  21.732  0.00  0.00    +0.000 A 
ATOM      7  N   UNL     1       0.173  11.742  21.536  0.00  0.00    +0.000 NA
ATOM      8  N   UNL     1       0.609  12.051  20.268  0.00  0.00    +0.000 NA
ATOM      9  C   UNL     1       1.052  10.947  19.712  0.00  0.00    +0.000 A 
ATOM     10  C   UNL     1       1.573  10.648  18.422  0.00  0.00    +0.000 A 
ATOM     11  C   UNL     1       1.963   9.392  18.125  0.00  0.00    +0.000 A 
ATOM     12  C   UNL     1       1.880   8.319  19.119  0.00  0.00    +0.000 A 
ATOM     13  C   UNL     1       1.354   8.604  20.330  0.00  0.00    +0.000 A 
ATOM     14  N   UNL     1       0.936   9.900  20.612  0.00  0.00    +0.000 N 
ENDBRANCH   1  12
BRANCH   3  15
ATOM     15  C   UNL     1       3.188   4.866  20.040  0.00  0.00    +0.000 A 
ATOM     16  C   UNL     1       2.574   4.079  21.029  0.00  0.00    +0.000 A 
ATOM     17  C   UNL     1       2.813   2.707  21.139  0.00  0.00    +0.000 A 
ATOM     18  C   UNL     1       3.666   2.080  20.248  0.00  0.00    +0.000 A 
ATOM     19  C   UNL     1       4.280   2.832  19.248  0.00  0.00    +0.000 A 
ATOM     20  C   UNL     1       4.064   4.220  19.141  0.00  0.00    +0.000 A 
BRANCH  20  21
ATOM     21  O   UNL     1       4.719   4.751  18.050  0.00  0.00    +0.000 OA
BRANCH  21  22
ATOM     22  C   UNL     1       5.878   5.478  18.141  0.00  0.00    +0.000 A 
ATOM     23  C   UNL     1       6.883   5.246  19.084  0.00  0.00    +0.000 A 
ATOM     24  C   UNL     1       7.943   6.147  19.208  0.00  0.00    +0.000 A 
ATOM     25  C   UNL     1       8.052   7.230  18.337  0.00  0.00    +0.000 A 
ATOM     26  C   UNL     1       7.122   7.393  17.313  0.00  0.00    +0.000 A 
ATOM     27  C   UNL     1       6.042   6.515  17.209  0.00  0.00    +0.000 A 
ATOM     28 CL   UNL     1       4.915   6.756  15.922  0.00  0.00    +0.000 Cl
ENDBRANCH  21  22
ENDBRANCH  20  21
ENDBRANCH   3  15
TORSDOF 4
ENDMDL
MODEL 3
REMARK VINA RESULT:      -8.6      0.790      1.807
REMARK  Name = 
REMARK  5 active torsions:
REMARK  status: ('A' for Active; 'I' for Inactive)
REMARK    1  A    between atoms: C_1  and  C_2
REMARK    2  A    between atoms: C_8  and  C_9
REMARK    3  A    between atoms: N_11  and  C_12
REMARK    4  A    between atoms: C_17  and  O_18
REMARK    5  A    between atoms: O_18  and  C_19
REMARK                            x       y       z     vdW  Elec       q    Type
REMARK                         _______ _______ _______ _____ _____    ______ ____
ROOT
ATOM      1  C   UNL     1       1.838   7.271  19.933  0.00  0.00    +0.000 C 
ATOM      2  O   UNL     1       2.048   7.319  18.723  0.00  0.00    +0.000 OA
ATOM      3  N   UNL     1       1.975   6.150  20.733  0.00  0.00    +0.000 N 
ATOM      4  H   UNL     1       1.642   6.206  21.684  0.00  0.00    +0.000 HD
ENDROOT
BRANCH   1  12
ATOM      5  C   UNL     1       1.409  12.529  18.667  0.00  0.00    +0.000 C 
ATOM      6  C   UNL     1       0.836  12.113  19.968  0.00  0.00    +0.000 A 
ATOM      7  N   UNL     1       0.243  12.891  20.852  0.00  0.00    +0.000 NA
ATOM      8  N   UNL     1      -0.096  12.124  21.943  0.00  0.00    +0.000 NA
ATOM      9  C   UNL     1       0.289  10.892  21.707  0.00  0.00    +0.000 A 
ATOM     10  C   UNL     1       0.245   9.694  22.475  0.00  0.00    +0.000 A 
ATOM     11  C   UNL     1       0.722   8.543  21.960  0.00  0.00    +0.000 A 
ATOM     12  C   UNL     1       1.274   8.493  20.604  0.00  0.00    +0.000 A 
ATOM     13  C   UNL     1       1.342   9.641  19.894  0.00  0.00    +0.000 A 
ATOM     14  N   UNL     1       0.865  10.823  20.449  0.00  0.00    +0.000 N 
ENDBRANCH   1  12
BRANCH   3  15
ATOM     15  C   UNL     1       2.293   4.841  20.265  0.00  0.00    +0.000 A 
ATOM     16  C   UNL     1       1.334   3.816  20.325  0.00  0.00    +0.000 A 
ATOM     17  C   UNL     1       1.602   2.523  19.869  0.00  0.00    +0.000 A 
ATOM     18  C   UNL     1       2.838   2.225  19.324  0.00  0.00    +0.000 A 
ATOM     19  C   UNL     1       3.805   3.224  19.239  0.00  0.00    +0.000 A 
ATOM     20  C   UNL     1       3.555   4.526  19.716  0.00  0.00    +0.000 A 
BRANCH  20  21
ATOM     21  O   UNL     1       4.622   5.366  19.478  0.00  0.00    +0.000 OA
BRANCH  21  22
ATOM     22  C   UNL     1       5.223   5.502  18.253  0.00  0.00    +0.000 A 
ATOM     23  C   UNL     1       4.531   5.598  17.043  0.00  0.00    +0.000 A 
ATOM     24  C   UNL     1       5.233   5.559  15.835  0.00  0.00    +0.000 A 
ATOM     25  C   UNL     1       6.627   5.514  15.832  0.00  0.00    +0.000 A 
ATOM     26  C   UNL     1       7.325   5.550  17.037  0.00  0.00    +0.000 A 
ATOM     27  C   UNL     1       6.625   5.551  18.245  0.00  0.00    +0.000 A 
ATOM     28 CL   UNL     1       7.534   5.596  19.714  0.00  0.00    +0.000 Cl
ENDBRANCH  21  22
ENDBRANCH  20  21
ENDBRANCH   3  15
TORSDOF 4
ENDMDL
MODEL 4
REMARK VINA RESULT:      -8.6      3.806      7.584
REMARK  Name = 
REMARK  5 active torsions:
REMARK  status: ('A' for Active; 'I' for Inactive)
REMARK    1  A    between atoms: C_1  and  C_2
REMARK    2  A    between atoms: C_8  and  C_9
REMARK    3  A    between atoms: N_11  and  C_12
REMARK    4  A    between atoms: C_17  and  O_18
REMARK    5  A    between atoms: O_18  and  C_19
REMARK                            x       y       z     vdW  Elec       q    Type
REMARK                         _______ _______ _______ _____ _____    ______ ____
ROOT
ATOM      1  C   UNL     1       4.067   3.866  17.105  0.00  0.00    +0.000 C 
ATOM      2  O   UNL     1       3.047   3.476  16.540  0.00  0.00    +0.000 OA
ATOM      3  N   UNL     1       4.242   3.974  18.473  0.00  0.00    +0.000 N 
ATOM      4  H   UNL     1       5.076   4.435  18.806  0.00  0.00    +0.000 HD
ENDROOT
BRANCH   1  12
ATOM      5  C   UNL     1       5.764   3.049  12.017  0.00  0.00    +0.000 C 
ATOM      6  C   UNL     1       6.537   4.021  12.824  0.00  0.00    +0.000 A 
ATOM      7  N   UNL     1       7.600   4.697  12.436  0.00  0.00    +0.000 NA
ATOM      8  N   UNL     1       8.046   5.448  13.499  0.00  0.00    +0.000 NA
ATOM      9  C   UNL     1       7.247   5.223  14.516  0.00  0.00    +0.000 A 
ATOM     10  C   UNL     1       7.239   5.676  15.865  0.00  0.00    +0.000 A 
ATOM     11  C   UNL     1       6.266   5.272  16.708  0.00  0.00    +0.000 A 
ATOM     12  C   UNL     1       5.194   4.383  16.254  0.00  0.00    +0.000 A 
ATOM     13  C   UNL     1       5.228   3.932  14.981  0.00  0.00    +0.000 A 
ATOM     14  N   UNL     1       6.250   4.340  14.133  0.00  0.00    +0.000 N 
ENDBRANCH   1  12
BRANCH   3  15
ATOM     15  C   UNL     1       3.232   3.739  19.451  0.00  0.00    +0.000 A 
ATOM     16  C   UNL     1       2.733   2.442  19.656  0.00  0.00    +0.000 A 
ATOM     17  C   UNL     1       1.750   2.167  20.610  0.00  0.00    +0.000 A 
ATOM     18  C   UNL     1       1.249   3.188  21.399  0.00  0.00    +0.000 A 
ATOM     19  C   UNL     1       1.733   4.483  21.228  0.00  0.00    +0.000 A 
ATOM     20  C   UNL     1       2.708   4.776  20.254  0.00  0.00    +0.000 A 
BRANCH  20  21
ATOM     21  O   UNL     1       3.085   6.101  20.298  0.00  0.00    +0.000 OA
BRANCH  21  22
ATOM     22  C   UNL     1       2.601   7.057  19.442  0.00  0.00    +0.000 A 
ATOM     23  C   UNL     1       2.903   7.121  18.079  0.00  0.00    +0.000 A 
ATOM     24  C   UNL     1       2.502   8.229  17.328  0.00  0.00    +0.000 A 
ATOM     25  C   UNL     1       1.726   9.230  17.910  0.00  0.00    +0.000 A 
ATOM     26  C   UNL     1       1.313   9.106  19.235  0.00  0.00    +0.000 A 
ATOM     27  C   UNL     1       1.743   8.019  19.997  0.00  0.00    +0.000 A 
ATOM     28 CL   UNL     1       1.205   7.908  21.636  0.00  0.00    +0.000 Cl
ENDBRANCH  21  22
ENDBRANCH  20  21
ENDBRANCH   3  15
TORSDOF 4
ENDMDL
MODEL 5
REMARK VINA RESULT:      -8.5      2.029      4.042
REMARK  Name = 
REMARK  5 active torsions:
REMARK  status: ('A' for Active; 'I' for Inactive)
REMARK    1  A    between atoms: C_1  and  C_2
REMARK    2  A    between atoms: C_8  and  C_9
REMARK    3  A    between atoms: N_11  and  C_12
REMARK    4  A    between atoms: C_17  and  O_18
REMARK    5  A    between atoms: O_18  and  C_19
REMARK                            x       y       z     vdW  Elec       q    Type
REMARK                         _______ _______ _______ _____ _____    ______ ____
ROOT
ATOM      1  C   UNL     1       3.100   7.102  18.771  0.00  0.00    +0.000 C 
ATOM      2  O   UNL     1       3.398   6.471  19.782  0.00  0.00    +0.000 OA
ATOM      3  N   UNL     1       3.724   7.000  17.540  0.00  0.00    +0.000 N 
ATOM      4  H   UNL     1       3.474   7.670  16.828  0.00  0.00    +0.000 HD
ENDROOT
BRANCH   1  12
ATOM      5  C   UNL     1       0.270   9.322  22.833  0.00  0.00    +0.000 C 
ATOM      6  C   UNL     1       0.009   9.856  21.477  0.00  0.00    +0.000 A 
ATOM      7  N   UNL     1      -0.848  10.805  21.155  0.00  0.00    +0.000 NA
ATOM      8  N   UNL     1      -0.823  10.964  19.789  0.00  0.00    +0.000 NA
ATOM      9  C   UNL     1       0.050  10.116  19.298  0.00  0.00    +0.000 A 
ATOM     10  C   UNL     1       0.463   9.801  17.973  0.00  0.00    +0.000 A 
ATOM     11  C   UNL     1       1.409   8.863  17.764  0.00  0.00    +0.000 A 
ATOM     12  C   UNL     1       2.043   8.167  18.886  0.00  0.00    +0.000 A 
ATOM     13  C   UNL     1       1.622   8.448  20.139  0.00  0.00    +0.000 A 
ATOM     14  N   UNL     1       0.631   9.402  20.334  0.00  0.00    +0.000 N 
ENDBRANCH   1  12
BRANCH   3  15
ATOM     15  C   UNL     1       4.879   6.210  17.269  0.00  0.00    +0.000 A 
ATOM     16  C   UNL     1       6.149   6.809  17.214  0.00  0.00    +0.000 A 
ATOM     17  C   UNL     1       7.307   6.070  16.960  0.00  0.00    +0.000 A 
ATOM     18  C   UNL     1       7.226   4.702  16.769  0.00  0.00    +0.000 A 
ATOM     19  C   UNL     1       5.982   4.077  16.831  0.00  0.00    +0.000 A 
ATOM     20  C   UNL     1       4.804   4.815  17.064  0.00  0.00    +0.000 A 
BRANCH  20  21
ATOM     21  O   UNL     1       3.700   3.993  17.145  0.00  0.00    +0.000 OA
BRANCH  21  22
ATOM     22  C   UNL     1       3.143   3.585  18.330  0.00  0.00    +0.000 A 
ATOM     23  C   UNL     1       3.864   3.029  19.390  0.00  0.00    +0.000 A 
ATOM     24  C   UNL     1       3.187   2.485  20.484  0.00  0.00    +0.000 A 
ATOM     25  C   UNL     1       1.797   2.573  20.566  0.00  0.00    +0.000 A 
ATOM     26  C   UNL     1       1.084   3.242  19.573  0.00  0.00    +0.000 A 
ATOM     27  C   UNL     1       1.756   3.753  18.461  0.00  0.00    +0.000 A 
ATOM     28 CL   UNL     1       0.830   4.576  17.256  0.00  0.00    +0.000 Cl
ENDBRANCH  21  22
ENDBRANCH  20  21
ENDBRANCH   3  15
TORSDOF 4
ENDMDL
MODEL 6
REMARK VINA RESULT:      -8.5      1.821      2.273
REMARK  Name = 
REMARK  5 active torsions:
REMARK  status: ('A' for Active; 'I' for Inactive)
REMARK    1  A    between atoms: C_1  and  C_2
REMARK    2  A    between atoms: C_8  and  C_9
REMARK    3  A    between atoms: N_11  and  C_12
REMARK    4  A    between atoms: C_17  and  O_18
REMARK    5  A    between atoms: O_18  and  C_19
REMARK                            x       y       z     vdW  Elec       q    Type
REMARK                         _______ _______ _______ _____ _____    ______ ____
ROOT
ATOM      1  C   UNL     1       2.652   6.431  19.318  0.00  0.00    +0.000 C 
ATOM      2  O   UNL     1       3.615   6.259  20.062  0.00  0.00    +0.000 OA
ATOM      3  N   UNL     1       2.029   5.453  18.563  0.00  0.00    +0.000 N 
ATOM      4  H   UNL     1       1.336   5.746  17.891  0.00  0.00    +0.000 HD
ENDROOT
BRANCH   1  12
ATOM      5  C   UNL     1      -0.192  10.012  22.238  0.00  0.00    +0.000 C 
ATOM      6  C   UNL     1       0.266  10.462  20.903  0.00  0.00    +0.000 A 
ATOM      7  N   UNL     1       0.043  11.637  20.349  0.00  0.00    +0.000 NA
ATOM      8  N   UNL     1       0.591  11.631  19.087  0.00  0.00    +0.000 NA
ATOM      9  C   UNL     1       1.144  10.456  18.892  0.00  0.00    +0.000 A 
ATOM     10  C   UNL     1       1.809   9.866  17.781  0.00  0.00    +0.000 A 
ATOM     11  C   UNL     1       2.291   8.610  17.871  0.00  0.00    +0.000 A 
ATOM     12  C   UNL     1       2.160   7.837  19.109  0.00  0.00    +0.000 A 
ATOM     13  C   UNL     1       1.498   8.392  20.147  0.00  0.00    +0.000 A 
ATOM     14  N   UNL     1       0.989   9.680  20.030  0.00  0.00    +0.000 N 
ENDBRANCH   1  12
BRANCH   3  15
ATOM     15  C   UNL     1       2.466   4.100  18.451  0.00  0.00    +0.000 A 
ATOM     16  C   UNL     1       1.766   3.074  19.109  0.00  0.00    +0.000 A 
ATOM     17  C   UNL     1       2.156   1.735  19.018  0.00  0.00    +0.000 A 
ATOM     18  C   UNL     1       3.253   1.385  18.250  0.00  0.00    +0.000 A 
ATOM     19  C   UNL     1       3.958   2.379  17.575  0.00  0.00    +0.000 A 
ATOM     20  C   UNL     1       3.589   3.735  17.677  0.00  0.00    +0.000 A 
BRANCH  20  21
ATOM     21  O   UNL     1       4.383   4.537  16.885  0.00  0.00    +0.000 OA
BRANCH  21  22
ATOM     22  C   UNL     1       5.514   5.166  17.335  0.00  0.00    +0.000 A 
ATOM     23  C   UNL     1       6.354   4.661  18.332  0.00  0.00    +0.000 A 
ATOM     24  C   UNL     1       7.383   5.455  18.844  0.00  0.00    +0.000 A 
ATOM     25  C   UNL     1       7.634   6.716  18.304  0.00  0.00    +0.000 A 
ATOM     26  C   UNL     1       6.882   7.171  17.223  0.00  0.00    +0.000 A 
ATOM     27  C   UNL     1       5.830   6.395  16.734  0.00  0.00    +0.000 A 
ATOM     28 CL   UNL     1       4.926   6.999  15.391  0.00  0.00    +0.000 Cl
ENDBRANCH  21  22
ENDBRANCH  20  21
ENDBRANCH   3  15
TORSDOF 4
ENDMDL
MODEL 7
REMARK VINA RESULT:      -8.4      1.833      4.125
REMARK  Name = 
REMARK  5 active torsions:
REMARK  status: ('A' for Active; 'I' for Inactive)
REMARK    1  A    between atoms: C_1  and  C_2
REMARK    2  A    between atoms: C_8  and  C_9
REMARK    3  A    between atoms: N_11  and  C_12
REMARK    4  A    between atoms: C_17  and  O_18
REMARK    5  A    between atoms: O_18  and  C_19
REMARK                            x       y       z     vdW  Elec       q    Type
REMARK                         _______ _______ _______ _____ _____    ______ ____
ROOT
ATOM      1  C   UNL     1       2.665   8.003  18.169  0.00  0.00    +0.000 C 
ATOM      2  O   UNL     1       2.585   8.478  17.039  0.00  0.00    +0.000 OA
ATOM      3  N   UNL     1       3.439   6.917  18.538  0.00  0.00    +0.000 N 
ATOM      4  H   UNL     1       3.313   6.542  19.466  0.00  0.00    +0.000 HD
ENDROOT
BRANCH   1  12
ATOM      5  C   UNL     1      -0.611  12.306  18.606  0.00  0.00    +0.000 C 
ATOM      6  C   UNL     1      -0.548  11.402  19.777  0.00  0.00    +0.000 A 
ATOM      7  N   UNL     1      -1.196  11.542  20.916  0.00  0.00    +0.000 NA
ATOM      8  N   UNL     1      -0.819  10.520  21.757  0.00  0.00    +0.000 NA
ATOM      9  C   UNL     1       0.048   9.770  21.117  0.00  0.00    +0.000 A 
ATOM     10  C   UNL     1       0.800   8.620  21.488  0.00  0.00    +0.000 A 
ATOM     11  C   UNL     1       1.632   8.040  20.600  0.00  0.00    +0.000 A 
ATOM     12  C   UNL     1       1.766   8.563  19.238  0.00  0.00    +0.000 A 
ATOM     13  C   UNL     1       1.073   9.674  18.904  0.00  0.00    +0.000 A 
ATOM     14  N   UNL     1       0.237  10.271  19.840  0.00  0.00    +0.000 N 
ENDBRANCH   1  12
BRANCH   3  15
ATOM     15  C   UNL     1       4.201   6.111  17.643  0.00  0.00    +0.000 A 
ATOM     16  C   UNL     1       5.445   6.560  17.170  0.00  0.00    +0.000 A 
ATOM     17  C   UNL     1       6.227   5.796  16.299  0.00  0.00    +0.000 A 
ATOM     18  C   UNL     1       5.787   4.550  15.888  0.00  0.00    +0.000 A 
ATOM     19  C   UNL     1       4.563   4.072  16.350  0.00  0.00    +0.000 A 
ATOM     20  C   UNL     1       3.755   4.842  17.211  0.00  0.00    +0.000 A 
BRANCH  20  21
ATOM     21  O   UNL     1       2.622   4.155  17.590  0.00  0.00    +0.000 OA
BRANCH  21  22
ATOM     22  C   UNL     1       2.339   3.815  18.888  0.00  0.00    +0.000 A 
ATOM     23  C   UNL     1       1.608   4.614  19.771  0.00  0.00    +0.000 A 
ATOM     24  C   UNL     1       1.521   4.261  21.120  0.00  0.00    +0.000 A 
ATOM     25  C   UNL     1       2.085   3.069  21.574  0.00  0.00    +0.000 A 
ATOM     26  C   UNL     1       2.703   2.206  20.671  0.00  0.00    +0.000 A 
ATOM     27  C   UNL     1       2.823   2.574  19.330  0.00  0.00    +0.000 A 
ATOM     28 CL   UNL     1       3.595   1.471  18.248  0.00  0.00    +0.000 Cl
ENDBRANCH  21  22
ENDBRANCH  20  21
ENDBRANCH   3  15
TORSDOF 4
ENDMDL
MODEL 8
REMARK VINA RESULT:      -8.4      3.652      7.892
REMARK  Name = 
REMARK  5 active torsions:
REMARK  status: ('A' for Active; 'I' for Inactive)
REMARK    1  A    between atoms: C_1  and  C_2
REMARK    2  A    between atoms: C_8  and  C_9
REMARK    3  A    between atoms: N_11  and  C_12
REMARK    4  A    between atoms: C_17  and  O_18
REMARK    5  A    between atoms: O_18  and  C_19
REMARK                            x       y       z     vdW  Elec       q    Type
REMARK                         _______ _______ _______ _____ _____    ______ ____
ROOT
ATOM      1  C   UNL     1       5.002   4.306  17.470  0.00  0.00    +0.000 C 
ATOM      2  O   UNL     1       5.544   3.882  18.488  0.00  0.00    +0.000 OA
ATOM      3  N   UNL     1       3.640   4.458  17.282  0.00  0.00    +0.000 N 
ATOM      4  H   UNL     1       3.314   4.687  16.354  0.00  0.00    +0.000 HD
ENDROOT
BRANCH   1  12
ATOM      5  C   UNL     1       4.982   2.808  12.255  0.00  0.00    +0.000 C 
ATOM      6  C   UNL     1       6.061   3.733  12.674  0.00  0.00    +0.000 A 
ATOM      7  N   UNL     1       7.021   4.218  11.912  0.00  0.00    +0.000 NA
ATOM      8  N   UNL     1       7.845   4.992  12.696  0.00  0.00    +0.000 NA
ATOM      9  C   UNL     1       7.373   4.972  13.921  0.00  0.00    +0.000 A 
ATOM     10  C   UNL     1       7.821   5.541  15.146  0.00  0.00    +0.000 A 
ATOM     11  C   UNL     1       7.113   5.354  16.278  0.00  0.00    +0.000 A 
ATOM     12  C   UNL     1       5.867   4.584  16.271  0.00  0.00    +0.000 A 
ATOM     13  C   UNL     1       5.466   4.019  15.110  0.00  0.00    +0.000 A 
ATOM     14  N   UNL     1       6.220   4.205  13.958  0.00  0.00    +0.000 N 
ENDBRANCH   1  12
BRANCH   3  15
ATOM     15  C   UNL     1       2.634   4.057  18.209  0.00  0.00    +0.000 A 
ATOM     16  C   UNL     1       1.948   2.844  18.029  0.00  0.00    +0.000 A 
ATOM     17  C   UNL     1       0.962   2.410  18.919  0.00  0.00    +0.000 A 
ATOM     18  C   UNL     1       0.646   3.177  20.026  0.00  0.00    +0.000 A 
ATOM     19  C   UNL     1       1.318   4.378  20.240  0.00  0.00    +0.000 A 
ATOM     20  C   UNL     1       2.298   4.837  19.338  0.00  0.00    +0.000 A 
BRANCH  20  21
ATOM     21  O   UNL     1       2.875   6.012  19.771  0.00  0.00    +0.000 OA
BRANCH  21  22
ATOM     22  C   UNL     1       2.206   7.207  19.835  0.00  0.00    +0.000 A 
ATOM     23  C   UNL     1       1.469   7.640  20.942  0.00  0.00    +0.000 A 
ATOM     24  C   UNL     1       0.681   8.790  20.847  0.00  0.00    +0.000 A 
ATOM     25  C   UNL     1       0.694   9.558  19.684  0.00  0.00    +0.000 A 
ATOM     26  C   UNL     1       1.527   9.201  18.625  0.00  0.00    +0.000 A 
ATOM     27  C   UNL     1       2.286   8.033  18.703  0.00  0.00    +0.000 A 
ATOM     28 CL   UNL     1       3.305   7.631  17.366  0.00  0.00    +0.000 Cl
ENDBRANCH  21  22
ENDBRANCH  20  21
ENDBRANCH   3  15
TORSDOF 4
ENDMDL
MODEL 9
REMARK VINA RESULT:      -8.4      2.072      4.391
REMARK  Name = 
REMARK  5 active torsions:
REMARK  status: ('A' for Active; 'I' for Inactive)
REMARK    1  A    between atoms: C_1  and  C_2
REMARK    2  A    between atoms: C_8  and  C_9
REMARK    3  A    between atoms: N_11  and  C_12
REMARK    4  A    between atoms: C_17  and  O_18
REMARK    5  A    between atoms: O_18  and  C_19
REMARK                            x       y       z     vdW  Elec       q    Type
REMARK                         _______ _______ _______ _____ _____    ______ ____
ROOT
ATOM      1  C   UNL     1       3.337   7.366  17.837  0.00  0.00    +0.000 C 
ATOM      2  O   UNL     1       3.216   7.879  16.727  0.00  0.00    +0.000 OA
ATOM      3  N   UNL     1       4.216   6.350  18.166  0.00  0.00    +0.000 N 
ATOM      4  H   UNL     1       4.124   5.923  19.076  0.00  0.00    +0.000 HD
ENDROOT
BRANCH   1  12
ATOM      5  C   UNL     1       0.168  11.675  18.745  0.00  0.00    +0.000 C 
ATOM      6  C   UNL     1       0.119  10.594  19.756  0.00  0.00    +0.000 A 
ATOM      7  N   UNL     1      -0.605  10.578  20.857  0.00  0.00    +0.000 NA
ATOM      8  N   UNL     1      -0.320   9.420  21.545  0.00  0.00    +0.000 NA
ATOM      9  C   UNL     1       0.568   8.746  20.851  0.00  0.00    +0.000 A 
ATOM     10  C   UNL     1       1.257   7.522  21.080  0.00  0.00    +0.000 A 
ATOM     11  C   UNL     1       2.133   7.058  20.167  0.00  0.00    +0.000 A 
ATOM     12  C   UNL     1       2.380   7.785  18.919  0.00  0.00    +0.000 A 
ATOM     13  C   UNL     1       1.747   8.963  18.725  0.00  0.00    +0.000 A 
ATOM     14  N   UNL     1       0.864   9.437  19.687  0.00  0.00    +0.000 N 
ENDBRANCH   1  12
BRANCH   3  15
ATOM     15  C   UNL     1       5.060   5.664  17.244  0.00  0.00    +0.000 A 
ATOM     16  C   UNL     1       6.249   6.263  16.793  0.00  0.00    +0.000 A 
ATOM     17  C   UNL     1       7.108   5.622  15.897  0.00  0.00    +0.000 A 
ATOM     18  C   UNL     1       6.806   4.351  15.439  0.00  0.00    +0.000 A 
ATOM     19  C   UNL     1       5.641   3.726  15.879  0.00  0.00    +0.000 A 
ATOM     20  C   UNL     1       4.755   4.371  16.765  0.00  0.00    +0.000 A 
BRANCH  20  21
ATOM     21  O   UNL     1       3.703   3.552  17.114  0.00  0.00    +0.000 OA
BRANCH  21  22
ATOM     22  C   UNL     1       3.284   3.364  18.406  0.00  0.00    +0.000 A 
ATOM     23  C   UNL     1       4.080   2.829  19.422  0.00  0.00    +0.000 A 
ATOM     24  C   UNL     1       3.511   2.515  20.660  0.00  0.00    +0.000 A 
ATOM     25  C   UNL     1       2.174   2.814  20.916  0.00  0.00    +0.000 A 
ATOM     26  C   UNL     1       1.410   3.465  19.949  0.00  0.00    +0.000 A 
ATOM     27  C   UNL     1       1.966   3.747  18.700  0.00  0.00    +0.000 A 
ATOM     28 CL   UNL     1       0.982   4.557  17.533  0.00  0.00    +0.000 Cl
ENDBRANCH  21  22
ENDBRANCH  20  21
ENDBRANCH   3  15
TORSDOF 4
ENDMDL
