MODEL 1
REMARK VINA RESULT:      -9.1      0.000      0.000
REMARK  Name = 
REMARK  6 active torsions:
REMARK  status: ('A' for Active; 'I' for Inactive)
REMARK    1  A    between atoms: C_1  and  N_2
REMARK    2  A    between atoms: C_6  and  C_7
REMARK    3  A    between atoms: C_7  and  C_8
REMARK    4  A    between atoms: C_8  and  C_9
REMARK    5  A    between atoms: C_12  and  N_13
REMARK    6  A    between atoms: C_18  and  C_19
REMARK                            x       y       z     vdW  Elec       q    Type
REMARK                         _______ _______ _______ _____ _____    ______ ____
ROOT
ATOM      1  C   UNL     1       1.344   9.052  19.099  0.00  0.00    +0.000 A 
ATOM      2  C   UNL     1       1.410   8.465  20.375  0.00  0.00    +0.000 A 
ATOM      3  C   UNL     1       1.935   7.190  20.566  0.00  0.00    +0.000 A 
ATOM      4  C   UNL     1       2.305   6.427  19.453  0.00  0.00    +0.000 A 
ATOM      5  C   UNL     1       2.544   7.095  18.252  0.00  0.00    +0.000 A 
ATOM      6  C   UNL     1       2.051   8.392  18.078  0.00  0.00    +0.000 A 
ENDROOT
BRANCH   4   7
ATOM      7  N   UNL     1       2.034   4.985  19.441  0.00  0.00    +0.000 N 
ATOM      8  C   UNL     1       3.082   4.215  20.154  0.00  0.00    +0.000 C 
ATOM      9  C   UNL     1       4.085   4.002  19.062  0.00  0.00    +0.000 A 
ATOM     10  C   UNL     1       5.464   4.107  19.100  0.00  0.00    +0.000 A 
ATOM     11  C   UNL     1       6.139   4.273  17.885  0.00  0.00    +0.000 A 
ATOM     12  C   UNL     1       5.445   4.311  16.651  0.00  0.00    +0.000 A 
ATOM     13  C   UNL     1       4.050   4.135  16.628  0.00  0.00    +0.000 A 
ATOM     14  C   UNL     1       3.401   4.003  17.846  0.00  0.00    +0.000 A 
ATOM     15  C   UNL     1       2.004   4.409  18.139  0.00  0.00    +0.000 C 
ATOM     16  O   UNL     1       1.109   4.435  17.309  0.00  0.00    +0.000 OA
BRANCH  12  17
ATOM     17  C   UNL     1       6.162   4.680  15.369  0.00  0.00    +0.000 C 
ATOM     18  F   UNL     1       7.393   5.228  15.573  0.00  0.00    +0.000 F 
ATOM     19  F   UNL     1       6.357   3.614  14.550  0.00  0.00    +0.000 F 
ATOM     20  F   UNL     1       5.469   5.596  14.640  0.00  0.00    +0.000 F 
ENDBRANCH  12  17
ENDBRANCH   4   7
BRANCH   1  21
ATOM     21  C   UNL     1       0.445  10.357  18.835  0.00  0.00    +0.000 C 
ATOM     22  C   UNL     1      -0.757  10.233  17.848  0.00  0.00    +0.000 C 
ATOM     23  O   UNL     1      -1.722  10.524  18.880  0.00  0.00    +0.000 OA
ATOM     24  C   UNL     1      -0.691  10.589  19.881  0.00  0.00    +0.000 C 
BRANCH  21  25
ATOM     25  C   UNL     1       1.339  11.593  18.648  0.00  0.00    +0.000 C 
BRANCH  25  31
ATOM     26  C   UNL     1      -0.382  14.258  18.676  0.00  0.00    +0.000 C 
ATOM     27  N   UNL     1       0.447  13.739  19.727  0.00  0.00    +0.000 N 
ATOM     28  C   UNL     1       0.655  14.347  20.930  0.00  0.00    +0.000 A 
ATOM     29  N   UNL     1       1.448  13.610  21.667  0.00  0.00    +0.000 NA
ATOM     30  N   UNL     1       1.786  12.506  20.930  0.00  0.00    +0.000 NA
ATOM     31  C   UNL     1       1.190  12.584  19.755  0.00  0.00    +0.000 A 
ENDBRANCH  25  31
ENDBRANCH  21  25
ENDBRANCH   1  21
TORSDOF 5
ENDMDL
MODEL 2
REMARK VINA RESULT:      -8.7      1.934      2.586
REMARK  Name = 
REMARK  6 active torsions:
REMARK  status: ('A' for Active; 'I' for Inactive)
REMARK    1  A    between atoms: C_1  and  N_2
REMARK    2  A    between atoms: C_6  and  C_7
REMARK    3  A    between atoms: C_7  and  C_8
REMARK    4  A    between atoms: C_8  and  C_9
REMARK    5  A    between atoms: C_12  and  N_13
REMARK    6  A    between atoms: C_18  and  C_19
REMARK                            x       y       z     vdW  Elec       q    Type
REMARK                         _______ _______ _______ _____ _____    ______ ____
ROOT
ATOM      1  C   UNL     1       1.372   8.882  19.678  0.00  0.00    +0.000 A 
ATOM      2  C   UNL     1       1.541   8.134  20.856  0.00  0.00    +0.000 A 
ATOM      3  C   UNL     1       2.056   6.841  20.831  0.00  0.00    +0.000 A 
ATOM      4  C   UNL     1       2.309   6.227  19.600  0.00  0.00    +0.000 A 
ATOM      5  C   UNL     1       2.452   7.044  18.478  0.00  0.00    +0.000 A 
ATOM      6  C   UNL     1       1.972   8.356  18.519  0.00  0.00    +0.000 A 
ENDROOT
BRANCH   4   7
ATOM      7  N   UNL     1       2.010   4.801  19.426  0.00  0.00    +0.000 N 
ATOM      8  C   UNL     1       3.057   3.934  20.020  0.00  0.00    +0.000 C 
ATOM      9  C   UNL     1       4.033   3.834  18.888  0.00  0.00    +0.000 A 
ATOM     10  C   UNL     1       5.415   3.910  18.907  0.00  0.00    +0.000 A 
ATOM     11  C   UNL     1       6.067   4.205  17.704  0.00  0.00    +0.000 A 
ATOM     12  C   UNL     1       5.348   4.399  16.499  0.00  0.00    +0.000 A 
ATOM     13  C   UNL     1       3.950   4.250  16.489  0.00  0.00    +0.000 A 
ATOM     14  C   UNL     1       3.324   3.989  17.697  0.00  0.00    +0.000 A 
ATOM     15  C   UNL     1       1.941   4.381  18.067  0.00  0.00    +0.000 C 
ATOM     16  O   UNL     1       1.030   4.519  17.266  0.00  0.00    +0.000 OA
BRANCH  12  17
ATOM     17  C   UNL     1       6.046   4.902  15.253  0.00  0.00    +0.000 C 
ATOM     18  F   UNL     1       7.388   5.076  15.414  0.00  0.00    +0.000 F 
ATOM     19  F   UNL     1       5.901   4.065  14.194  0.00  0.00    +0.000 F 
ATOM     20  F   UNL     1       5.566   6.110  14.850  0.00  0.00    +0.000 F 
ENDBRANCH  12  17
ENDBRANCH   4   7
BRANCH   1  21
ATOM     21  C   UNL     1       0.479  10.218  19.668  0.00  0.00    +0.000 C 
ATOM     22  C   UNL     1       0.884  11.379  20.627  0.00  0.00    +0.000 C 
ATOM     23  O   UNL     1       1.151  12.280  19.532  0.00  0.00    +0.000 OA
ATOM     24  C   UNL     1       0.866  11.255  18.566  0.00  0.00    +0.000 C 
BRANCH  21  25
ATOM     25  C   UNL     1      -1.016   9.861  19.645  0.00  0.00    +0.000 C 
BRANCH  25  31
ATOM     26  C   UNL     1      -3.055  12.272  19.343  0.00  0.00    +0.000 C 
ATOM     27  N   UNL     1      -2.595  11.379  18.316  0.00  0.00    +0.000 N 
ATOM     28  C   UNL     1      -3.001  11.411  17.015  0.00  0.00    +0.000 A 
ATOM     29  N   UNL     1      -2.384  10.475  16.337  0.00  0.00    +0.000 NA
ATOM     30  N   UNL     1      -1.573   9.801  17.210  0.00  0.00    +0.000 NA
ATOM     31  C   UNL     1      -1.703  10.338  18.409  0.00  0.00    +0.000 A 
ENDBRANCH  25  31
ENDBRANCH  21  25
ENDBRANCH   1  21
TORSDOF 5
ENDMDL
MODEL 3
REMARK VINA RESULT:      -8.6      1.345      1.793
REMARK  Name = 
REMARK  6 active torsions:
REMARK  status: ('A' for Active; 'I' for Inactive)
REMARK    1  A    between atoms: C_1  and  N_2
REMARK    2  A    between atoms: C_6  and  C_7
REMARK    3  A    between atoms: C_7  and  C_8
REMARK    4  A    between atoms: C_8  and  C_9
REMARK    5  A    between atoms: C_12  and  N_13
REMARK    6  A    between atoms: C_18  and  C_19
REMARK                            x       y       z     vdW  Elec       q    Type
REMARK                         _______ _______ _______ _____ _____    ______ ____
ROOT
ATOM      1  C   UNL     1       1.257   8.919  19.676  0.00  0.00    +0.000 A 
ATOM      2  C   UNL     1       1.505   8.198  20.857  0.00  0.00    +0.000 A 
ATOM      3  C   UNL     1       2.059   6.921  20.830  0.00  0.00    +0.000 A 
ATOM      4  C   UNL     1       2.271   6.292  19.599  0.00  0.00    +0.000 A 
ATOM      5  C   UNL     1       2.334   7.092  18.457  0.00  0.00    +0.000 A 
ATOM      6  C   UNL     1       1.815   8.389  18.499  0.00  0.00    +0.000 A 
ENDROOT
BRANCH   4   7
ATOM      7  N   UNL     1       2.008   4.855  19.464  0.00  0.00    +0.000 N 
ATOM      8  C   UNL     1       3.079   4.032  20.079  0.00  0.00    +0.000 C 
ATOM      9  C   UNL     1       4.055   3.926  18.948  0.00  0.00    +0.000 A 
ATOM     10  C   UNL     1       5.434   4.038  18.962  0.00  0.00    +0.000 A 
ATOM     11  C   UNL     1       6.077   4.317  17.750  0.00  0.00    +0.000 A 
ATOM     12  C   UNL     1       5.351   4.459  16.542  0.00  0.00    +0.000 A 
ATOM     13  C   UNL     1       3.957   4.274  16.538  0.00  0.00    +0.000 A 
ATOM     14  C   UNL     1       3.341   4.030  17.755  0.00  0.00    +0.000 A 
ATOM     15  C   UNL     1       1.949   4.396  18.117  0.00  0.00    +0.000 C 
ATOM     16  O   UNL     1       1.033   4.489  17.315  0.00  0.00    +0.000 OA
BRANCH  12  17
ATOM     17  C   UNL     1       6.034   4.946  15.281  0.00  0.00    +0.000 C 
ATOM     18  F   UNL     1       5.960   4.064  14.246  0.00  0.00    +0.000 F 
ATOM     19  F   UNL     1       5.514   6.112  14.817  0.00  0.00    +0.000 F 
ATOM     20  F   UNL     1       7.362   5.174  15.473  0.00  0.00    +0.000 F 
ENDBRANCH  12  17
ENDBRANCH   4   7
BRANCH   1  21
ATOM     21  C   UNL     1       0.323  10.226  19.687  0.00  0.00    +0.000 C 
ATOM     22  C   UNL     1       1.012  11.622  19.596  0.00  0.00    +0.000 C 
ATOM     23  O   UNL     1       0.380  11.927  18.335  0.00  0.00    +0.000 OA
ATOM     24  C   UNL     1      -0.247  10.634  18.291  0.00  0.00    +0.000 C 
BRANCH  21  25
ATOM     25  C   UNL     1      -0.774  10.090  20.756  0.00  0.00    +0.000 C 
BRANCH  25  31
ATOM     26  C   UNL     1      -2.648  12.606  20.283  0.00  0.00    +0.000 C 
ATOM     27  N   UNL     1      -1.720  12.394  21.359  0.00  0.00    +0.000 N 
ATOM     28  C   UNL     1      -1.470  13.284  22.361  0.00  0.00    +0.000 A 
ATOM     29  N   UNL     1      -0.585  12.783  23.187  0.00  0.00    +0.000 NA
ATOM     30  N   UNL     1      -0.231  11.549  22.710  0.00  0.00    +0.000 NA
ATOM     31  C   UNL     1      -0.908  11.313  21.602  0.00  0.00    +0.000 A 
ENDBRANCH  25  31
ENDBRANCH  21  25
ENDBRANCH   1  21
TORSDOF 5
ENDMDL
MODEL 4
REMARK VINA RESULT:      -8.6      0.651      1.358
REMARK  Name = 
REMARK  6 active torsions:
REMARK  status: ('A' for Active; 'I' for Inactive)
REMARK    1  A    between atoms: C_1  and  N_2
REMARK    2  A    between atoms: C_6  and  C_7
REMARK    3  A    between atoms: C_7  and  C_8
REMARK    4  A    between atoms: C_8  and  C_9
REMARK    5  A    between atoms: C_12  and  N_13
REMARK    6  A    between atoms: C_18  and  C_19
REMARK                            x       y       z     vdW  Elec       q    Type
REMARK                         _______ _______ _______ _____ _____    ______ ____
ROOT
ATOM      1  C   UNL     1       1.351   9.120  19.084  0.00  0.00    +0.000 A 
ATOM      2  C   UNL     1       1.474   8.543  20.360  0.00  0.00    +0.000 A 
ATOM      3  C   UNL     1       1.991   7.262  20.535  0.00  0.00    +0.000 A 
ATOM      4  C   UNL     1       2.293   6.485  19.411  0.00  0.00    +0.000 A 
ATOM      5  C   UNL     1       2.479   7.140  18.194  0.00  0.00    +0.000 A 
ATOM      6  C   UNL     1       1.996   8.443  18.034  0.00  0.00    +0.000 A 
ENDROOT
BRANCH   4   7
ATOM      7  N   UNL     1       2.002   5.047  19.425  0.00  0.00    +0.000 N 
ATOM      8  C   UNL     1       3.041   4.275  20.149  0.00  0.00    +0.000 C 
ATOM      9  C   UNL     1       4.038   4.029  19.058  0.00  0.00    +0.000 A 
ATOM     10  C   UNL     1       5.419   4.115  19.092  0.00  0.00    +0.000 A 
ATOM     11  C   UNL     1       6.092   4.250  17.872  0.00  0.00    +0.000 A 
ATOM     12  C   UNL     1       5.395   4.276  16.639  0.00  0.00    +0.000 A 
ATOM     13  C   UNL     1       3.998   4.119  16.623  0.00  0.00    +0.000 A 
ATOM     14  C   UNL     1       3.351   4.018  17.844  0.00  0.00    +0.000 A 
ATOM     15  C   UNL     1       1.960   4.449  18.133  0.00  0.00    +0.000 C 
ATOM     16  O   UNL     1       1.064   4.472  17.305  0.00  0.00    +0.000 OA
BRANCH  12  17
ATOM     17  C   UNL     1       6.115   4.612  15.349  0.00  0.00    +0.000 C 
ATOM     18  F   UNL     1       5.875   3.724  14.345  0.00  0.00    +0.000 F 
ATOM     19  F   UNL     1       5.776   5.833  14.861  0.00  0.00    +0.000 F 
ATOM     20  F   UNL     1       7.467   4.629  15.507  0.00  0.00    +0.000 F 
ENDBRANCH  12  17
ENDBRANCH   4   7
BRANCH   1  21
ATOM     21  C   UNL     1       0.458  10.436  18.855  0.00  0.00    +0.000 C 
ATOM     22  C   UNL     1      -0.911  10.276  18.126  0.00  0.00    +0.000 C 
ATOM     23  O   UNL     1      -1.656  10.712  19.282  0.00  0.00    +0.000 OA
ATOM     24  C   UNL     1      -0.454  10.824  20.063  0.00  0.00    +0.000 C 
BRANCH  21  25
ATOM     25  C   UNL     1       1.337  11.603  18.379  0.00  0.00    +0.000 C 
BRANCH  25  31
ATOM     26  C   UNL     1       2.441  13.410  20.741  0.00  0.00    +0.000 C 
ATOM     27  N   UNL     1       1.325  13.681  19.879  0.00  0.00    +0.000 N 
ATOM     28  C   UNL     1       0.521  14.778  19.965  0.00  0.00    +0.000 A 
ATOM     29  N   UNL     1      -0.392  14.731  19.026  0.00  0.00    +0.000 NA
ATOM     30  N   UNL     1      -0.199  13.572  18.323  0.00  0.00    +0.000 NA
ATOM     31  C   UNL     1       0.832  12.930  18.839  0.00  0.00    +0.000 A 
ENDBRANCH  25  31
ENDBRANCH  21  25
ENDBRANCH   1  21
TORSDOF 5
ENDMDL
MODEL 5
REMARK VINA RESULT:      -8.6      1.467      2.014
REMARK  Name = 
REMARK  6 active torsions:
REMARK  status: ('A' for Active; 'I' for Inactive)
REMARK    1  A    between atoms: C_1  and  N_2
REMARK    2  A    between atoms: C_6  and  C_7
REMARK    3  A    between atoms: C_7  and  C_8
REMARK    4  A    between atoms: C_8  and  C_9
REMARK    5  A    between atoms: C_12  and  N_13
REMARK    6  A    between atoms: C_18  and  C_19
REMARK                            x       y       z     vdW  Elec       q    Type
REMARK                         _______ _______ _______ _____ _____    ______ ____
ROOT
ATOM      1  C   UNL     1       1.326   8.943  19.601  0.00  0.00    +0.000 A 
ATOM      2  C   UNL     1       1.488   8.217  20.794  0.00  0.00    +0.000 A 
ATOM      3  C   UNL     1       2.003   6.924  20.797  0.00  0.00    +0.000 A 
ATOM      4  C   UNL     1       2.261   6.286  19.579  0.00  0.00    +0.000 A 
ATOM      5  C   UNL     1       2.411   7.081  18.443  0.00  0.00    +0.000 A 
ATOM      6  C   UNL     1       1.931   8.394  18.456  0.00  0.00    +0.000 A 
ENDROOT
BRANCH   4   7
ATOM      7  N   UNL     1       1.962   4.857  19.431  0.00  0.00    +0.000 N 
ATOM      8  C   UNL     1       2.986   4.003  20.081  0.00  0.00    +0.000 C 
ATOM      9  C   UNL     1       3.998   3.871  18.985  0.00  0.00    +0.000 A 
ATOM     10  C   UNL     1       5.379   3.942  19.048  0.00  0.00    +0.000 A 
ATOM     11  C   UNL     1       6.071   4.205  17.860  0.00  0.00    +0.000 A 
ATOM     12  C   UNL     1       5.393   4.371  16.627  0.00  0.00    +0.000 A 
ATOM     13  C   UNL     1       3.996   4.226  16.574  0.00  0.00    +0.000 A 
ATOM     14  C   UNL     1       3.330   3.998  17.767  0.00  0.00    +0.000 A 
ATOM     15  C   UNL     1       1.937   4.404  18.081  0.00  0.00    +0.000 C 
ATOM     16  O   UNL     1       1.053   4.524  17.248  0.00  0.00    +0.000 OA
BRANCH  12  17
ATOM     17  C   UNL     1       6.134   4.840  15.393  0.00  0.00    +0.000 C 
ATOM     18  F   UNL     1       5.552   5.910  14.783  0.00  0.00    +0.000 F 
ATOM     19  F   UNL     1       7.414   5.208  15.656  0.00  0.00    +0.000 F 
ATOM     20  F   UNL     1       6.207   3.871  14.440  0.00  0.00    +0.000 F 
ENDBRANCH  12  17
ENDBRANCH   4   7
BRANCH   1  21
ATOM     21  C   UNL     1       0.433  10.279  19.561  0.00  0.00    +0.000 C 
ATOM     22  C   UNL     1       0.182  10.953  18.178  0.00  0.00    +0.000 C 
ATOM     23  O   UNL     1      -1.242  10.734  18.253  0.00  0.00    +0.000 OA
ATOM     24  C   UNL     1      -1.108  10.032  19.501  0.00  0.00    +0.000 C 
BRANCH  21  25
ATOM     25  C   UNL     1       0.837  11.225  20.703  0.00  0.00    +0.000 C 
BRANCH  25  31
ATOM     26  C   UNL     1      -0.401   9.817  23.263  0.00  0.00    +0.000 C 
ATOM     27  N   UNL     1      -0.850  11.022  22.622  0.00  0.00    +0.000 N 
ATOM     28  C   UNL     1      -1.932  11.755  23.008  0.00  0.00    +0.000 A 
ATOM     29  N   UNL     1      -2.061  12.799  22.226  0.00  0.00    +0.000 NA
ATOM     30  N   UNL     1      -1.058  12.741  21.296  0.00  0.00    +0.000 NA
ATOM     31  C   UNL     1      -0.328  11.666  21.525  0.00  0.00    +0.000 A 
ENDBRANCH  25  31
ENDBRANCH  21  25
ENDBRANCH   1  21
TORSDOF 5
ENDMDL
MODEL 6
REMARK VINA RESULT:      -8.5      0.889      1.310
REMARK  Name = 
REMARK  6 active torsions:
REMARK  status: ('A' for Active; 'I' for Inactive)
REMARK    1  A    between atoms: C_1  and  N_2
REMARK    2  A    between atoms: C_6  and  C_7
REMARK    3  A    between atoms: C_7  and  C_8
REMARK    4  A    between atoms: C_8  and  C_9
REMARK    5  A    between atoms: C_12  and  N_13
REMARK    6  A    between atoms: C_18  and  C_19
REMARK                            x       y       z     vdW  Elec       q    Type
REMARK                         _______ _______ _______ _____ _____    ______ ____
ROOT
ATOM      1  C   UNL     1       1.088   9.022  19.567  0.00  0.00    +0.000 A 
ATOM      2  C   UNL     1       1.409   8.352  20.760  0.00  0.00    +0.000 A 
ATOM      3  C   UNL     1       2.013   7.097  20.753  0.00  0.00    +0.000 A 
ATOM      4  C   UNL     1       2.204   6.436  19.536  0.00  0.00    +0.000 A 
ATOM      5  C   UNL     1       2.192   7.198  18.368  0.00  0.00    +0.000 A 
ATOM      6  C   UNL     1       1.623   8.475  18.387  0.00  0.00    +0.000 A 
ENDROOT
BRANCH   4   7
ATOM      7  N   UNL     1       1.995   4.986  19.459  0.00  0.00    +0.000 N 
ATOM      8  C   UNL     1       3.075   4.229  20.139  0.00  0.00    +0.000 C 
ATOM      9  C   UNL     1       4.087   4.109  19.041  0.00  0.00    +0.000 A 
ATOM     10  C   UNL     1       5.460   4.270  19.088  0.00  0.00    +0.000 A 
ATOM     11  C   UNL     1       6.127   4.519  17.883  0.00  0.00    +0.000 A 
ATOM     12  C   UNL     1       5.433   4.583  16.650  0.00  0.00    +0.000 A 
ATOM     13  C   UNL     1       4.047   4.348  16.616  0.00  0.00    +0.000 A 
ATOM     14  C   UNL     1       3.404   4.135  17.825  0.00  0.00    +0.000 A 
ATOM     15  C   UNL     1       1.991   4.467  18.132  0.00  0.00    +0.000 C 
ATOM     16  O   UNL     1       1.096   4.492  17.302  0.00  0.00    +0.000 OA
BRANCH  12  17
ATOM     17  C   UNL     1       6.136   5.038  15.388  0.00  0.00    +0.000 C 
ATOM     18  F   UNL     1       6.269   4.055  14.454  0.00  0.00    +0.000 F 
ATOM     19  F   UNL     1       5.492   6.060  14.767  0.00  0.00    +0.000 F 
ATOM     20  F   UNL     1       7.398   5.481  15.636  0.00  0.00    +0.000 F 
ENDBRANCH  12  17
ENDBRANCH   4   7
BRANCH   1  21
ATOM     21  C   UNL     1       0.102  10.291  19.572  0.00  0.00    +0.000 C 
ATOM     22  C   UNL     1       0.367  11.430  18.540  0.00  0.00    +0.000 C 
ATOM     23  O   UNL     1      -0.899  11.218  17.880  0.00  0.00    +0.000 OA
ATOM     24  C   UNL     1      -1.205  10.106  18.738  0.00  0.00    +0.000 C 
BRANCH  21  25
ATOM     25  C   UNL     1      -0.175  10.746  21.013  0.00  0.00    +0.000 C 
BRANCH  25  31
ATOM     26  C   UNL     1      -1.839  13.377  21.630  0.00  0.00    +0.000 C 
ATOM     27  N   UNL     1      -0.412  13.243  21.541  0.00  0.00    +0.000 N 
ATOM     28  C   UNL     1       0.479  14.266  21.683  0.00  0.00    +0.000 A 
ATOM     29  N   UNL     1       1.701  13.808  21.560  0.00  0.00    +0.000 NA
ATOM     30  N   UNL     1       1.614  12.465  21.314  0.00  0.00    +0.000 NA
ATOM     31  C   UNL     1       0.340  12.119  21.293  0.00  0.00    +0.000 A 
ENDBRANCH  25  31
ENDBRANCH  21  25
ENDBRANCH   1  21
TORSDOF 5
ENDMDL
MODEL 7
REMARK VINA RESULT:      -8.4      0.790      1.055
REMARK  Name = 
REMARK  6 active torsions:
REMARK  status: ('A' for Active; 'I' for Inactive)
REMARK    1  A    between atoms: C_1  and  N_2
REMARK    2  A    between atoms: C_6  and  C_7
REMARK    3  A    between atoms: C_7  and  C_8
REMARK    4  A    between atoms: C_8  and  C_9
REMARK    5  A    between atoms: C_12  and  N_13
REMARK    6  A    between atoms: C_18  and  C_19
REMARK                            x       y       z     vdW  Elec       q    Type
REMARK                         _______ _______ _______ _____ _____    ______ ____
ROOT
ATOM      1  C   UNL     1       1.324   9.094  18.933  0.00  0.00    +0.000 A 
ATOM      2  C   UNL     1       1.420   8.560  20.230  0.00  0.00    +0.000 A 
ATOM      3  C   UNL     1       1.969   7.301  20.462  0.00  0.00    +0.000 A 
ATOM      4  C   UNL     1       2.332   6.501  19.374  0.00  0.00    +0.000 A 
ATOM      5  C   UNL     1       2.540   7.124  18.143  0.00  0.00    +0.000 A 
ATOM      6  C   UNL     1       2.024   8.405  17.927  0.00  0.00    +0.000 A 
ENDROOT
BRANCH   4   7
ATOM      7  N   UNL     1       2.084   5.055  19.423  0.00  0.00    +0.000 N 
ATOM      8  C   UNL     1       3.150   4.331  20.156  0.00  0.00    +0.000 C 
ATOM      9  C   UNL     1       4.147   4.089  19.065  0.00  0.00    +0.000 A 
ATOM     10  C   UNL     1       5.525   4.217  19.086  0.00  0.00    +0.000 A 
ATOM     11  C   UNL     1       6.186   4.343  17.859  0.00  0.00    +0.000 A 
ATOM     12  C   UNL     1       5.480   4.320  16.631  0.00  0.00    +0.000 A 
ATOM     13  C   UNL     1       4.089   4.122  16.629  0.00  0.00    +0.000 A 
ATOM     14  C   UNL     1       3.453   4.030  17.857  0.00  0.00    +0.000 A 
ATOM     15  C   UNL     1       2.052   4.426  18.145  0.00  0.00    +0.000 C 
ATOM     16  O   UNL     1       1.149   4.404  17.324  0.00  0.00    +0.000 OA
BRANCH  12  17
ATOM     17  C   UNL     1       6.181   4.647  15.328  0.00  0.00    +0.000 C 
ATOM     18  F   UNL     1       5.678   5.747  14.701  0.00  0.00    +0.000 F 
ATOM     19  F   UNL     1       7.509   4.881  15.490  0.00  0.00    +0.000 F 
ATOM     20  F   UNL     1       6.083   3.633  14.426  0.00  0.00    +0.000 F 
ENDBRANCH  12  17
ENDBRANCH   4   7
BRANCH   1  21
ATOM     21  C   UNL     1       0.400  10.374  18.634  0.00  0.00    +0.000 C 
ATOM     22  C   UNL     1      -0.911  10.158  17.818  0.00  0.00    +0.000 C 
ATOM     23  O   UNL     1      -1.745  10.575  18.919  0.00  0.00    +0.000 OA
ATOM     24  C   UNL     1      -0.602  10.737  19.776  0.00  0.00    +0.000 C 
BRANCH  21  25
ATOM     25  C   UNL     1       1.266  11.569  18.204  0.00  0.00    +0.000 C 
BRANCH  25  31
ATOM     26  C   UNL     1       3.012  14.217  18.153  0.00  0.00    +0.000 C 
ATOM     27  N   UNL     1       2.475  13.544  19.302  0.00  0.00    +0.000 N 
ATOM     28  C   UNL     1       2.665  13.933  20.595  0.00  0.00    +0.000 A 
ATOM     29  N   UNL     1       2.032  13.115  21.400  0.00  0.00    +0.000 NA
ATOM     30  N   UNL     1       1.432  12.159  20.626  0.00  0.00    +0.000 NA
ATOM     31  C   UNL     1       1.703  12.408  19.359  0.00  0.00    +0.000 A 
ENDBRANCH  25  31
ENDBRANCH  21  25
ENDBRANCH   1  21
TORSDOF 5
ENDMDL
MODEL 8
REMARK VINA RESULT:      -8.4      4.290      9.028
REMARK  Name = 
REMARK  6 active torsions:
REMARK  status: ('A' for Active; 'I' for Inactive)
REMARK    1  A    between atoms: C_1  and  N_2
REMARK    2  A    between atoms: C_6  and  C_7
REMARK    3  A    between atoms: C_7  and  C_8
REMARK    4  A    between atoms: C_8  and  C_9
REMARK    5  A    between atoms: C_12  and  N_13
REMARK    6  A    between atoms: C_18  and  C_19
REMARK                            x       y       z     vdW  Elec       q    Type
REMARK                         _______ _______ _______ _____ _____    ______ ____
ROOT
ATOM      1  C   UNL     1       2.521   7.367  18.769  0.00  0.00    +0.000 A 
ATOM      2  C   UNL     1       2.299   8.439  17.886  0.00  0.00    +0.000 A 
ATOM      3  C   UNL     1       1.539   9.545  18.257  0.00  0.00    +0.000 A 
ATOM      4  C   UNL     1       0.885   9.544  19.494  0.00  0.00    +0.000 A 
ATOM      5  C   UNL     1       1.346   8.666  20.477  0.00  0.00    +0.000 A 
ATOM      6  C   UNL     1       2.145   7.580  20.107  0.00  0.00    +0.000 A 
ENDROOT
BRANCH   4   7
ATOM      7  N   UNL     1      -0.463  10.112  19.602  0.00  0.00    +0.000 N 
ATOM      8  C   UNL     1      -0.768  11.042  18.487  0.00  0.00    +0.000 C 
ATOM      9  C   UNL     1      -0.218  12.329  19.019  0.00  0.00    +0.000 A 
ATOM     10  C   UNL     1       0.529  13.301  18.376  0.00  0.00    +0.000 A 
ATOM     11  C   UNL     1       1.267  14.186  19.171  0.00  0.00    +0.000 A 
ATOM     12  C   UNL     1       1.240  14.113  20.585  0.00  0.00    +0.000 A 
ATOM     13  C   UNL     1       0.421  13.162  21.219  0.00  0.00    +0.000 A 
ATOM     14  C   UNL     1      -0.276  12.277  20.412  0.00  0.00    +0.000 A 
ATOM     15  C   UNL     1      -0.674  10.893  20.774  0.00  0.00    +0.000 C 
ATOM     16  O   UNL     1      -0.900  10.520  21.914  0.00  0.00    +0.000 OA
BRANCH  12  17
ATOM     17  C   UNL     1       2.185  14.948  21.423  0.00  0.00    +0.000 C 
ATOM     18  F   UNL     1       1.611  15.454  22.550  0.00  0.00    +0.000 F 
ATOM     19  F   UNL     1       3.275  14.253  21.836  0.00  0.00    +0.000 F 
ATOM     20  F   UNL     1       2.659  16.025  20.738  0.00  0.00    +0.000 F 
ENDBRANCH  12  17
ENDBRANCH   4   7
BRANCH   1  21
ATOM     21  C   UNL     1       3.100   5.966  18.237  0.00  0.00    +0.000 C 
ATOM     22  C   UNL     1       4.231   5.999  17.164  0.00  0.00    +0.000 C 
ATOM     23  O   UNL     1       5.179   5.361  18.045  0.00  0.00    +0.000 OA
ATOM     24  C   UNL     1       4.228   5.348  19.124  0.00  0.00    +0.000 C 
BRANCH  21  25
ATOM     25  C   UNL     1       1.952   4.980  17.969  0.00  0.00    +0.000 C 
BRANCH  25  31
ATOM     26  C   UNL     1       2.995   1.988  18.120  0.00  0.00    +0.000 C 
ATOM     27  N   UNL     1       2.221   2.697  19.100  0.00  0.00    +0.000 N 
ATOM     28  C   UNL     1       1.774   2.167  20.274  0.00  0.00    +0.000 A 
ATOM     29  N   UNL     1       1.113   3.077  20.947  0.00  0.00    +0.000 NA
ATOM     30  N   UNL     1       1.108   4.221  20.194  0.00  0.00    +0.000 NA
ATOM     31  C   UNL     1       1.769   3.994  19.074  0.00  0.00    +0.000 A 
ENDBRANCH  25  31
ENDBRANCH  21  25
ENDBRANCH   1  21
TORSDOF 5
ENDMDL
MODEL 9
REMARK VINA RESULT:      -8.3      1.782      2.626
REMARK  Name = 
REMARK  6 active torsions:
REMARK  status: ('A' for Active; 'I' for Inactive)
REMARK    1  A    between atoms: C_1  and  N_2
REMARK    2  A    between atoms: C_6  and  C_7
REMARK    3  A    between atoms: C_7  and  C_8
REMARK    4  A    between atoms: C_8  and  C_9
REMARK    5  A    between atoms: C_12  and  N_13
REMARK    6  A    between atoms: C_18  and  C_19
REMARK                            x       y       z     vdW  Elec       q    Type
REMARK                         _______ _______ _______ _____ _____    ______ ____
ROOT
ATOM      1  C   UNL     1       1.289   9.070  19.098  0.00  0.00    +0.000 A 
ATOM      2  C   UNL     1       1.388   8.500  20.380  0.00  0.00    +0.000 A 
ATOM      3  C   UNL     1       1.942   7.239  20.578  0.00  0.00    +0.000 A 
ATOM      4  C   UNL     1       2.308   6.469  19.468  0.00  0.00    +0.000 A 
ATOM      5  C   UNL     1       2.514   7.127  18.255  0.00  0.00    +0.000 A 
ATOM      6  C   UNL     1       1.993   8.411  18.073  0.00  0.00    +0.000 A 
ENDROOT
BRANCH   4   7
ATOM      7  N   UNL     1       2.066   5.022  19.478  0.00  0.00    +0.000 N 
ATOM      8  C   UNL     1       3.137   4.282  20.189  0.00  0.00    +0.000 C 
ATOM      9  C   UNL     1       4.133   4.075  19.089  0.00  0.00    +0.000 A 
ATOM     10  C   UNL     1       5.510   4.208  19.111  0.00  0.00    +0.000 A 
ATOM     11  C   UNL     1       6.168   4.371  17.886  0.00  0.00    +0.000 A 
ATOM     12  C   UNL     1       5.460   4.379  16.659  0.00  0.00    +0.000 A 
ATOM     13  C   UNL     1       4.069   4.175  16.655  0.00  0.00    +0.000 A 
ATOM     14  C   UNL     1       3.436   4.047  17.881  0.00  0.00    +0.000 A 
ATOM     15  C   UNL     1       2.034   4.428  18.184  0.00  0.00    +0.000 C 
ATOM     16  O   UNL     1       1.130   4.425  17.364  0.00  0.00    +0.000 OA
BRANCH  12  17
ATOM     17  C   UNL     1       6.156   4.745  15.365  0.00  0.00    +0.000 C 
ATOM     18  F   UNL     1       6.135   3.749  14.436  0.00  0.00    +0.000 F 
ATOM     19  F   UNL     1       5.610   5.832  14.763  0.00  0.00    +0.000 F 
ATOM     20  F   UNL     1       7.471   5.039  15.557  0.00  0.00    +0.000 F 
ENDBRANCH  12  17
ENDBRANCH   4   7
BRANCH   1  21
ATOM     21  C   UNL     1       0.360  10.353  18.833  0.00  0.00    +0.000 C 
ATOM     22  C   UNL     1      -0.216  11.110  20.069  0.00  0.00    +0.000 C 
ATOM     23  O   UNL     1       0.499  12.321  19.746  0.00  0.00    +0.000 OA
ATOM     24  C   UNL     1       1.139  11.691  18.623  0.00  0.00    +0.000 C 
BRANCH  21  25
ATOM     25  C   UNL     1      -0.639  10.065  17.701  0.00  0.00    +0.000 C 
BRANCH  25  31
ATOM     26  C   UNL     1      -2.845  10.764  15.531  0.00  0.00    +0.000 C 
ATOM     27  N   UNL     1      -2.882  11.043  16.939  0.00  0.00    +0.000 N 
ATOM     28  C   UNL     1      -3.890  11.701  17.579  0.00  0.00    +0.000 A 
ATOM     29  N   UNL     1      -3.624  11.779  18.860  0.00  0.00    +0.000 NA
ATOM     30  N   UNL     1      -2.410  11.179  19.065  0.00  0.00    +0.000 NA
ATOM     31  C   UNL     1      -1.954  10.741  17.907  0.00  0.00    +0.000 A 
ENDBRANCH  25  31
ENDBRANCH  21  25
ENDBRANCH   1  21
TORSDOF 5
ENDMDL
