MODEL 1
REMARK VINA RESULT:      -9.4      0.000      0.000
REMARK  Name = 
REMARK  5 active torsions:
REMARK  status: ('A' for Active; 'I' for Inactive)
REMARK    1  A    between atoms: C_2  and  C_3
REMARK    2  A    between atoms: C_3  and  O_4
REMARK    3  A    between atoms: O_4  and  C_5
REMARK    4  A    between atoms: C_5  and  C_7
REMARK    5  A    between atoms: C_21  and  C_22
REMARK                            x       y       z     vdW  Elec       q    Type
REMARK                         _______ _______ _______ _____ _____    ______ ____
ROOT
ATOM      1  O   UNL     1       7.431   4.346  18.510  0.00  0.00    +0.000 OA
ATOM      2  C   UNL     1       7.446   5.513  18.095  0.00  0.00    +0.000 C 
ATOM      3  N   UNL     1       8.055   6.463  18.868  0.00  0.00    +0.000 N 
ATOM      4  C   UNL     1       8.117   7.788  18.551  0.00  0.00    +0.000 A 
ATOM      5  N   UNL     1       7.364   8.466  17.725  0.00  0.00    +0.000 NA
ATOM      6  N   UNL     1       7.834   9.757  17.712  0.00  0.00    +0.000 NA
ATOM      7  C   UNL     1       8.890   9.766  18.497  0.00  0.00    +0.000 A 
ATOM      8  O   UNL     1       9.095   8.552  19.127  0.00  0.00    +0.000 OA
ATOM      9  H   UNL     1       8.626   6.117  19.612  0.00  0.00    +0.000 HD
ENDROOT
BRANCH   7  10
ATOM     10  C   UNL     1       9.815  10.865  18.761  0.00  0.00    +0.000 A 
ATOM     11  C   UNL     1      10.078  11.266  20.085  0.00  0.00    +0.000 A 
ATOM     12  C   UNL     1      11.045  12.239  20.353  0.00  0.00    +0.000 A 
ATOM     13  C   UNL     1      11.749  12.828  19.305  0.00  0.00    +0.000 A 
ATOM     14  C   UNL     1      11.475  12.458  17.989  0.00  0.00    +0.000 A 
ATOM     15  C   UNL     1      10.498  11.499  17.720  0.00  0.00    +0.000 A 
ENDBRANCH   7  10
BRANCH   2  16
ATOM     16  C   UNL     1       6.909   5.871  16.711  0.00  0.00    +0.000 C 
BRANCH  16  17
ATOM     17  O   UNL     1       5.627   5.291  16.425  0.00  0.00    +0.000 OA
BRANCH  17  18
ATOM     18  C   UNL     1       4.607   5.845  17.154  0.00  0.00    +0.000 C 
ATOM     19  O   UNL     1       4.377   7.037  17.201  0.00  0.00    +0.000 OA
BRANCH  18  20
ATOM     20  C   UNL     1       3.805   4.780  17.916  0.00  0.00    +0.000 C 
ATOM     21  C   UNL     1       4.217   3.345  17.505  0.00  0.00    +0.000 C 
ATOM     22  C   UNL     1       3.402   2.304  18.300  0.00  0.00    +0.000 C 
ATOM     23  C   UNL     1       3.668   2.494  19.804  0.00  0.00    +0.000 C 
ATOM     24  C   UNL     1       3.251   3.909  20.238  0.00  0.00    +0.000 C 
ATOM     25  C   UNL     1       1.754   4.100  19.950  0.00  0.00    +0.000 C 
ATOM     26  C   UNL     1       1.480   3.919  18.448  0.00  0.00    +0.000 C 
ATOM     27  C   UNL     1       1.904   2.505  18.021  0.00  0.00    +0.000 C 
ATOM     28  C   UNL     1       2.295   4.955  17.655  0.00  0.00    +0.000 C 
ATOM     29  C   UNL     1       4.061   4.944  19.437  0.00  0.00    +0.000 C 
ENDBRANCH  18  20
ENDBRANCH  17  18
ENDBRANCH  16  17
ENDBRANCH   2  16
TORSDOF 5
ENDMDL
MODEL 2
REMARK VINA RESULT:      -9.4      3.858      6.600
REMARK  Name = 
REMARK  5 active torsions:
REMARK  status: ('A' for Active; 'I' for Inactive)
REMARK    1  A    between atoms: C_2  and  C_3
REMARK    2  A    between atoms: C_3  and  O_4
REMARK    3  A    between atoms: O_4  and  C_5
REMARK    4  A    between atoms: C_5  and  C_7
REMARK    5  A    between atoms: C_21  and  C_22
REMARK                            x       y       z     vdW  Elec       q    Type
REMARK                         _______ _______ _______ _____ _____    ______ ____
ROOT
ATOM      1  O   UNL     1       8.151   4.874  19.265  0.00  0.00    +0.000 OA
ATOM      2  C   UNL     1       7.500   5.206  18.265  0.00  0.00    +0.000 C 
ATOM      3  N   UNL     1       7.688   4.497  17.110  0.00  0.00    +0.000 N 
ATOM      4  C   UNL     1       7.066   4.773  15.929  0.00  0.00    +0.000 A 
ATOM      5  N   UNL     1       6.499   5.887  15.545  0.00  0.00    +0.000 NA
ATOM      6  N   UNL     1       5.978   5.667  14.293  0.00  0.00    +0.000 NA
ATOM      7  C   UNL     1       6.215   4.403  14.017  0.00  0.00    +0.000 A 
ATOM      8  O   UNL     1       6.971   3.778  14.993  0.00  0.00    +0.000 OA
ATOM      9  H   UNL     1       8.181   3.633  17.207  0.00  0.00    +0.000 HD
ENDROOT
BRANCH   7  10
ATOM     10  C   UNL     1       5.789   3.632  12.853  0.00  0.00    +0.000 A 
ATOM     11  C   UNL     1       6.631   2.640  12.314  0.00  0.00    +0.000 A 
ATOM     12  C   UNL     1       6.187   1.822  11.271  0.00  0.00    +0.000 A 
ATOM     13  C   UNL     1       4.907   1.992  10.750  0.00  0.00    +0.000 A 
ATOM     14  C   UNL     1       4.076   2.991  11.257  0.00  0.00    +0.000 A 
ATOM     15  C   UNL     1       4.525   3.819  12.287  0.00  0.00    +0.000 A 
ENDBRANCH   7  10
BRANCH   2  16
ATOM     16  C   UNL     1       6.432   6.296  18.337  0.00  0.00    +0.000 C 
BRANCH  16  17
ATOM     17  O   UNL     1       5.308   5.943  19.157  0.00  0.00    +0.000 OA
BRANCH  17  18
ATOM     18  C   UNL     1       4.153   5.758  18.443  0.00  0.00    +0.000 C 
ATOM     19  O   UNL     1       3.843   6.418  17.470  0.00  0.00    +0.000 OA
BRANCH  18  20
ATOM     20  C   UNL     1       3.290   4.632  19.031  0.00  0.00    +0.000 C 
ATOM     21  C   UNL     1       4.120   3.353  19.303  0.00  0.00    +0.000 C 
ATOM     22  C   UNL     1       3.225   2.250  19.905  0.00  0.00    +0.000 C 
ATOM     23  C   UNL     1       2.624   2.753  21.229  0.00  0.00    +0.000 C 
ATOM     24  C   UNL     1       1.783   4.015  20.981  0.00  0.00    +0.000 C 
ATOM     25  C   UNL     1       0.651   3.677  19.997  0.00  0.00    +0.000 C 
ATOM     26  C   UNL     1       1.242   3.180  18.667  0.00  0.00    +0.000 C 
ATOM     27  C   UNL     1       2.086   1.922  18.925  0.00  0.00    +0.000 C 
ATOM     28  C   UNL     1       2.137   4.279  18.068  0.00  0.00    +0.000 C 
ATOM     29  C   UNL     1       2.677   5.110  20.374  0.00  0.00    +0.000 C 
ENDBRANCH  18  20
ENDBRANCH  17  18
ENDBRANCH  16  17
ENDBRANCH   2  16
TORSDOF 5
ENDMDL
MODEL 3
REMARK VINA RESULT:      -9.4      0.253      1.464
REMARK  Name = 
REMARK  5 active torsions:
REMARK  status: ('A' for Active; 'I' for Inactive)
REMARK    1  A    between atoms: C_2  and  C_3
REMARK    2  A    between atoms: C_3  and  O_4
REMARK    3  A    between atoms: O_4  and  C_5
REMARK    4  A    between atoms: C_5  and  C_7
REMARK    5  A    between atoms: C_21  and  C_22
REMARK                            x       y       z     vdW  Elec       q    Type
REMARK                         _______ _______ _______ _____ _____    ______ ____
ROOT
ATOM      1  O   UNL     1       7.531   4.404  18.585  0.00  0.00    +0.000 OA
ATOM      2  C   UNL     1       7.519   5.558  18.135  0.00  0.00    +0.000 C 
ATOM      3  N   UNL     1       8.102   6.546  18.881  0.00  0.00    +0.000 N 
ATOM      4  C   UNL     1       8.132   7.861  18.526  0.00  0.00    +0.000 A 
ATOM      5  N   UNL     1       7.366   8.496  17.678  0.00  0.00    +0.000 NA
ATOM      6  N   UNL     1       7.804   9.797  17.629  0.00  0.00    +0.000 NA
ATOM      7  C   UNL     1       8.856   9.856  18.417  0.00  0.00    +0.000 A 
ATOM      8  O   UNL     1       9.089   8.666  19.082  0.00  0.00    +0.000 OA
ATOM      9  H   UNL     1       8.677   6.235  19.637  0.00  0.00    +0.000 HD
ENDROOT
BRANCH   7  10
ATOM     10  C   UNL     1       9.753  10.983  18.651  0.00  0.00    +0.000 A 
ATOM     11  C   UNL     1      10.435  11.103  19.877  0.00  0.00    +0.000 A 
ATOM     12  C   UNL     1      11.379  12.116  20.069  0.00  0.00    +0.000 A 
ATOM     13  C   UNL     1      11.644  13.023  19.046  0.00  0.00    +0.000 A 
ATOM     14  C   UNL     1      10.954  12.930  17.838  0.00  0.00    +0.000 A 
ATOM     15  C   UNL     1       9.999  11.930  17.652  0.00  0.00    +0.000 A 
ENDBRANCH   7  10
BRANCH   2  16
ATOM     16  C   UNL     1       6.979   5.862  16.739  0.00  0.00    +0.000 C 
BRANCH  16  17
ATOM     17  O   UNL     1       5.733   5.209  16.451  0.00  0.00    +0.000 OA
BRANCH  17  18
ATOM     18  C   UNL     1       4.661   5.785  17.083  0.00  0.00    +0.000 C 
ATOM     19  O   UNL     1       4.401   6.971  17.034  0.00  0.00    +0.000 OA
BRANCH  18  20
ATOM     20  C   UNL     1       3.842   4.754  17.874  0.00  0.00    +0.000 C 
ATOM     21  C   UNL     1       2.320   4.945  17.665  0.00  0.00    +0.000 C 
ATOM     22  C   UNL     1       1.531   3.886  18.462  0.00  0.00    +0.000 C 
ATOM     23  C   UNL     1       1.935   2.483  17.976  0.00  0.00    +0.000 C 
ATOM     24  C   UNL     1       3.442   2.265  18.189  0.00  0.00    +0.000 C 
ATOM     25  C   UNL     1       3.762   2.405  19.685  0.00  0.00    +0.000 C 
ATOM     26  C   UNL     1       3.368   3.807  20.179  0.00  0.00    +0.000 C 
ATOM     27  C   UNL     1       1.862   4.018  19.958  0.00  0.00    +0.000 C 
ATOM     28  C   UNL     1       4.152   4.863  19.381  0.00  0.00    +0.000 C 
ATOM     29  C   UNL     1       4.224   3.328  17.398  0.00  0.00    +0.000 C 
ENDBRANCH  18  20
ENDBRANCH  17  18
ENDBRANCH  16  17
ENDBRANCH   2  16
TORSDOF 5
ENDMDL
MODEL 4
REMARK VINA RESULT:      -9.3      0.155      1.689
REMARK  Name = 
REMARK  5 active torsions:
REMARK  status: ('A' for Active; 'I' for Inactive)
REMARK    1  A    between atoms: C_2  and  C_3
REMARK    2  A    between atoms: C_3  and  O_4
REMARK    3  A    between atoms: O_4  and  C_5
REMARK    4  A    between atoms: C_5  and  C_7
REMARK    5  A    between atoms: C_21  and  C_22
REMARK                            x       y       z     vdW  Elec       q    Type
REMARK                         _______ _______ _______ _____ _____    ______ ____
ROOT
ATOM      1  O   UNL     1       7.475   4.385  18.501  0.00  0.00    +0.000 OA
ATOM      2  C   UNL     1       7.487   5.551  18.084  0.00  0.00    +0.000 C 
ATOM      3  N   UNL     1       8.085   6.506  18.859  0.00  0.00    +0.000 N 
ATOM      4  C   UNL     1       8.141   7.831  18.541  0.00  0.00    +0.000 A 
ATOM      5  N   UNL     1       7.390   8.503  17.709  0.00  0.00    +0.000 NA
ATOM      6  N   UNL     1       7.853   9.797  17.698  0.00  0.00    +0.000 NA
ATOM      7  C   UNL     1       8.903   9.813  18.490  0.00  0.00    +0.000 A 
ATOM      8  O   UNL     1       9.111   8.601  19.123  0.00  0.00    +0.000 OA
ATOM      9  H   UNL     1       8.652   6.164  19.608  0.00  0.00    +0.000 HD
ENDROOT
BRANCH   7  10
ATOM     10  C   UNL     1       9.820  10.917  18.759  0.00  0.00    +0.000 A 
ATOM     11  C   UNL     1      10.421  11.613  17.694  0.00  0.00    +0.000 A 
ATOM     12  C   UNL     1      11.211  12.741  17.938  0.00  0.00    +0.000 A 
ATOM     13  C   UNL     1      11.416  13.177  19.245  0.00  0.00    +0.000 A 
ATOM     14  C   UNL     1      10.848  12.477  20.309  0.00  0.00    +0.000 A 
ATOM     15  C   UNL     1      10.074  11.342  20.066  0.00  0.00    +0.000 A 
ENDBRANCH   7  10
BRANCH   2  16
ATOM     16  C   UNL     1       6.958   5.904  16.695  0.00  0.00    +0.000 C 
BRANCH  16  17
ATOM     17  O   UNL     1       5.685   5.311  16.398  0.00  0.00    +0.000 OA
BRANCH  17  18
ATOM     18  C   UNL     1       4.646   5.887  17.081  0.00  0.00    +0.000 C 
ATOM     19  O   UNL     1       4.391   7.075  17.052  0.00  0.00    +0.000 OA
BRANCH  18  20
ATOM     20  C   UNL     1       3.857   4.855  17.900  0.00  0.00    +0.000 C 
ATOM     21  C   UNL     1       4.130   4.994  19.418  0.00  0.00    +0.000 C 
ATOM     22  C   UNL     1       3.312   3.953  20.209  0.00  0.00    +0.000 C 
ATOM     23  C   UNL     1       1.813   4.179  19.943  0.00  0.00    +0.000 C 
ATOM     24  C   UNL     1       1.516   4.030  18.442  0.00  0.00    +0.000 C 
ATOM     25  C   UNL     1       1.912   2.616  17.991  0.00  0.00    +0.000 C 
ATOM     26  C   UNL     1       3.410   2.383  18.245  0.00  0.00    +0.000 C 
ATOM     27  C   UNL     1       3.700   2.538  19.747  0.00  0.00    +0.000 C 
ATOM     28  C   UNL     1       4.226   3.424  17.460  0.00  0.00    +0.000 C 
ATOM     29  C   UNL     1       2.339   5.066  17.657  0.00  0.00    +0.000 C 
ENDBRANCH  18  20
ENDBRANCH  17  18
ENDBRANCH  16  17
ENDBRANCH   2  16
TORSDOF 5
ENDMDL
MODEL 5
REMARK VINA RESULT:      -9.3      3.899      6.640
REMARK  Name = 
REMARK  5 active torsions:
REMARK  status: ('A' for Active; 'I' for Inactive)
REMARK    1  A    between atoms: C_2  and  C_3
REMARK    2  A    between atoms: C_3  and  O_4
REMARK    3  A    between atoms: O_4  and  C_5
REMARK    4  A    between atoms: C_5  and  C_7
REMARK    5  A    between atoms: C_21  and  C_22
REMARK                            x       y       z     vdW  Elec       q    Type
REMARK                         _______ _______ _______ _____ _____    ______ ____
ROOT
ATOM      1  O   UNL     1       8.489   4.909  19.189  0.00  0.00    +0.000 OA
ATOM      2  C   UNL     1       7.706   5.198  18.274  0.00  0.00    +0.000 C 
ATOM      3  N   UNL     1       7.873   4.582  17.064  0.00  0.00    +0.000 N 
ATOM      4  C   UNL     1       7.107   4.829  15.963  0.00  0.00    +0.000 A 
ATOM      5  N   UNL     1       6.361   5.871  15.704  0.00  0.00    +0.000 NA
ATOM      6  N   UNL     1       5.755   5.646  14.492  0.00  0.00    +0.000 NA
ATOM      7  C   UNL     1       6.131   4.442  14.116  0.00  0.00    +0.000 A 
ATOM      8  O   UNL     1       7.056   3.880  14.978  0.00  0.00    +0.000 OA
ATOM      9  H   UNL     1       8.484   3.791  17.061  0.00  0.00    +0.000 HD
ENDROOT
BRANCH   7  10
ATOM     10  C   UNL     1       5.701   3.681  12.947  0.00  0.00    +0.000 A 
ATOM     11  C   UNL     1       6.531   2.677  12.411  0.00  0.00    +0.000 A 
ATOM     12  C   UNL     1       6.081   1.868  11.364  0.00  0.00    +0.000 A 
ATOM     13  C   UNL     1       4.807   2.059  10.835  0.00  0.00    +0.000 A 
ATOM     14  C   UNL     1       3.989   3.069  11.339  0.00  0.00    +0.000 A 
ATOM     15  C   UNL     1       4.444   3.888  12.374  0.00  0.00    +0.000 A 
ENDBRANCH   7  10
BRANCH   2  16
ATOM     16  C   UNL     1       6.513   6.122  18.512  0.00  0.00    +0.000 C 
BRANCH  16  17
ATOM     17  O   UNL     1       5.470   5.522  19.296  0.00  0.00    +0.000 OA
BRANCH  17  18
ATOM     18  C   UNL     1       4.217   5.732  18.782  0.00  0.00    +0.000 C 
ATOM     19  O   UNL     1       3.913   6.695  18.106  0.00  0.00    +0.000 OA
BRANCH  18  20
ATOM     20  C   UNL     1       3.242   4.613  19.178  0.00  0.00    +0.000 C 
ATOM     21  C   UNL     1       2.292   4.238  18.014  0.00  0.00    +0.000 C 
ATOM     22  C   UNL     1       1.338   3.104  18.443  0.00  0.00    +0.000 C 
ATOM     23  C   UNL     1       2.166   1.869  18.838  0.00  0.00    +0.000 C 
ATOM     24  C   UNL     1       3.106   2.215  20.004  0.00  0.00    +0.000 C 
ATOM     25  C   UNL     1       2.266   2.678  21.205  0.00  0.00    +0.000 C 
ATOM     26  C   UNL     1       1.440   3.917  20.822  0.00  0.00    +0.000 C 
ATOM     27  C   UNL     1       0.507   3.564  19.652  0.00  0.00    +0.000 C 
ATOM     28  C   UNL     1       2.391   5.046  20.390  0.00  0.00    +0.000 C 
ATOM     29  C   UNL     1       4.051   3.350  19.574  0.00  0.00    +0.000 C 
ENDBRANCH  18  20
ENDBRANCH  17  18
ENDBRANCH  16  17
ENDBRANCH   2  16
TORSDOF 5
ENDMDL
MODEL 6
REMARK VINA RESULT:      -9.0      3.793      6.626
REMARK  Name = 
REMARK  5 active torsions:
REMARK  status: ('A' for Active; 'I' for Inactive)
REMARK    1  A    between atoms: C_2  and  C_3
REMARK    2  A    between atoms: C_3  and  O_4
REMARK    3  A    between atoms: O_4  and  C_5
REMARK    4  A    between atoms: C_5  and  C_7
REMARK    5  A    between atoms: C_21  and  C_22
REMARK                            x       y       z     vdW  Elec       q    Type
REMARK                         _______ _______ _______ _____ _____    ______ ____
ROOT
ATOM      1  O   UNL     1       7.974   5.050  19.556  0.00  0.00    +0.000 OA
ATOM      2  C   UNL     1       7.400   5.368  18.505  0.00  0.00    +0.000 C 
ATOM      3  N   UNL     1       7.673   4.643  17.378  0.00  0.00    +0.000 N 
ATOM      4  C   UNL     1       7.141   4.902  16.150  0.00  0.00    +0.000 A 
ATOM      5  N   UNL     1       6.606   6.011  15.708  0.00  0.00    +0.000 NA
ATOM      6  N   UNL     1       6.180   5.773  14.424  0.00  0.00    +0.000 NA
ATOM      7  C   UNL     1       6.435   4.505  14.185  0.00  0.00    +0.000 A 
ATOM      8  O   UNL     1       7.115   3.895  15.224  0.00  0.00    +0.000 OA
ATOM      9  H   UNL     1       8.155   3.780  17.524  0.00  0.00    +0.000 HD
ENDROOT
BRANCH   7  10
ATOM     10  C   UNL     1       6.096   3.718  13.003  0.00  0.00    +0.000 A 
ATOM     11  C   UNL     1       7.069   2.904  12.392  0.00  0.00    +0.000 A 
ATOM     12  C   UNL     1       6.726   2.063  11.330  0.00  0.00    +0.000 A 
ATOM     13  C   UNL     1       5.415   2.033  10.861  0.00  0.00    +0.000 A 
ATOM     14  C   UNL     1       4.450   2.857  11.441  0.00  0.00    +0.000 A 
ATOM     15  C   UNL     1       4.796   3.709  12.490  0.00  0.00    +0.000 A 
ENDBRANCH   7  10
BRANCH   2  16
ATOM     16  C   UNL     1       6.331   6.459  18.482  0.00  0.00    +0.000 C 
BRANCH  16  17
ATOM     17  O   UNL     1       5.181   6.151  19.284  0.00  0.00    +0.000 OA
BRANCH  17  18
ATOM     18  C   UNL     1       4.036   5.987  18.548  0.00  0.00    +0.000 C 
ATOM     19  O   UNL     1       3.705   6.717  17.635  0.00  0.00    +0.000 OA
BRANCH  18  20
ATOM     20  C   UNL     1       3.215   4.781  19.031  0.00  0.00    +0.000 C 
ATOM     21  C   UNL     1       2.281   5.155  20.208  0.00  0.00    +0.000 C 
ATOM     22  C   UNL     1       1.464   3.926  20.656  0.00  0.00    +0.000 C 
ATOM     23  C   UNL     1       0.613   3.426  19.476  0.00  0.00    +0.000 C 
ATOM     24  C   UNL     1       1.521   3.035  18.299  0.00  0.00    +0.000 C 
ATOM     25  C   UNL     1       2.477   1.920  18.754  0.00  0.00    +0.000 C 
ATOM     26  C   UNL     1       3.337   2.413  19.929  0.00  0.00    +0.000 C 
ATOM     27  C   UNL     1       2.421   2.807  21.099  0.00  0.00    +0.000 C 
ATOM     28  C   UNL     1       4.150   3.641  19.483  0.00  0.00    +0.000 C 
ATOM     29  C   UNL     1       2.340   4.262  17.860  0.00  0.00    +0.000 C 
ENDBRANCH  18  20
ENDBRANCH  17  18
ENDBRANCH  16  17
ENDBRANCH   2  16
TORSDOF 5
ENDMDL
MODEL 7
REMARK VINA RESULT:      -8.9      0.949      1.934
REMARK  Name = 
REMARK  5 active torsions:
REMARK  status: ('A' for Active; 'I' for Inactive)
REMARK    1  A    between atoms: C_2  and  C_3
REMARK    2  A    between atoms: C_3  and  O_4
REMARK    3  A    between atoms: O_4  and  C_5
REMARK    4  A    between atoms: C_5  and  C_7
REMARK    5  A    between atoms: C_21  and  C_22
REMARK                            x       y       z     vdW  Elec       q    Type
REMARK                         _______ _______ _______ _____ _____    ______ ____
ROOT
ATOM      1  O   UNL     1       7.868   4.632  18.819  0.00  0.00    +0.000 OA
ATOM      2  C   UNL     1       7.790   5.746  18.281  0.00  0.00    +0.000 C 
ATOM      3  N   UNL     1       8.289   6.824  18.960  0.00  0.00    +0.000 N 
ATOM      4  C   UNL     1       8.241   8.108  18.505  0.00  0.00    +0.000 A 
ATOM      5  N   UNL     1       7.454   8.623  17.596  0.00  0.00    +0.000 NA
ATOM      6  N   UNL     1       7.806   9.944  17.455  0.00  0.00    +0.000 NA
ATOM      7  C   UNL     1       8.834  10.133  18.255  0.00  0.00    +0.000 A 
ATOM      8  O   UNL     1       9.129   9.016  19.015  0.00  0.00    +0.000 OA
ATOM      9  H   UNL     1       8.866   6.611  19.748  0.00  0.00    +0.000 HD
ENDROOT
BRANCH   7  10
ATOM     10  C   UNL     1       9.648  11.333  18.418  0.00  0.00    +0.000 A 
ATOM     11  C   UNL     1      10.798  11.304  19.231  0.00  0.00    +0.000 A 
ATOM     12  C   UNL     1      11.644  12.414  19.303  0.00  0.00    +0.000 A 
ATOM     13  C   UNL     1      11.348  13.565  18.577  0.00  0.00    +0.000 A 
ATOM     14  C   UNL     1      10.196  13.614  17.792  0.00  0.00    +0.000 A 
ATOM     15  C   UNL     1       9.342  12.512  17.732  0.00  0.00    +0.000 A 
ENDBRANCH   7  10
BRANCH   2  16
ATOM     16  C   UNL     1       7.264   5.906  16.856  0.00  0.00    +0.000 C 
BRANCH  16  17
ATOM     17  O   UNL     1       5.837   5.785  16.755  0.00  0.00    +0.000 OA
BRANCH  17  18
ATOM     18  C   UNL     1       5.409   4.487  16.656  0.00  0.00    +0.000 C 
ATOM     19  O   UNL     1       5.904   3.663  15.913  0.00  0.00    +0.000 OA
BRANCH  18  20
ATOM     20  C   UNL     1       4.217   4.205  17.583  0.00  0.00    +0.000 C 
ATOM     21  C   UNL     1       3.361   5.474  17.822  0.00  0.00    +0.000 C 
ATOM     22  C   UNL     1       2.167   5.151  18.744  0.00  0.00    +0.000 C 
ATOM     23  C   UNL     1       1.295   4.070  18.082  0.00  0.00    +0.000 C 
ATOM     24  C   UNL     1       2.121   2.795  17.850  0.00  0.00    +0.000 C 
ATOM     25  C   UNL     1       2.640   2.282  19.202  0.00  0.00    +0.000 C 
ATOM     26  C   UNL     1       3.520   3.353  19.868  0.00  0.00    +0.000 C 
ATOM     27  C   UNL     1       2.689   4.626  20.092  0.00  0.00    +0.000 C 
ATOM     28  C   UNL     1       4.709   3.677  18.947  0.00  0.00    +0.000 C 
ATOM     29  C   UNL     1       3.314   3.123  16.936  0.00  0.00    +0.000 C 
ENDBRANCH  18  20
ENDBRANCH  17  18
ENDBRANCH  16  17
ENDBRANCH   2  16
TORSDOF 5
ENDMDL
MODEL 8
REMARK VINA RESULT:      -8.9      0.783      1.184
REMARK  Name = 
REMARK  5 active torsions:
REMARK  status: ('A' for Active; 'I' for Inactive)
REMARK    1  A    between atoms: C_2  and  C_3
REMARK    2  A    between atoms: C_3  and  O_4
REMARK    3  A    between atoms: O_4  and  C_5
REMARK    4  A    between atoms: C_5  and  C_7
REMARK    5  A    between atoms: C_21  and  C_22
REMARK                            x       y       z     vdW  Elec       q    Type
REMARK                         _______ _______ _______ _____ _____    ______ ____
ROOT
ATOM      1  O   UNL     1       7.729   4.324  18.473  0.00  0.00    +0.000 OA
ATOM      2  C   UNL     1       7.681   5.490  18.059  0.00  0.00    +0.000 C 
ATOM      3  N   UNL     1       8.209   6.476  18.847  0.00  0.00    +0.000 N 
ATOM      4  C   UNL     1       8.196   7.802  18.533  0.00  0.00    +0.000 A 
ATOM      5  N   UNL     1       7.423   8.433  17.688  0.00  0.00    +0.000 NA
ATOM      6  N   UNL     1       7.811   9.751  17.688  0.00  0.00    +0.000 NA
ATOM      7  C   UNL     1       8.843   9.825  18.500  0.00  0.00    +0.000 A 
ATOM      8  O   UNL     1       9.109   8.625  19.134  0.00  0.00    +0.000 OA
ATOM      9  H   UNL     1       8.781   6.164  19.606  0.00  0.00    +0.000 HD
ENDROOT
BRANCH   7  10
ATOM     10  C   UNL     1       9.690  10.979  18.788  0.00  0.00    +0.000 A 
ATOM     11  C   UNL     1       9.903  11.387  20.119  0.00  0.00    +0.000 A 
ATOM     12  C   UNL     1      10.799  12.418  20.411  0.00  0.00    +0.000 A 
ATOM     13  C   UNL     1      11.483  13.059  19.381  0.00  0.00    +0.000 A 
ATOM     14  C   UNL     1      11.257  12.683  18.057  0.00  0.00    +0.000 A 
ATOM     15  C   UNL     1      10.350  11.664  17.764  0.00  0.00    +0.000 A 
ENDBRANCH   7  10
BRANCH   2  16
ATOM     16  C   UNL     1       7.159   5.816  16.661  0.00  0.00    +0.000 C 
BRANCH  16  17
ATOM     17  O   UNL     1       5.734   5.686  16.537  0.00  0.00    +0.000 OA
BRANCH  17  18
ATOM     18  C   UNL     1       5.309   4.384  16.513  0.00  0.00    +0.000 C 
ATOM     19  O   UNL     1       5.794   3.524  15.803  0.00  0.00    +0.000 OA
BRANCH  18  20
ATOM     20  C   UNL     1       4.136   4.147  17.476  0.00  0.00    +0.000 C 
ATOM     21  C   UNL     1       3.108   3.145  16.896  0.00  0.00    +0.000 C 
ATOM     22  C   UNL     1       1.953   2.922  17.894  0.00  0.00    +0.000 C 
ATOM     23  C   UNL     1       2.522   2.357  19.207  0.00  0.00    +0.000 C 
ATOM     24  C   UNL     1       3.535   3.344  19.810  0.00  0.00    +0.000 C 
ATOM     25  C   UNL     1       2.829   4.680  20.086  0.00  0.00    +0.000 C 
ATOM     26  C   UNL     1       2.264   5.257  18.778  0.00  0.00    +0.000 C 
ATOM     27  C   UNL     1       1.256   4.262  18.179  0.00  0.00    +0.000 C 
ATOM     28  C   UNL     1       3.415   5.476  17.781  0.00  0.00    +0.000 C 
ATOM     29  C   UNL     1       4.681   3.569  18.808  0.00  0.00    +0.000 C 
ENDBRANCH  18  20
ENDBRANCH  17  18
ENDBRANCH  16  17
ENDBRANCH   2  16
TORSDOF 5
ENDMDL
MODEL 9
REMARK VINA RESULT:      -8.8      1.462      1.978
REMARK  Name = 
REMARK  5 active torsions:
REMARK  status: ('A' for Active; 'I' for Inactive)
REMARK    1  A    between atoms: C_2  and  C_3
REMARK    2  A    between atoms: C_3  and  O_4
REMARK    3  A    between atoms: O_4  and  C_5
REMARK    4  A    between atoms: C_5  and  C_7
REMARK    5  A    between atoms: C_21  and  C_22
REMARK                            x       y       z     vdW  Elec       q    Type
REMARK                         _______ _______ _______ _____ _____    ______ ____
ROOT
ATOM      1  O   UNL     1       5.153   5.347  15.654  0.00  0.00    +0.000 OA
ATOM      2  C   UNL     1       5.853   5.752  16.593  0.00  0.00    +0.000 C 
ATOM      3  N   UNL     1       6.580   6.896  16.408  0.00  0.00    +0.000 N 
ATOM      4  C   UNL     1       7.415   7.435  17.341  0.00  0.00    +0.000 A 
ATOM      5  N   UNL     1       7.967   6.856  18.375  0.00  0.00    +0.000 NA
ATOM      6  N   UNL     1       8.696   7.815  19.037  0.00  0.00    +0.000 NA
ATOM      7  C   UNL     1       8.491   8.940  18.386  0.00  0.00    +0.000 A 
ATOM      8  O   UNL     1       7.733   8.763  17.243  0.00  0.00    +0.000 OA
ATOM      9  H   UNL     1       6.337   7.438  15.604  0.00  0.00    +0.000 HD
ENDROOT
BRANCH   7  10
ATOM     10  C   UNL     1       8.957  10.281  18.724  0.00  0.00    +0.000 A 
ATOM     11  C   UNL     1       9.684  10.500  19.910  0.00  0.00    +0.000 A 
ATOM     12  C   UNL     1      10.230  11.757  20.186  0.00  0.00    +0.000 A 
ATOM     13  C   UNL     1      10.048  12.807  19.290  0.00  0.00    +0.000 A 
ATOM     14  C   UNL     1       9.305  12.608  18.127  0.00  0.00    +0.000 A 
ATOM     15  C   UNL     1       8.746  11.358  17.859  0.00  0.00    +0.000 A 
ENDBRANCH   7  10
BRANCH   2  16
ATOM     16  C   UNL     1       5.822   5.069  17.959  0.00  0.00    +0.000 C 
BRANCH  16  17
ATOM     17  O   UNL     1       5.071   5.794  18.945  0.00  0.00    +0.000 OA
BRANCH  17  18
ATOM     18  C   UNL     1       3.733   5.874  18.658  0.00  0.00    +0.000 C 
ATOM     19  O   UNL     1       3.212   6.824  18.108  0.00  0.00    +0.000 OA
BRANCH  18  20
ATOM     20  C   UNL     1       2.972   4.627  19.132  0.00  0.00    +0.000 C 
ATOM     21  C   UNL     1       3.908   3.613  19.834  0.00  0.00    +0.000 C 
ATOM     22  C   UNL     1       3.109   2.382  20.309  0.00  0.00    +0.000 C 
ATOM     23  C   UNL     1       2.022   2.836  21.299  0.00  0.00    +0.000 C 
ATOM     24  C   UNL     1       1.070   3.833  20.618  0.00  0.00    +0.000 C 
ATOM     25  C   UNL     1       0.413   3.150  19.408  0.00  0.00    +0.000 C 
ATOM     26  C   UNL     1       1.491   2.700  18.408  0.00  0.00    +0.000 C 
ATOM     27  C   UNL     1       2.441   1.708  19.099  0.00  0.00    +0.000 C 
ATOM     28  C   UNL     1       2.291   3.926  17.938  0.00  0.00    +0.000 C 
ATOM     29  C   UNL     1       1.874   5.055  20.140  0.00  0.00    +0.000 C 
ENDBRANCH  18  20
ENDBRANCH  17  18
ENDBRANCH  16  17
ENDBRANCH   2  16
TORSDOF 5
ENDMDL
