MODEL 1
REMARK VINA RESULT:      -9.1      0.000      0.000
REMARK  Name = 
REMARK  4 active torsions:
REMARK  status: ('A' for Active; 'I' for Inactive)
REMARK    1  A    between atoms: C_6  and  C_7
REMARK    2  A    between atoms: C_9  and  C_10
REMARK    3  A    between atoms: C_10  and  N_11
REMARK    4  A    between atoms: C_15  and  C_16
REMARK                            x       y       z     vdW  Elec       q    Type
REMARK                         _______ _______ _______ _____ _____    ______ ____
ROOT
ATOM      1  N   UNL     1       3.589   4.365  19.479  0.00  0.00    +0.000 NA
ATOM      2  C   UNL     1       2.753   3.162  19.494  0.00  0.00    +0.000 C 
ATOM      3  C   UNL     1       1.967   3.158  18.198  0.00  0.00    +0.000 C 
ATOM      4  C   UNL     1       1.861   4.619  17.801  0.00  0.00    +0.000 C 
ATOM      5  C   UNL     1       2.902   5.375  18.645  0.00  0.00    +0.000 C 
ENDROOT
BRANCH   5   6
ATOM      6  C   UNL     1       2.260   6.429  19.504  0.00  0.00    +0.000 A 
ATOM      7  N   UNL     1       1.810   6.284  20.740  0.00  0.00    +0.000 NA
ATOM      8  N   UNL     1       1.258   7.473  21.152  0.00  0.00    +0.000 NA
ATOM      9  C   UNL     1       1.392   8.335  20.171  0.00  0.00    +0.000 A 
ATOM     10  C   UNL     1       1.024   9.703  20.042  0.00  0.00    +0.000 A 
ATOM     11  C   UNL     1       1.279  10.356  18.891  0.00  0.00    +0.000 A 
ATOM     12  C   UNL     1       1.918   9.686  17.768  0.00  0.00    +0.000 A 
ATOM     13  C   UNL     1       2.272   8.393  17.890  0.00  0.00    +0.000 A 
ATOM     14  N   UNL     1       2.014   7.726  19.089  0.00  0.00    +0.000 N 
ENDBRANCH   5   6
BRANCH   1  15
ATOM     15  C   UNL     1       4.999   4.121  19.133  0.00  0.00    +0.000 C 
BRANCH  15  18
ATOM     16  C   UNL     1       5.963   4.882  15.815  0.00  0.00    +0.000 A 
ATOM     17  N   UNL     1       5.326   4.107  16.668  0.00  0.00    +0.000 NA
ATOM     18  C   UNL     1       5.423   4.777  17.865  0.00  0.00    +0.000 A 
ATOM     19  C   UNL     1       6.018   6.001  17.652  0.00  0.00    +0.000 A 
ATOM     20  O   UNL     1       6.384   6.074  16.340  0.00  0.00    +0.000 OA
BRANCH  16  26
ATOM     21  F   UNL     1       5.294   2.604  11.574  0.00  0.00    +0.000 F 
ATOM     22  C   UNL     1       6.003   3.453  12.331  0.00  0.00    +0.000 A 
ATOM     23  C   UNL     1       7.070   4.144  11.766  0.00  0.00    +0.000 A 
ATOM     24  C   UNL     1       7.796   5.037  12.543  0.00  0.00    +0.000 A 
ATOM     25  C   UNL     1       7.440   5.237  13.876  0.00  0.00    +0.000 A 
ATOM     26  C   UNL     1       6.357   4.551  14.450  0.00  0.00    +0.000 A 
ATOM     27  C   UNL     1       5.640   3.643  13.663  0.00  0.00    +0.000 A 
ENDBRANCH  16  26
ENDBRANCH  15  18
ENDBRANCH   1  15
TORSDOF 4
ENDMDL
MODEL 2
REMARK VINA RESULT:      -8.8      4.057      8.276
REMARK  Name = 
REMARK  4 active torsions:
REMARK  status: ('A' for Active; 'I' for Inactive)
REMARK    1  A    between atoms: C_6  and  C_7
REMARK    2  A    between atoms: C_9  and  C_10
REMARK    3  A    between atoms: C_10  and  N_11
REMARK    4  A    between atoms: C_15  and  C_16
REMARK                            x       y       z     vdW  Elec       q    Type
REMARK                         _______ _______ _______ _____ _____    ______ ____
ROOT
ATOM      1  N   UNL     1       4.187   6.521  17.842  0.00  0.00    +0.000 NA
ATOM      2  C   UNL     1       5.496   6.821  17.256  0.00  0.00    +0.000 C 
ATOM      3  C   UNL     1       5.629   5.963  16.015  0.00  0.00    +0.000 C 
ATOM      4  C   UNL     1       4.742   4.759  16.274  0.00  0.00    +0.000 C 
ATOM      5  C   UNL     1       3.834   5.137  17.458  0.00  0.00    +0.000 C 
ENDROOT
BRANCH   5   6
ATOM      6  C   UNL     1       4.018   4.198  18.619  0.00  0.00    +0.000 A 
ATOM      7  N   UNL     1       5.144   3.619  19.004  0.00  0.00    +0.000 NA
ATOM      8  N   UNL     1       4.878   2.805  20.078  0.00  0.00    +0.000 NA
ATOM      9  C   UNL     1       3.597   2.907  20.348  0.00  0.00    +0.000 A 
ATOM     10  C   UNL     1       2.778   2.312  21.347  0.00  0.00    +0.000 A 
ATOM     11  C   UNL     1       1.461   2.595  21.384  0.00  0.00    +0.000 A 
ATOM     12  C   UNL     1       0.853   3.494  20.415  0.00  0.00    +0.000 A 
ATOM     13  C   UNL     1       1.627   4.063  19.472  0.00  0.00    +0.000 A 
ATOM     14  N   UNL     1       2.993   3.773  19.445  0.00  0.00    +0.000 N 
ENDBRANCH   5   6
BRANCH   1  15
ATOM     15  C   UNL     1       3.152   7.530  17.564  0.00  0.00    +0.000 C 
BRANCH  15  18
ATOM     16  C   UNL     1       1.161   9.119  20.019  0.00  0.00    +0.000 A 
ATOM     17  N   UNL     1       1.595   9.042  18.778  0.00  0.00    +0.000 NA
ATOM     18  C   UNL     1       2.320   7.874  18.750  0.00  0.00    +0.000 A 
ATOM     19  C   UNL     1       2.188   7.229  19.960  0.00  0.00    +0.000 A 
ATOM     20  O   UNL     1       1.456   8.028  20.789  0.00  0.00    +0.000 OA
BRANCH  16  26
ATOM     21  F   UNL     1      -1.566  11.146  23.493  0.00  0.00    +0.000 F 
ATOM     22  C   UNL     1      -0.792  11.278  22.407  0.00  0.00    +0.000 A 
ATOM     23  C   UNL     1      -0.470  12.551  21.949  0.00  0.00    +0.000 A 
ATOM     24  C   UNL     1       0.347  12.692  20.835  0.00  0.00    +0.000 A 
ATOM     25  C   UNL     1       0.840  11.555  20.195  0.00  0.00    +0.000 A 
ATOM     26  C   UNL     1       0.528  10.266  20.659  0.00  0.00    +0.000 A 
ATOM     27  C   UNL     1      -0.307  10.135  21.775  0.00  0.00    +0.000 A 
ENDBRANCH  16  26
ENDBRANCH  15  18
ENDBRANCH   1  15
TORSDOF 4
ENDMDL
MODEL 3
REMARK VINA RESULT:      -8.8      4.044      8.323
REMARK  Name = 
REMARK  4 active torsions:
REMARK  status: ('A' for Active; 'I' for Inactive)
REMARK    1  A    between atoms: C_6  and  C_7
REMARK    2  A    between atoms: C_9  and  C_10
REMARK    3  A    between atoms: C_10  and  N_11
REMARK    4  A    between atoms: C_15  and  C_16
REMARK                            x       y       z     vdW  Elec       q    Type
REMARK                         _______ _______ _______ _____ _____    ______ ____
ROOT
ATOM      1  N   UNL     1       3.624   6.412  17.860  0.00  0.00    +0.000 NA
ATOM      2  C   UNL     1       4.885   7.082  17.531  0.00  0.00    +0.000 C 
ATOM      3  C   UNL     1       5.475   6.348  16.343  0.00  0.00    +0.000 C 
ATOM      4  C   UNL     1       4.921   4.939  16.440  0.00  0.00    +0.000 C 
ATOM      5  C   UNL     1       3.743   5.002  17.428  0.00  0.00    +0.000 C 
ENDROOT
BRANCH   5   6
ATOM      6  C   UNL     1       3.961   4.098  18.610  0.00  0.00    +0.000 A 
ATOM      7  N   UNL     1       5.090   3.503  18.960  0.00  0.00    +0.000 NA
ATOM      8  N   UNL     1       4.857   2.732  20.073  0.00  0.00    +0.000 NA
ATOM      9  C   UNL     1       3.594   2.877  20.400  0.00  0.00    +0.000 A 
ATOM     10  C   UNL     1       2.811   2.337  21.458  0.00  0.00    +0.000 A 
ATOM     11  C   UNL     1       1.505   2.655  21.549  0.00  0.00    +0.000 A 
ATOM     12  C   UNL     1       0.872   3.538  20.580  0.00  0.00    +0.000 A 
ATOM     13  C   UNL     1       1.612   4.054  19.582  0.00  0.00    +0.000 A 
ATOM     14  N   UNL     1       2.968   3.728  19.499  0.00  0.00    +0.000 N 
ENDBRANCH   5   6
BRANCH   1  15
ATOM     15  C   UNL     1       2.421   7.114  17.383  0.00  0.00    +0.000 C 
BRANCH  15  18
ATOM     16  C   UNL     1       1.297   9.481  19.759  0.00  0.00    +0.000 A 
ATOM     17  N   UNL     1       1.676   8.255  19.462  0.00  0.00    +0.000 NA
ATOM     18  C   UNL     1       2.102   8.344  18.158  0.00  0.00    +0.000 A 
ATOM     19  C   UNL     1       2.073   9.663  17.760  0.00  0.00    +0.000 A 
ATOM     20  O   UNL     1       1.543  10.402  18.778  0.00  0.00    +0.000 OA
BRANCH  16  26
ATOM     21  F   UNL     1      -1.986  12.279  21.997  0.00  0.00    +0.000 F 
ATOM     22  C   UNL     1      -1.103  11.272  22.042  0.00  0.00    +0.000 A 
ATOM     23  C   UNL     1      -0.980  10.524  23.208  0.00  0.00    +0.000 A 
ATOM     24  C   UNL     1      -0.078   9.468  23.252  0.00  0.00    +0.000 A 
ATOM     25  C   UNL     1       0.684   9.167  22.124  0.00  0.00    +0.000 A 
ATOM     26  C   UNL     1       0.556   9.911  20.939  0.00  0.00    +0.000 A 
ATOM     27  C   UNL     1      -0.345  10.981  20.910  0.00  0.00    +0.000 A 
ENDBRANCH  16  26
ENDBRANCH  15  18
ENDBRANCH   1  15
TORSDOF 4
ENDMDL
MODEL 4
REMARK VINA RESULT:      -8.8      3.917      8.209
REMARK  Name = 
REMARK  4 active torsions:
REMARK  status: ('A' for Active; 'I' for Inactive)
REMARK    1  A    between atoms: C_6  and  C_7
REMARK    2  A    between atoms: C_9  and  C_10
REMARK    3  A    between atoms: C_10  and  N_11
REMARK    4  A    between atoms: C_15  and  C_16
REMARK                            x       y       z     vdW  Elec       q    Type
REMARK                         _______ _______ _______ _____ _____    ______ ____
ROOT
ATOM      1  N   UNL     1       3.770   6.412  17.799  0.00  0.00    +0.000 NA
ATOM      2  C   UNL     1       5.061   7.030  17.485  0.00  0.00    +0.000 C 
ATOM      3  C   UNL     1       5.651   6.248  16.329  0.00  0.00    +0.000 C 
ATOM      4  C   UNL     1       5.044   4.861  16.444  0.00  0.00    +0.000 C 
ATOM      5  C   UNL     1       3.847   4.990  17.402  0.00  0.00    +0.000 C 
ENDROOT
BRANCH   5   6
ATOM      6  C   UNL     1       4.005   4.107  18.609  0.00  0.00    +0.000 A 
ATOM      7  N   UNL     1       5.105   3.485  19.002  0.00  0.00    +0.000 NA
ATOM      8  N   UNL     1       4.819   2.747  20.125  0.00  0.00    +0.000 NA
ATOM      9  C   UNL     1       3.553   2.937  20.414  0.00  0.00    +0.000 A 
ATOM     10  C   UNL     1       2.726   2.445  21.462  0.00  0.00    +0.000 A 
ATOM     11  C   UNL     1       1.428   2.806  21.511  0.00  0.00    +0.000 A 
ATOM     12  C   UNL     1       0.849   3.685  20.506  0.00  0.00    +0.000 A 
ATOM     13  C   UNL     1       1.632   4.156  19.517  0.00  0.00    +0.000 A 
ATOM     14  N   UNL     1       2.978   3.787  19.478  0.00  0.00    +0.000 N 
ENDBRANCH   5   6
BRANCH   1  15
ATOM     15  C   UNL     1       2.603   7.145  17.278  0.00  0.00    +0.000 C 
BRANCH  15  18
ATOM     16  C   UNL     1       1.336   9.379  19.711  0.00  0.00    +0.000 A 
ATOM     17  N   UNL     1       1.746   8.174  19.373  0.00  0.00    +0.000 NA
ATOM     18  C   UNL     1       2.231   8.332  18.096  0.00  0.00    +0.000 A 
ATOM     19  C   UNL     1       2.203   9.668  17.763  0.00  0.00    +0.000 A 
ATOM     20  O   UNL     1       1.615  10.350  18.789  0.00  0.00    +0.000 OA
BRANCH  16  26
ATOM     21  F   UNL     1       0.212   9.070  24.429  0.00  0.00    +0.000 F 
ATOM     22  C   UNL     1       0.003   9.619  23.224  0.00  0.00    +0.000 A 
ATOM     23  C   UNL     1      -0.912  10.660  23.098  0.00  0.00    +0.000 A 
ATOM     24  C   UNL     1      -1.118  11.243  21.854  0.00  0.00    +0.000 A 
ATOM     25  C   UNL     1      -0.399  10.784  20.751  0.00  0.00    +0.000 A 
ATOM     26  C   UNL     1       0.535   9.741  20.874  0.00  0.00    +0.000 A 
ATOM     27  C   UNL     1       0.725   9.151  22.129  0.00  0.00    +0.000 A 
ENDBRANCH  16  26
ENDBRANCH  15  18
ENDBRANCH   1  15
TORSDOF 4
ENDMDL
MODEL 5
REMARK VINA RESULT:      -8.8      3.760      7.645
REMARK  Name = 
REMARK  4 active torsions:
REMARK  status: ('A' for Active; 'I' for Inactive)
REMARK    1  A    between atoms: C_6  and  C_7
REMARK    2  A    between atoms: C_9  and  C_10
REMARK    3  A    between atoms: C_10  and  N_11
REMARK    4  A    between atoms: C_15  and  C_16
REMARK                            x       y       z     vdW  Elec       q    Type
REMARK                         _______ _______ _______ _____ _____    ______ ____
ROOT
ATOM      1  N   UNL     1       4.805   6.143  17.638  0.00  0.00    +0.000 NA
ATOM      2  C   UNL     1       6.230   6.363  17.375  0.00  0.00    +0.000 C 
ATOM      3  C   UNL     1       6.641   5.363  16.313  0.00  0.00    +0.000 C 
ATOM      4  C   UNL     1       5.673   4.204  16.472  0.00  0.00    +0.000 C 
ATOM      5  C   UNL     1       4.511   4.725  17.335  0.00  0.00    +0.000 C 
ENDROOT
BRANCH   5   6
ATOM      6  C   UNL     1       4.361   3.929  18.603  0.00  0.00    +0.000 A 
ATOM      7  N   UNL     1       5.318   3.297  19.264  0.00  0.00    +0.000 NA
ATOM      8  N   UNL     1       4.761   2.657  20.344  0.00  0.00    +0.000 NA
ATOM      9  C   UNL     1       3.474   2.918  20.341  0.00  0.00    +0.000 A 
ATOM     10  C   UNL     1       2.419   2.538  21.216  0.00  0.00    +0.000 A 
ATOM     11  C   UNL     1       1.162   2.951  20.961  0.00  0.00    +0.000 A 
ATOM     12  C   UNL     1       0.857   3.774  19.800  0.00  0.00    +0.000 A 
ATOM     13  C   UNL     1       1.856   4.139  18.974  0.00  0.00    +0.000 A 
ATOM     14  N   UNL     1       3.158   3.716  19.250  0.00  0.00    +0.000 N 
ENDBRANCH   5   6
BRANCH   1  15
ATOM     15  C   UNL     1       3.911   7.119  16.993  0.00  0.00    +0.000 C 
BRANCH  15  18
ATOM     16  C   UNL     1       1.452   9.096  18.593  0.00  0.00    +0.000 A 
ATOM     17  N   UNL     1       2.068   8.710  17.494  0.00  0.00    +0.000 NA
ATOM     18  C   UNL     1       2.889   7.689  17.912  0.00  0.00    +0.000 A 
ATOM     19  C   UNL     1       2.639   7.421  19.241  0.00  0.00    +0.000 A 
ATOM     20  O   UNL     1       1.727   8.330  19.693  0.00  0.00    +0.000 OA
BRANCH  16  26
ATOM     21  F   UNL     1       0.820  13.716  19.963  0.00  0.00    +0.000 F 
ATOM     22  C   UNL     1       0.331  12.596  19.412  0.00  0.00    +0.000 A 
ATOM     23  C   UNL     1      -0.950  12.606  18.870  0.00  0.00    +0.000 A 
ATOM     24  C   UNL     1      -1.453  11.452  18.282  0.00  0.00    +0.000 A 
ATOM     25  C   UNL     1      -0.664  10.303  18.234  0.00  0.00    +0.000 A 
ATOM     26  C   UNL     1       0.634  10.290  18.770  0.00  0.00    +0.000 A 
ATOM     27  C   UNL     1       1.127  11.453  19.372  0.00  0.00    +0.000 A 
ENDBRANCH  16  26
ENDBRANCH  15  18
ENDBRANCH   1  15
TORSDOF 4
ENDMDL
MODEL 6
REMARK VINA RESULT:      -8.8      4.709      6.919
REMARK  Name = 
REMARK  4 active torsions:
REMARK  status: ('A' for Active; 'I' for Inactive)
REMARK    1  A    between atoms: C_6  and  C_7
REMARK    2  A    between atoms: C_9  and  C_10
REMARK    3  A    between atoms: C_10  and  N_11
REMARK    4  A    between atoms: C_15  and  C_16
REMARK                            x       y       z     vdW  Elec       q    Type
REMARK                         _______ _______ _______ _____ _____    ______ ____
ROOT
ATOM      1  N   UNL     1       6.348   5.537  16.950  0.00  0.00    +0.000 NA
ATOM      2  C   UNL     1       7.284   4.748  16.144  0.00  0.00    +0.000 C 
ATOM      3  C   UNL     1       6.475   4.099  15.040  0.00  0.00    +0.000 C 
ATOM      4  C   UNL     1       5.070   3.981  15.602  0.00  0.00    +0.000 C 
ATOM      5  C   UNL     1       5.016   4.903  16.833  0.00  0.00    +0.000 C 
ENDROOT
BRANCH   5   6
ATOM      6  C   UNL     1       4.679   4.138  18.084  0.00  0.00    +0.000 A 
ATOM      7  N   UNL     1       5.526   3.692  18.997  0.00  0.00    +0.000 NA
ATOM      8  N   UNL     1       4.821   3.008  19.958  0.00  0.00    +0.000 NA
ATOM      9  C   UNL     1       3.550   3.058  19.630  0.00  0.00    +0.000 A 
ATOM     10  C   UNL     1       2.380   2.544  20.253  0.00  0.00    +0.000 A 
ATOM     11  C   UNL     1       1.178   2.739  19.677  0.00  0.00    +0.000 A 
ATOM     12  C   UNL     1       1.050   3.461  18.420  0.00  0.00    +0.000 A 
ATOM     13  C   UNL     1       2.156   3.954  17.831  0.00  0.00    +0.000 A 
ATOM     14  N   UNL     1       3.398   3.756  18.439  0.00  0.00    +0.000 N 
ENDBRANCH   5   6
BRANCH   1  15
ATOM     15  C   UNL     1       6.378   6.983  16.674  0.00  0.00    +0.000 C 
BRANCH  15  18
ATOM     16  C   UNL     1       8.430   9.405  18.234  0.00  0.00    +0.000 A 
ATOM     17  N   UNL     1       7.423   9.105  17.441  0.00  0.00    +0.000 NA
ATOM     18  C   UNL     1       7.288   7.743  17.575  0.00  0.00    +0.000 A 
ATOM     19  C   UNL     1       8.154   7.294  18.548  0.00  0.00    +0.000 A 
ATOM     20  O   UNL     1       8.905   8.353  18.969  0.00  0.00    +0.000 OA
BRANCH  16  26
ATOM     21  F   UNL     1       8.740  14.210  17.575  0.00  0.00    +0.000 F 
ATOM     22  C   UNL     1       9.280  13.067  18.020  0.00  0.00    +0.000 A 
ATOM     23  C   UNL     1      10.497  13.105  18.693  0.00  0.00    +0.000 A 
ATOM     24  C   UNL     1      11.051  11.924  19.172  0.00  0.00    +0.000 A 
ATOM     25  C   UNL     1      10.376  10.719  18.978  0.00  0.00    +0.000 A 
ATOM     26  C   UNL     1       9.142  10.676  18.309  0.00  0.00    +0.000 A 
ATOM     27  C   UNL     1       8.598  11.869  17.820  0.00  0.00    +0.000 A 
ENDBRANCH  16  26
ENDBRANCH  15  18
ENDBRANCH   1  15
TORSDOF 4
ENDMDL
MODEL 7
REMARK VINA RESULT:      -8.8      3.652      7.531
REMARK  Name = 
REMARK  4 active torsions:
REMARK  status: ('A' for Active; 'I' for Inactive)
REMARK    1  A    between atoms: C_6  and  C_7
REMARK    2  A    between atoms: C_9  and  C_10
REMARK    3  A    between atoms: C_10  and  N_11
REMARK    4  A    between atoms: C_15  and  C_16
REMARK                            x       y       z     vdW  Elec       q    Type
REMARK                         _______ _______ _______ _____ _____    ______ ____
ROOT
ATOM      1  N   UNL     1       4.864   6.107  17.663  0.00  0.00    +0.000 NA
ATOM      2  C   UNL     1       6.294   6.304  17.416  0.00  0.00    +0.000 C 
ATOM      3  C   UNL     1       6.704   5.286  16.371  0.00  0.00    +0.000 C 
ATOM      4  C   UNL     1       5.719   4.143  16.532  0.00  0.00    +0.000 C 
ATOM      5  C   UNL     1       4.553   4.690  17.374  0.00  0.00    +0.000 C 
ENDROOT
BRANCH   5   6
ATOM      6  C   UNL     1       4.377   3.912  18.649  0.00  0.00    +0.000 A 
ATOM      7  N   UNL     1       5.320   3.293  19.340  0.00  0.00    +0.000 NA
ATOM      8  N   UNL     1       4.740   2.665  20.416  0.00  0.00    +0.000 NA
ATOM      9  C   UNL     1       3.453   2.921  20.380  0.00  0.00    +0.000 A 
ATOM     10  C   UNL     1       2.378   2.550  21.235  0.00  0.00    +0.000 A 
ATOM     11  C   UNL     1       1.126   2.955  20.945  0.00  0.00    +0.000 A 
ATOM     12  C   UNL     1       0.846   3.760  19.765  0.00  0.00    +0.000 A 
ATOM     13  C   UNL     1       1.862   4.117  18.958  0.00  0.00    +0.000 A 
ATOM     14  N   UNL     1       3.159   3.703  19.270  0.00  0.00    +0.000 N 
ENDBRANCH   5   6
BRANCH   1  15
ATOM     15  C   UNL     1       3.991   7.088  16.995  0.00  0.00    +0.000 C 
BRANCH  15  18
ATOM     16  C   UNL     1       1.495   9.069  18.530  0.00  0.00    +0.000 A 
ATOM     17  N   UNL     1       2.140   8.684  17.448  0.00  0.00    +0.000 NA
ATOM     18  C   UNL     1       2.945   7.659  17.887  0.00  0.00    +0.000 A 
ATOM     19  C   UNL     1       2.657   7.389  19.207  0.00  0.00    +0.000 A 
ATOM     20  O   UNL     1       1.736   8.300  19.636  0.00  0.00    +0.000 OA
BRANCH  16  26
ATOM     21  F   UNL     1      -2.774  11.393  18.548  0.00  0.00    +0.000 F 
ATOM     22  C   UNL     1      -1.447  11.411  18.736  0.00  0.00    +0.000 A 
ATOM     23  C   UNL     1      -0.842  12.566  19.222  0.00  0.00    +0.000 A 
ATOM     24  C   UNL     1       0.530  12.582  19.436  0.00  0.00    +0.000 A 
ATOM     25  C   UNL     1       1.282  11.439  19.168  0.00  0.00    +0.000 A 
ATOM     26  C   UNL     1       0.676  10.266  18.687  0.00  0.00    +0.000 A 
ATOM     27  C   UNL     1      -0.705  10.264  18.462  0.00  0.00    +0.000 A 
ENDBRANCH  16  26
ENDBRANCH  15  18
ENDBRANCH   1  15
TORSDOF 4
ENDMDL
MODEL 8
REMARK VINA RESULT:      -8.7      1.085      1.427
REMARK  Name = 
REMARK  4 active torsions:
REMARK  status: ('A' for Active; 'I' for Inactive)
REMARK    1  A    between atoms: C_6  and  C_7
REMARK    2  A    between atoms: C_9  and  C_10
REMARK    3  A    between atoms: C_10  and  N_11
REMARK    4  A    between atoms: C_15  and  C_16
REMARK                            x       y       z     vdW  Elec       q    Type
REMARK                         _______ _______ _______ _____ _____    ______ ____
ROOT
ATOM      1  N   UNL     1       3.244   3.745  19.605  0.00  0.00    +0.000 NA
ATOM      2  C   UNL     1       2.284   2.640  19.677  0.00  0.00    +0.000 C 
ATOM      3  C   UNL     1       1.486   2.668  18.389  0.00  0.00    +0.000 C 
ATOM      4  C   UNL     1       1.532   4.114  17.931  0.00  0.00    +0.000 C 
ATOM      5  C   UNL     1       2.659   4.788  18.734  0.00  0.00    +0.000 C 
ENDROOT
BRANCH   5   6
ATOM      6  C   UNL     1       2.144   5.940  19.553  0.00  0.00    +0.000 A 
ATOM      7  N   UNL     1       1.707   5.897  20.801  0.00  0.00    +0.000 NA
ATOM      8  N   UNL     1       1.286   7.153  21.166  0.00  0.00    +0.000 NA
ATOM      9  C   UNL     1       1.486   7.952  20.144  0.00  0.00    +0.000 A 
ATOM     10  C   UNL     1       1.256   9.343  19.958  0.00  0.00    +0.000 A 
ATOM     11  C   UNL     1       1.553   9.914  18.774  0.00  0.00    +0.000 A 
ATOM     12  C   UNL     1       2.098   9.134  17.673  0.00  0.00    +0.000 A 
ATOM     13  C   UNL     1       2.322   7.818  17.850  0.00  0.00    +0.000 A 
ATOM     14  N   UNL     1       2.022   7.235  19.083  0.00  0.00    +0.000 N 
ENDBRANCH   5   6
BRANCH   1  15
ATOM     15  C   UNL     1       4.615   3.337  19.258  0.00  0.00    +0.000 C 
BRANCH  15  18
ATOM     16  C   UNL     1       5.880   4.651  16.227  0.00  0.00    +0.000 A 
ATOM     17  N   UNL     1       5.048   3.855  16.865  0.00  0.00    +0.000 NA
ATOM     18  C   UNL     1       5.233   4.171  18.191  0.00  0.00    +0.000 A 
ATOM     19  C   UNL     1       6.093   5.243  18.285  0.00  0.00    +0.000 A 
ATOM     20  O   UNL     1       6.527   5.551  17.029  0.00  0.00    +0.000 OA
BRANCH  16  26
ATOM     21  F   UNL     1       8.742   5.819  12.477  0.00  0.00    +0.000 F 
ATOM     22  C   UNL     1       7.700   5.132  12.966  0.00  0.00    +0.000 A 
ATOM     23  C   UNL     1       7.034   4.227  12.146  0.00  0.00    +0.000 A 
ATOM     24  C   UNL     1       5.965   3.500  12.655  0.00  0.00    +0.000 A 
ATOM     25  C   UNL     1       5.580   3.681  13.983  0.00  0.00    +0.000 A 
ATOM     26  C   UNL     1       6.256   4.585  14.819  0.00  0.00    +0.000 A 
ATOM     27  C   UNL     1       7.322   5.322  14.294  0.00  0.00    +0.000 A 
ENDBRANCH  16  26
ENDBRANCH  15  18
ENDBRANCH   1  15
TORSDOF 4
ENDMDL
MODEL 9
REMARK VINA RESULT:      -8.6      4.787      6.733
REMARK  Name = 
REMARK  4 active torsions:
REMARK  status: ('A' for Active; 'I' for Inactive)
REMARK    1  A    between atoms: C_6  and  C_7
REMARK    2  A    between atoms: C_9  and  C_10
REMARK    3  A    between atoms: C_10  and  N_11
REMARK    4  A    between atoms: C_15  and  C_16
REMARK                            x       y       z     vdW  Elec       q    Type
REMARK                         _______ _______ _______ _____ _____    ______ ____
ROOT
ATOM      1  N   UNL     1       6.155   5.558  16.747  0.00  0.00    +0.000 NA
ATOM      2  C   UNL     1       7.160   4.671  16.155  0.00  0.00    +0.000 C 
ATOM      3  C   UNL     1       6.577   4.153  14.856  0.00  0.00    +0.000 C 
ATOM      4  C   UNL     1       5.073   4.207  15.053  0.00  0.00    +0.000 C 
ATOM      5  C   UNL     1       4.828   5.104  16.279  0.00  0.00    +0.000 C 
ENDROOT
BRANCH   5   6
ATOM      6  C   UNL     1       4.101   4.366  17.370  0.00  0.00    +0.000 A 
ATOM      7  N   UNL     1       4.008   3.054  17.517  0.00  0.00    +0.000 NA
ATOM      8  N   UNL     1       3.223   2.787  18.613  0.00  0.00    +0.000 NA
ATOM      9  C   UNL     1       2.860   3.937  19.132  0.00  0.00    +0.000 A 
ATOM     10  C   UNL     1       2.068   4.268  20.267  0.00  0.00    +0.000 A 
ATOM     11  C   UNL     1       1.844   5.562  20.567  0.00  0.00    +0.000 A 
ATOM     12  C   UNL     1       2.388   6.634  19.748  0.00  0.00    +0.000 A 
ATOM     13  C   UNL     1       3.142   6.323  18.677  0.00  0.00    +0.000 A 
ATOM     14  N   UNL     1       3.380   4.980  18.377  0.00  0.00    +0.000 N 
ENDBRANCH   5   6
BRANCH   1  15
ATOM     15  C   UNL     1       6.427   6.993  16.561  0.00  0.00    +0.000 C 
BRANCH  15  18
ATOM     16  C   UNL     1       8.487   9.066  18.554  0.00  0.00    +0.000 A 
ATOM     17  N   UNL     1       7.525   8.931  17.665  0.00  0.00    +0.000 NA
ATOM     18  C   UNL     1       7.308   7.575  17.610  0.00  0.00    +0.000 A 
ATOM     19  C   UNL     1       8.076   6.954  18.571  0.00  0.00    +0.000 A 
ATOM     20  O   UNL     1       8.850   7.901  19.175  0.00  0.00    +0.000 OA
BRANCH  16  26
ATOM     21  F   UNL     1      10.413  12.320  21.607  0.00  0.00    +0.000 F 
ATOM     22  C   UNL     1      10.249  11.862  20.358  0.00  0.00    +0.000 A 
ATOM     23  C   UNL     1      10.939  12.469  19.313  0.00  0.00    +0.000 A 
ATOM     24  C   UNL     1      10.786  11.985  18.020  0.00  0.00    +0.000 A 
ATOM     25  C   UNL     1       9.950  10.893  17.788  0.00  0.00    +0.000 A 
ATOM     26  C   UNL     1       9.259  10.270  18.840  0.00  0.00    +0.000 A 
ATOM     27  C   UNL     1       9.409  10.773  20.137  0.00  0.00    +0.000 A 
ENDBRANCH  16  26
ENDBRANCH  15  18
ENDBRANCH   1  15
TORSDOF 4
ENDMDL
