MODEL 1
REMARK VINA RESULT:      -8.8      0.000      0.000
REMARK  Name = 
REMARK  4 active torsions:
REMARK  status: ('A' for Active; 'I' for Inactive)
REMARK    1  A    between atoms: C_1  and  C_2
REMARK    2  A    between atoms: N_6  and  C_7
REMARK    3  A    between atoms: C_10  and  C_11
REMARK    4  A    between atoms: C_17  and  C_18
REMARK                            x       y       z     vdW  Elec       q    Type
REMARK                         _______ _______ _______ _____ _____    ______ ____
ROOT
ATOM      1  C   UNL     1       3.563   6.073  18.857  0.00  0.00    +0.000 C 
ATOM      2  O   UNL     1       4.719   6.223  19.252  0.00  0.00    +0.000 OA
ATOM      3  N   UNL     1       3.147   4.943  18.159  0.00  0.00    +0.000 N 
ATOM      4  C   UNL     1       1.796   4.554  17.796  0.00  0.00    +0.000 C 
ATOM      5  C   UNL     1       1.774   3.053  17.988  0.00  0.00    +0.000 C 
ATOM      6  C   UNL     1       3.191   2.611  17.651  0.00  0.00    +0.000 C 
ATOM      7  C   UNL     1       4.078   3.832  17.959  0.00  0.00    +0.000 C 
ENDROOT
BRANCH   7   8
ATOM      8  C   UNL     1       5.079   4.123  16.855  0.00  0.00    +0.000 A 
ATOM      9  C   UNL     1       4.693   4.147  15.503  0.00  0.00    +0.000 A 
ATOM     10  C   UNL     1       5.616   4.450  14.503  0.00  0.00    +0.000 A 
ATOM     11  C   UNL     1       6.931   4.731  14.849  0.00  0.00    +0.000 A 
ATOM     12  F   UNL     1       7.815   5.033  13.890  0.00  0.00    +0.000 F 
ATOM     13  C   UNL     1       7.341   4.712  16.177  0.00  0.00    +0.000 A 
ATOM     14  C   UNL     1       6.417   4.410  17.179  0.00  0.00    +0.000 A 
ENDBRANCH   7   8
BRANCH   1  18
ATOM     15  C   UNL     1       0.917   9.240  19.999  0.00  0.00    +0.000 A 
ATOM     16  C   UNL     1       1.125   8.169  20.881  0.00  0.00    +0.000 A 
ATOM     17  C   UNL     1       1.907   7.077  20.492  0.00  0.00    +0.000 A 
ATOM     18  C   UNL     1       2.565   7.098  19.262  0.00  0.00    +0.000 A 
ATOM     19  C   UNL     1       2.330   8.149  18.368  0.00  0.00    +0.000 A 
ATOM     20  C   UNL     1       1.504   9.213  18.731  0.00  0.00    +0.000 A 
BRANCH  15  26
ATOM     21  C   UNL     1      -1.667  10.497  18.669  0.00  0.00    +0.000 C 
ATOM     22  C   UNL     1      -0.889  11.025  19.818  0.00  0.00    +0.000 A 
ATOM     23  C   UNL     1      -1.108  12.171  20.554  0.00  0.00    +0.000 A 
ATOM     24  C   UNL     1      -0.232  12.079  21.642  0.00  0.00    +0.000 A 
ATOM     25  N   UNL     1       0.484  10.957  21.622  0.00  0.00    +0.000 NA
ATOM     26  N   UNL     1       0.165  10.365  20.439  0.00  0.00    +0.000 N 
ENDBRANCH  15  26
ENDBRANCH   1  18
TORSDOF 3
ENDMDL
MODEL 2
REMARK VINA RESULT:      -8.5      0.763      1.204
REMARK  Name = 
REMARK  4 active torsions:
REMARK  status: ('A' for Active; 'I' for Inactive)
REMARK    1  A    between atoms: C_1  and  C_2
REMARK    2  A    between atoms: N_6  and  C_7
REMARK    3  A    between atoms: C_10  and  C_11
REMARK    4  A    between atoms: C_17  and  C_18
REMARK                            x       y       z     vdW  Elec       q    Type
REMARK                         _______ _______ _______ _____ _____    ______ ____
ROOT
ATOM      1  C   UNL     1       3.554   5.950  18.959  0.00  0.00    +0.000 C 
ATOM      2  O   UNL     1       4.712   6.090  19.354  0.00  0.00    +0.000 OA
ATOM      3  N   UNL     1       3.140   4.847  18.219  0.00  0.00    +0.000 N 
ATOM      4  C   UNL     1       1.789   4.465  17.849  0.00  0.00    +0.000 C 
ATOM      5  C   UNL     1       1.775   2.958  17.981  0.00  0.00    +0.000 C 
ATOM      6  C   UNL     1       3.193   2.537  17.619  0.00  0.00    +0.000 C 
ATOM      7  C   UNL     1       4.075   3.749  17.971  0.00  0.00    +0.000 C 
ENDROOT
BRANCH   7   8
ATOM      8  C   UNL     1       5.069   4.088  16.874  0.00  0.00    +0.000 A 
ATOM      9  C   UNL     1       4.674   4.165  15.526  0.00  0.00    +0.000 A 
ATOM     10  C   UNL     1       5.591   4.512  14.534  0.00  0.00    +0.000 A 
ATOM     11  C   UNL     1       6.906   4.785  14.883  0.00  0.00    +0.000 A 
ATOM     12  F   UNL     1       7.783   5.129  13.932  0.00  0.00    +0.000 F 
ATOM     13  C   UNL     1       7.324   4.715  16.207  0.00  0.00    +0.000 A 
ATOM     14  C   UNL     1       6.407   4.369  17.202  0.00  0.00    +0.000 A 
ENDBRANCH   7   8
BRANCH   1  18
ATOM     15  C   UNL     1       0.902   9.054  20.249  0.00  0.00    +0.000 A 
ATOM     16  C   UNL     1       1.095   7.933  21.069  0.00  0.00    +0.000 A 
ATOM     17  C   UNL     1       1.879   6.863  20.629  0.00  0.00    +0.000 A 
ATOM     18  C   UNL     1       2.554   6.953  19.411  0.00  0.00    +0.000 A 
ATOM     19  C   UNL     1       2.334   8.055  18.576  0.00  0.00    +0.000 A 
ATOM     20  C   UNL     1       1.505   9.099  18.989  0.00  0.00    +0.000 A 
BRANCH  15  26
ATOM     21  C   UNL     1      -0.064   9.575  23.218  0.00  0.00    +0.000 C 
ATOM     22  C   UNL     1      -0.407  10.354  22.002  0.00  0.00    +0.000 A 
ATOM     23  C   UNL     1      -1.220  11.464  21.890  0.00  0.00    +0.000 A 
ATOM     24  C   UNL     1      -1.023  11.929  20.584  0.00  0.00    +0.000 A 
ATOM     25  N   UNL     1      -0.144  11.190  19.911  0.00  0.00    +0.000 NA
ATOM     26  N   UNL     1       0.146  10.154  20.744  0.00  0.00    +0.000 N 
ENDBRANCH  15  26
ENDBRANCH   1  18
TORSDOF 3
ENDMDL
MODEL 3
REMARK VINA RESULT:      -8.4      0.826      1.259
REMARK  Name = 
REMARK  4 active torsions:
REMARK  status: ('A' for Active; 'I' for Inactive)
REMARK    1  A    between atoms: C_1  and  C_2
REMARK    2  A    between atoms: N_6  and  C_7
REMARK    3  A    between atoms: C_10  and  C_11
REMARK    4  A    between atoms: C_17  and  C_18
REMARK                            x       y       z     vdW  Elec       q    Type
REMARK                         _______ _______ _______ _____ _____    ______ ____
ROOT
ATOM      1  C   UNL     1       3.461   6.422  18.620  0.00  0.00    +0.000 C 
ATOM      2  O   UNL     1       4.608   6.643  19.007  0.00  0.00    +0.000 OA
ATOM      3  N   UNL     1       3.076   5.208  18.060  0.00  0.00    +0.000 N 
ATOM      4  C   UNL     1       1.738   4.750  17.732  0.00  0.00    +0.000 C 
ATOM      5  C   UNL     1       1.742   3.283  18.104  0.00  0.00    +0.000 C 
ATOM      6  C   UNL     1       3.173   2.834  17.838  0.00  0.00    +0.000 C 
ATOM      7  C   UNL     1       4.031   4.101  18.006  0.00  0.00    +0.000 C 
ENDROOT
BRANCH   7   8
ATOM      8  C   UNL     1       5.041   4.277  16.886  0.00  0.00    +0.000 A 
ATOM      9  C   UNL     1       4.648   4.256  15.535  0.00  0.00    +0.000 A 
ATOM     10  C   UNL     1       5.582   4.455  14.518  0.00  0.00    +0.000 A 
ATOM     11  C   UNL     1       6.912   4.676  14.845  0.00  0.00    +0.000 A 
ATOM     12  F   UNL     1       7.807   4.878  13.869  0.00  0.00    +0.000 F 
ATOM     13  C   UNL     1       7.329   4.700  16.172  0.00  0.00    +0.000 A 
ATOM     14  C   UNL     1       6.395   4.503  17.190  0.00  0.00    +0.000 A 
ENDBRANCH   7   8
BRANCH   1  18
ATOM     15  C   UNL     1       0.730   9.647  19.311  0.00  0.00    +0.000 A 
ATOM     16  C   UNL     1       1.042   8.777  20.365  0.00  0.00    +0.000 A 
ATOM     17  C   UNL     1       1.854   7.661  20.141  0.00  0.00    +0.000 A 
ATOM     18  C   UNL     1       2.438   7.468  18.889  0.00  0.00    +0.000 A 
ATOM     19  C   UNL     1       2.098   8.316  17.828  0.00  0.00    +0.000 A 
ATOM     20  C   UNL     1       1.242   9.398  18.035  0.00  0.00    +0.000 A 
BRANCH  15  26
ATOM     21  C   UNL     1       1.712  12.447  20.416  0.00  0.00    +0.000 C 
ATOM     22  C   UNL     1       0.315  12.003  20.182  0.00  0.00    +0.000 A 
ATOM     23  C   UNL     1      -0.858  12.697  20.397  0.00  0.00    +0.000 A 
ATOM     24  C   UNL     1      -1.859  11.913  19.809  0.00  0.00    +0.000 A 
ATOM     25  N   UNL     1      -1.372  10.810  19.246  0.00  0.00    +0.000 NA
ATOM     26  N   UNL     1      -0.052  10.806  19.577  0.00  0.00    +0.000 N 
ENDBRANCH  15  26
ENDBRANCH   1  18
TORSDOF 3
ENDMDL
MODEL 4
REMARK VINA RESULT:      -8.0      0.765      1.288
REMARK  Name = 
REMARK  4 active torsions:
REMARK  status: ('A' for Active; 'I' for Inactive)
REMARK    1  A    between atoms: C_1  and  C_2
REMARK    2  A    between atoms: N_6  and  C_7
REMARK    3  A    between atoms: C_10  and  C_11
REMARK    4  A    between atoms: C_17  and  C_18
REMARK                            x       y       z     vdW  Elec       q    Type
REMARK                         _______ _______ _______ _____ _____    ______ ____
ROOT
ATOM      1  C   UNL     1       3.751   6.448  18.219  0.00  0.00    +0.000 C 
ATOM      2  O   UNL     1       4.944   6.637  18.459  0.00  0.00    +0.000 OA
ATOM      3  N   UNL     1       3.260   5.232  17.755  0.00  0.00    +0.000 N 
ATOM      4  C   UNL     1       1.877   4.816  17.606  0.00  0.00    +0.000 C 
ATOM      5  C   UNL     1       1.875   3.363  18.030  0.00  0.00    +0.000 C 
ATOM      6  C   UNL     1       3.247   2.850  17.614  0.00  0.00    +0.000 C 
ATOM      7  C   UNL     1       4.162   4.087  17.630  0.00  0.00    +0.000 C 
ENDROOT
BRANCH   7   8
ATOM      8  C   UNL     1       5.036   4.186  16.392  0.00  0.00    +0.000 A 
ATOM      9  C   UNL     1       4.497   4.040  15.101  0.00  0.00    +0.000 A 
ATOM     10  C   UNL     1       5.305   4.169  13.972  0.00  0.00    +0.000 A 
ATOM     11  C   UNL     1       6.657   4.443  14.127  0.00  0.00    +0.000 A 
ATOM     12  F   UNL     1       7.431   4.578  13.043  0.00  0.00    +0.000 F 
ATOM     13  C   UNL     1       7.217   4.590  15.391  0.00  0.00    +0.000 A 
ATOM     14  C   UNL     1       6.408   4.463  16.522  0.00  0.00    +0.000 A 
ENDBRANCH   7   8
BRANCH   1  18
ATOM     15  C   UNL     1       0.807   9.375  19.266  0.00  0.00    +0.000 A 
ATOM     16  C   UNL     1       1.420   9.441  18.007  0.00  0.00    +0.000 A 
ATOM     17  C   UNL     1       2.452   8.557  17.678  0.00  0.00    +0.000 A 
ATOM     18  C   UNL     1       2.805   7.541  18.567  0.00  0.00    +0.000 A 
ATOM     19  C   UNL     1       2.218   7.497  19.838  0.00  0.00    +0.000 A 
ATOM     20  C   UNL     1       1.228   8.415  20.190  0.00  0.00    +0.000 A 
BRANCH  15  26
ATOM     21  C   UNL     1      -1.773   9.921  17.514  0.00  0.00    +0.000 C 
ATOM     22  C   UNL     1      -1.358  10.615  18.759  0.00  0.00    +0.000 A 
ATOM     23  C   UNL     1      -1.990  11.646  19.423  0.00  0.00    +0.000 A 
ATOM     24  C   UNL     1      -1.307  11.769  20.639  0.00  0.00    +0.000 A 
ATOM     25  N   UNL     1      -0.323  10.881  20.759  0.00  0.00    +0.000 NA
ATOM     26  N   UNL     1      -0.279  10.248  19.555  0.00  0.00    +0.000 N 
ENDBRANCH  15  26
ENDBRANCH   1  18
TORSDOF 3
ENDMDL
MODEL 5
REMARK VINA RESULT:      -7.8      0.757      1.591
REMARK  Name = 
REMARK  4 active torsions:
REMARK  status: ('A' for Active; 'I' for Inactive)
REMARK    1  A    between atoms: C_1  and  C_2
REMARK    2  A    between atoms: N_6  and  C_7
REMARK    3  A    between atoms: C_10  and  C_11
REMARK    4  A    between atoms: C_17  and  C_18
REMARK                            x       y       z     vdW  Elec       q    Type
REMARK                         _______ _______ _______ _____ _____    ______ ____
ROOT
ATOM      1  C   UNL     1       3.401   6.580  18.723  0.00  0.00    +0.000 C 
ATOM      2  O   UNL     1       4.540   6.696  19.177  0.00  0.00    +0.000 OA
ATOM      3  N   UNL     1       2.949   5.413  18.115  0.00  0.00    +0.000 N 
ATOM      4  C   UNL     1       1.598   5.074  17.706  0.00  0.00    +0.000 C 
ATOM      5  C   UNL     1       1.460   3.606  18.044  0.00  0.00    +0.000 C 
ATOM      6  C   UNL     1       2.861   3.043  17.846  0.00  0.00    +0.000 C 
ATOM      7  C   UNL     1       3.810   4.230  18.089  0.00  0.00    +0.000 C 
ENDROOT
BRANCH   7   8
ATOM      8  C   UNL     1       4.893   4.341  17.029  0.00  0.00    +0.000 A 
ATOM      9  C   UNL     1       6.254   4.420  17.378  0.00  0.00    +0.000 A 
ATOM     10  C   UNL     1       7.239   4.485  16.393  0.00  0.00    +0.000 A 
ATOM     11  C   UNL     1       6.869   4.472  15.055  0.00  0.00    +0.000 A 
ATOM     12  F   UNL     1       7.816   4.523  14.109  0.00  0.00    +0.000 F 
ATOM     13  C   UNL     1       5.532   4.396  14.682  0.00  0.00    +0.000 A 
ATOM     14  C   UNL     1       4.545   4.329  15.668  0.00  0.00    +0.000 A 
ENDBRANCH   7   8
BRANCH   1  18
ATOM     15  C   UNL     1       0.453   9.598  19.454  0.00  0.00    +0.000 A 
ATOM     16  C   UNL     1       1.112   9.569  18.216  0.00  0.00    +0.000 A 
ATOM     17  C   UNL     1       2.145   8.656  17.988  0.00  0.00    +0.000 A 
ATOM     18  C   UNL     1       2.455   7.702  18.959  0.00  0.00    +0.000 A 
ATOM     19  C   UNL     1       1.823   7.753  20.207  0.00  0.00    +0.000 A 
ATOM     20  C   UNL     1       0.831   8.701  20.458  0.00  0.00    +0.000 A 
BRANCH  15  26
ATOM     21  C   UNL     1      -2.089   9.994  17.609  0.00  0.00    +0.000 C 
ATOM     22  C   UNL     1      -1.694  10.796  18.794  0.00  0.00    +0.000 A 
ATOM     23  C   UNL     1      -2.332  11.885  19.350  0.00  0.00    +0.000 A 
ATOM     24  C   UNL     1      -1.671  12.116  20.563  0.00  0.00    +0.000 A 
ATOM     25  N   UNL     1      -0.695  11.237  20.782  0.00  0.00    +0.000 NA
ATOM     26  N   UNL     1      -0.632  10.498  19.641  0.00  0.00    +0.000 N 
ENDBRANCH  15  26
ENDBRANCH   1  18
TORSDOF 3
ENDMDL
MODEL 6
REMARK VINA RESULT:      -7.7      3.993      9.211
REMARK  Name = 
REMARK  4 active torsions:
REMARK  status: ('A' for Active; 'I' for Inactive)
REMARK    1  A    between atoms: C_1  and  C_2
REMARK    2  A    between atoms: N_6  and  C_7
REMARK    3  A    between atoms: C_10  and  C_11
REMARK    4  A    between atoms: C_17  and  C_18
REMARK                            x       y       z     vdW  Elec       q    Type
REMARK                         _______ _______ _______ _____ _____    ______ ____
ROOT
ATOM      1  C   UNL     1       0.898  10.586  19.304  0.00  0.00    +0.000 C 
ATOM      2  O   UNL     1       1.696  11.502  19.509  0.00  0.00    +0.000 OA
ATOM      3  N   UNL     1      -0.470  10.797  19.166  0.00  0.00    +0.000 N 
ATOM      4  C   UNL     1      -1.490   9.853  18.747  0.00  0.00    +0.000 C 
ATOM      5  C   UNL     1      -2.425  10.670  17.881  0.00  0.00    +0.000 C 
ATOM      6  C   UNL     1      -2.377  12.064  18.491  0.00  0.00    +0.000 C 
ATOM      7  C   UNL     1      -0.995  12.163  19.164  0.00  0.00    +0.000 C 
ENDROOT
BRANCH   7   8
ATOM      8  C   UNL     1      -1.066  12.745  20.564  0.00  0.00    +0.000 A 
ATOM      9  C   UNL     1      -1.613  12.015  21.635  0.00  0.00    +0.000 A 
ATOM     10  C   UNL     1      -1.639  12.550  22.923  0.00  0.00    +0.000 A 
ATOM     11  C   UNL     1      -1.118  13.816  23.148  0.00  0.00    +0.000 A 
ATOM     12  F   UNL     1      -1.132  14.325  24.386  0.00  0.00    +0.000 F 
ATOM     13  C   UNL     1      -0.572  14.561  22.107  0.00  0.00    +0.000 A 
ATOM     14  C   UNL     1      -0.545  14.026  20.818  0.00  0.00    +0.000 A 
ENDBRANCH   7   8
BRANCH   1  18
ATOM     15  C   UNL     1       2.730   6.740  18.876  0.00  0.00    +0.000 A 
ATOM     16  C   UNL     1       2.687   7.605  17.772  0.00  0.00    +0.000 A 
ATOM     17  C   UNL     1       2.010   8.825  17.859  0.00  0.00    +0.000 A 
ATOM     18  C   UNL     1       1.462   9.229  19.077  0.00  0.00    +0.000 A 
ATOM     19  C   UNL     1       1.474   8.352  20.168  0.00  0.00    +0.000 A 
ATOM     20  C   UNL     1       2.099   7.109  20.067  0.00  0.00    +0.000 A 
BRANCH  15  26
ATOM     21  C   UNL     1       1.737   3.919  17.835  0.00  0.00    +0.000 C 
ATOM     22  C   UNL     1       3.044   4.249  18.456  0.00  0.00    +0.000 A 
ATOM     23  C   UNL     1       4.107   3.411  18.723  0.00  0.00    +0.000 A 
ATOM     24  C   UNL     1       5.156   4.260  19.098  0.00  0.00    +0.000 A 
ATOM     25  N   UNL     1       4.805   5.543  19.060  0.00  0.00    +0.000 NA
ATOM     26  N   UNL     1       3.474   5.530  18.780  0.00  0.00    +0.000 N 
ENDBRANCH  15  26
ENDBRANCH   1  18
TORSDOF 3
ENDMDL
MODEL 7
REMARK VINA RESULT:      -7.6      0.884      1.706
REMARK  Name = 
REMARK  4 active torsions:
REMARK  status: ('A' for Active; 'I' for Inactive)
REMARK    1  A    between atoms: C_1  and  C_2
REMARK    2  A    between atoms: N_6  and  C_7
REMARK    3  A    between atoms: C_10  and  C_11
REMARK    4  A    between atoms: C_17  and  C_18
REMARK                            x       y       z     vdW  Elec       q    Type
REMARK                         _______ _______ _______ _____ _____    ______ ____
ROOT
ATOM      1  C   UNL     1       3.387   6.624  18.668  0.00  0.00    +0.000 C 
ATOM      2  O   UNL     1       4.524   6.741  19.126  0.00  0.00    +0.000 OA
ATOM      3  N   UNL     1       2.919   5.438  18.110  0.00  0.00    +0.000 N 
ATOM      4  C   UNL     1       1.566   5.105  17.705  0.00  0.00    +0.000 C 
ATOM      5  C   UNL     1       1.398   3.657  18.109  0.00  0.00    +0.000 C 
ATOM      6  C   UNL     1       2.790   3.060  17.950  0.00  0.00    +0.000 C 
ATOM      7  C   UNL     1       3.759   4.241  18.146  0.00  0.00    +0.000 C 
ENDROOT
BRANCH   7   8
ATOM      8  C   UNL     1       4.852   4.283  17.092  0.00  0.00    +0.000 A 
ATOM      9  C   UNL     1       4.548   4.231  15.719  0.00  0.00    +0.000 A 
ATOM     10  C   UNL     1       5.560   4.307  14.763  0.00  0.00    +0.000 A 
ATOM     11  C   UNL     1       6.879   4.435  15.172  0.00  0.00    +0.000 A 
ATOM     12  F   UNL     1       7.850   4.519  14.253  0.00  0.00    +0.000 F 
ATOM     13  C   UNL     1       7.208   4.487  16.522  0.00  0.00    +0.000 A 
ATOM     14  C   UNL     1       6.196   4.412  17.481  0.00  0.00    +0.000 A 
ENDBRANCH   7   8
BRANCH   1  18
ATOM     15  C   UNL     1       0.487   9.724  19.229  0.00  0.00    +0.000 A 
ATOM     16  C   UNL     1       1.168   9.636  18.006  0.00  0.00    +0.000 A 
ATOM     17  C   UNL     1       2.187   8.695  17.832  0.00  0.00    +0.000 A 
ATOM     18  C   UNL     1       2.459   7.773  18.843  0.00  0.00    +0.000 A 
ATOM     19  C   UNL     1       1.805   7.882  20.076  0.00  0.00    +0.000 A 
ATOM     20  C   UNL     1       0.827   8.858  20.272  0.00  0.00    +0.000 A 
BRANCH  15  26
ATOM     21  C   UNL     1       0.267  12.175  21.221  0.00  0.00    +0.000 C 
ATOM     22  C   UNL     1      -0.778  11.654  20.304  0.00  0.00    +0.000 A 
ATOM     23  C   UNL     1      -2.067  12.108  20.119  0.00  0.00    +0.000 A 
ATOM     24  C   UNL     1      -2.541  11.416  18.998  0.00  0.00    +0.000 A 
ATOM     25  N   UNL     1      -1.627  10.592  18.489  0.00  0.00    +0.000 NA
ATOM     26  N   UNL     1      -0.584  10.651  19.361  0.00  0.00    +0.000 N 
ENDBRANCH  15  26
ENDBRANCH   1  18
TORSDOF 3
ENDMDL
MODEL 8
REMARK VINA RESULT:      -7.5      4.230      9.165
REMARK  Name = 
REMARK  4 active torsions:
REMARK  status: ('A' for Active; 'I' for Inactive)
REMARK    1  A    between atoms: C_1  and  C_2
REMARK    2  A    between atoms: N_6  and  C_7
REMARK    3  A    between atoms: C_10  and  C_11
REMARK    4  A    between atoms: C_17  and  C_18
REMARK                            x       y       z     vdW  Elec       q    Type
REMARK                         _______ _______ _______ _____ _____    ______ ____
ROOT
ATOM      1  C   UNL     1       0.748  10.737  18.865  0.00  0.00    +0.000 C 
ATOM      2  O   UNL     1       1.382  11.776  19.049  0.00  0.00    +0.000 OA
ATOM      3  N   UNL     1      -0.585  10.730  18.465  0.00  0.00    +0.000 N 
ATOM      4  C   UNL     1      -1.393   9.601  18.040  0.00  0.00    +0.000 C 
ATOM      5  C   UNL     1      -2.234  10.147  16.907  0.00  0.00    +0.000 C 
ATOM      6  C   UNL     1      -2.463  11.606  17.281  0.00  0.00    +0.000 C 
ATOM      7  C   UNL     1      -1.253  11.993  18.151  0.00  0.00    +0.000 C 
ENDROOT
BRANCH   7   8
ATOM      8  C   UNL     1      -1.653  12.750  19.406  0.00  0.00    +0.000 A 
ATOM      9  C   UNL     1      -1.014  13.949  19.772  0.00  0.00    +0.000 A 
ATOM     10  C   UNL     1      -1.416  14.652  20.908  0.00  0.00    +0.000 A 
ATOM     11  C   UNL     1      -2.457  14.161  21.683  0.00  0.00    +0.000 A 
ATOM     12  F   UNL     1      -2.851  14.841  22.767  0.00  0.00    +0.000 F 
ATOM     13  C   UNL     1      -3.104  12.977  21.345  0.00  0.00    +0.000 A 
ATOM     14  C   UNL     1      -2.704  12.274  20.208  0.00  0.00    +0.000 A 
ENDBRANCH   7   8
BRANCH   1  18
ATOM     15  C   UNL     1       2.736   6.945  18.893  0.00  0.00    +0.000 A 
ATOM     16  C   UNL     1       2.031   7.357  20.033  0.00  0.00    +0.000 A 
ATOM     17  C   UNL     1       1.455   8.630  20.084  0.00  0.00    +0.000 A 
ATOM     18  C   UNL     1       1.496   9.456  18.960  0.00  0.00    +0.000 A 
ATOM     19  C   UNL     1       2.229   9.060  17.835  0.00  0.00    +0.000 A 
ATOM     20  C   UNL     1       2.854   7.813  17.803  0.00  0.00    +0.000 A 
BRANCH  15  26
ATOM     21  C   UNL     1       1.400   4.359  17.647  0.00  0.00    +0.000 C 
ATOM     22  C   UNL     1       2.659   4.444  18.428  0.00  0.00    +0.000 A 
ATOM     23  C   UNL     1       3.520   3.427  18.789  0.00  0.00    +0.000 A 
ATOM     24  C   UNL     1       4.647   4.072  19.313  0.00  0.00    +0.000 A 
ATOM     25  N   UNL     1       4.533   5.398  19.279  0.00  0.00    +0.000 NA
ATOM     26  N   UNL     1       3.263   5.624  18.843  0.00  0.00    +0.000 N 
ENDBRANCH  15  26
ENDBRANCH   1  18
TORSDOF 3
ENDMDL
MODEL 9
REMARK VINA RESULT:      -7.4      3.909      9.237
REMARK  Name = 
REMARK  4 active torsions:
REMARK  status: ('A' for Active; 'I' for Inactive)
REMARK    1  A    between atoms: C_1  and  C_2
REMARK    2  A    between atoms: N_6  and  C_7
REMARK    3  A    between atoms: C_10  and  C_11
REMARK    4  A    between atoms: C_17  and  C_18
REMARK                            x       y       z     vdW  Elec       q    Type
REMARK                         _______ _______ _______ _____ _____    ______ ____
ROOT
ATOM      1  C   UNL     1       0.988  10.629  19.368  0.00  0.00    +0.000 C 
ATOM      2  O   UNL     1       1.747  11.578  19.565  0.00  0.00    +0.000 OA
ATOM      3  N   UNL     1      -0.388  10.784  19.222  0.00  0.00    +0.000 N 
ATOM      4  C   UNL     1      -1.368   9.795  18.811  0.00  0.00    +0.000 C 
ATOM      5  C   UNL     1      -2.330  10.564  17.931  0.00  0.00    +0.000 C 
ATOM      6  C   UNL     1      -2.340  11.966  18.523  0.00  0.00    +0.000 C 
ATOM      7  C   UNL     1      -0.966  12.128  19.200  0.00  0.00    +0.000 C 
ENDROOT
BRANCH   7   8
ATOM      8  C   UNL     1      -1.066  12.725  20.593  0.00  0.00    +0.000 A 
ATOM      9  C   UNL     1      -1.543  11.971  21.680  0.00  0.00    +0.000 A 
ATOM     10  C   UNL     1      -1.595  12.522  22.960  0.00  0.00    +0.000 A 
ATOM     11  C   UNL     1      -1.172  13.829  23.160  0.00  0.00    +0.000 A 
ATOM     12  F   UNL     1      -1.211  14.354  24.392  0.00  0.00    +0.000 F 
ATOM     13  C   UNL     1      -0.698  14.597  22.103  0.00  0.00    +0.000 A 
ATOM     14  C   UNL     1      -0.643  14.046  20.821  0.00  0.00    +0.000 A 
ENDBRANCH   7   8
BRANCH   1  18
ATOM     15  C   UNL     1       2.558   6.733  18.538  0.00  0.00    +0.000 A 
ATOM     16  C   UNL     1       2.062   7.013  19.819  0.00  0.00    +0.000 A 
ATOM     17  C   UNL     1       1.634   8.304  20.144  0.00  0.00    +0.000 A 
ATOM     18  C   UNL     1       1.605   9.293  19.160  0.00  0.00    +0.000 A 
ATOM     19  C   UNL     1       2.132   9.024  17.891  0.00  0.00    +0.000 A 
ATOM     20  C   UNL     1       2.614   7.752  17.582  0.00  0.00    +0.000 A 
BRANCH  15  26
ATOM     21  C   UNL     1       5.319   5.295  19.113  0.00  0.00    +0.000 C 
ATOM     22  C   UNL     1       4.170   4.774  18.330  0.00  0.00    +0.000 A 
ATOM     23  C   UNL     1       4.048   3.564  17.679  0.00  0.00    +0.000 A 
ATOM     24  C   UNL     1       2.703   3.490  17.297  0.00  0.00    +0.000 A 
ATOM     25  N   UNL     1       2.007   4.557  17.684  0.00  0.00    +0.000 NA
ATOM     26  N   UNL     1       2.934   5.400  18.216  0.00  0.00    +0.000 N 
ENDBRANCH  15  26
ENDBRANCH   1  18
TORSDOF 3
ENDMDL
