MODEL 1
REMARK VINA RESULT:      -9.2      0.000      0.000
REMARK  Name = 
REMARK  3 active torsions:
REMARK  status: ('A' for Active; 'I' for Inactive)
REMARK    1  A    between atoms: C_5  and  C_6
REMARK    2  A    between atoms: C_8  and  C_9
REMARK    3  A    between atoms: C_13  and  C_14
REMARK                            x       y       z     vdW  Elec       q    Type
REMARK                         _______ _______ _______ _____ _____    ______ ____
ROOT
ATOM      1  C   UNL     1       1.928   6.613  19.944  0.00  0.00    +0.000 C 
ATOM      2  C   UNL     1       2.371   6.165  18.754  0.00  0.00    +0.000 C 
ATOM      3  C   UNL     1       2.817   4.717  18.582  0.00  0.00    +0.000 C 
ATOM      4  N   UNL     1       2.726   3.969  19.842  0.00  0.00    +0.000 N 
ATOM      5  N   UNL     1       3.034   2.662  19.983  0.00  0.00    +0.000 NA
ATOM      6  C   UNL     1       2.764   2.486  21.281  0.00  0.00    +0.000 A 
ATOM      7  N   UNL     1       2.258   3.576  21.942  0.00  0.00    +0.000 NA
ATOM      8  C   UNL     1       2.236   4.495  21.010  0.00  0.00    +0.000 A 
ATOM      9  N   UNL     1       1.840   5.782  21.040  0.00  0.00    +0.000 N 
ATOM     10  H   UNL     1       1.480   6.178  21.903  0.00  0.00    +0.000 HD
ENDROOT
BRANCH   1  15
ATOM     11  F   UNL     1       0.504  11.983  20.560  0.00  0.00    +0.000 F 
ATOM     12  C   UNL     1       0.853  10.698  20.418  0.00  0.00    +0.000 A 
ATOM     13  C   UNL     1       0.851   9.861  21.528  0.00  0.00    +0.000 A 
ATOM     14  C   UNL     1       1.209   8.518  21.380  0.00  0.00    +0.000 A 
ATOM     15  C   UNL     1       1.574   8.024  20.120  0.00  0.00    +0.000 A 
ATOM     16  C   UNL     1       1.574   8.882  19.011  0.00  0.00    +0.000 A 
ATOM     17  C   UNL     1       1.214  10.222  19.162  0.00  0.00    +0.000 A 
ENDBRANCH   1  15
BRANCH   3  18
ATOM     18  C   UNL     1       4.218   4.640  17.990  0.00  0.00    +0.000 A 
ATOM     19  C   UNL     1       4.405   4.138  16.693  0.00  0.00    +0.000 A 
ATOM     20  C   UNL     1       5.678   4.086  16.126  0.00  0.00    +0.000 A 
ATOM     21  C   UNL     1       6.784   4.543  16.842  0.00  0.00    +0.000 A 
ATOM     22  C   UNL     1       6.629   5.050  18.139  0.00  0.00    +0.000 A 
ATOM     23  C   UNL     1       5.345   5.082  18.709  0.00  0.00    +0.000 A 
BRANCH  22  24
ATOM     24  C   UNL     1       7.808   5.578  18.920  0.00  0.00    +0.000 C 
ATOM     25  F   UNL     1       7.540   5.792  20.239  0.00  0.00    +0.000 F 
ATOM     26  F   UNL     1       8.867   4.721  18.892  0.00  0.00    +0.000 F 
ATOM     27  F   UNL     1       8.274   6.762  18.436  0.00  0.00    +0.000 F 
ENDBRANCH  22  24
ENDBRANCH   3  18
TORSDOF 3
ENDMDL
MODEL 2
REMARK VINA RESULT:      -9.1      0.248      1.223
REMARK  Name = 
REMARK  3 active torsions:
REMARK  status: ('A' for Active; 'I' for Inactive)
REMARK    1  A    between atoms: C_5  and  C_6
REMARK    2  A    between atoms: C_8  and  C_9
REMARK    3  A    between atoms: C_13  and  C_14
REMARK                            x       y       z     vdW  Elec       q    Type
REMARK                         _______ _______ _______ _____ _____    ______ ____
ROOT
ATOM      1  C   UNL     1       1.966   6.685  19.713  0.00  0.00    +0.000 C 
ATOM      2  C   UNL     1       2.467   6.200  18.561  0.00  0.00    +0.000 C 
ATOM      3  C   UNL     1       2.942   4.753  18.466  0.00  0.00    +0.000 C 
ATOM      4  N   UNL     1       2.806   4.053  19.749  0.00  0.00    +0.000 N 
ATOM      5  N   UNL     1       3.128   2.758  19.955  0.00  0.00    +0.000 NA
ATOM      6  C   UNL     1       2.803   2.627  21.246  0.00  0.00    +0.000 A 
ATOM      7  N   UNL     1       2.252   3.734  21.841  0.00  0.00    +0.000 NA
ATOM      8  C   UNL     1       2.258   4.616  20.873  0.00  0.00    +0.000 A 
ATOM      9  N   UNL     1       1.841   5.896  20.835  0.00  0.00    +0.000 N 
ATOM     10  H   UNL     1       1.437   6.318  21.665  0.00  0.00    +0.000 HD
ENDROOT
BRANCH   1  15
ATOM     11  F   UNL     1       0.572  12.079  20.170  0.00  0.00    +0.000 F 
ATOM     12  C   UNL     1       0.899  10.786  20.054  0.00  0.00    +0.000 A 
ATOM     13  C   UNL     1       1.320  10.292  18.825  0.00  0.00    +0.000 A 
ATOM     14  C   UNL     1       1.666   8.944  18.704  0.00  0.00    +0.000 A 
ATOM     15  C   UNL     1       1.582   8.096  19.817  0.00  0.00    +0.000 A 
ATOM     16  C   UNL     1       1.152   8.608  21.049  0.00  0.00    +0.000 A 
ATOM     17  C   UNL     1       0.809   9.956  21.166  0.00  0.00    +0.000 A 
ENDBRANCH   1  15
BRANCH   3  18
ATOM     18  C   UNL     1       4.369   4.677  17.940  0.00  0.00    +0.000 A 
ATOM     19  C   UNL     1       4.615   4.188  16.648  0.00  0.00    +0.000 A 
ATOM     20  C   UNL     1       5.913   4.137  16.140  0.00  0.00    +0.000 A 
ATOM     21  C   UNL     1       6.986   4.582  16.912  0.00  0.00    +0.000 A 
ATOM     22  C   UNL     1       6.772   5.077  18.206  0.00  0.00    +0.000 A 
ATOM     23  C   UNL     1       5.463   5.108  18.715  0.00  0.00    +0.000 A 
BRANCH  22  24
ATOM     24  C   UNL     1       7.915   5.593  19.046  0.00  0.00    +0.000 C 
ATOM     25  F   UNL     1       8.379   6.812  18.651  0.00  0.00    +0.000 F 
ATOM     26  F   UNL     1       7.564   5.736  20.355  0.00  0.00    +0.000 F 
ATOM     27  F   UNL     1       8.992   4.761  19.037  0.00  0.00    +0.000 F 
ENDBRANCH  22  24
ENDBRANCH   3  18
TORSDOF 3
ENDMDL
MODEL 3
REMARK VINA RESULT:      -9.1      1.792      2.339
REMARK  Name = 
REMARK  3 active torsions:
REMARK  status: ('A' for Active; 'I' for Inactive)
REMARK    1  A    between atoms: C_5  and  C_6
REMARK    2  A    between atoms: C_8  and  C_9
REMARK    3  A    between atoms: C_13  and  C_14
REMARK                            x       y       z     vdW  Elec       q    Type
REMARK                         _______ _______ _______ _____ _____    ______ ____
ROOT
ATOM      1  C   UNL     1       1.957   6.740  20.070  0.00  0.00    +0.000 C 
ATOM      2  C   UNL     1       2.482   6.391  18.880  0.00  0.00    +0.000 C 
ATOM      3  C   UNL     1       2.994   4.975  18.638  0.00  0.00    +0.000 C 
ATOM      4  N   UNL     1       2.864   4.140  19.839  0.00  0.00    +0.000 N 
ATOM      5  N   UNL     1       3.216   2.839  19.910  0.00  0.00    +0.000 NA
ATOM      6  C   UNL     1       2.882   2.564  21.176  0.00  0.00    +0.000 A 
ATOM      7  N   UNL     1       2.298   3.588  21.878  0.00  0.00    +0.000 NA
ATOM      8  C   UNL     1       2.290   4.567  21.009  0.00  0.00    +0.000 A 
ATOM      9  N   UNL     1       1.842   5.833  21.102  0.00  0.00    +0.000 N 
ATOM     10  H   UNL     1       1.419   6.156  21.966  0.00  0.00    +0.000 HD
ENDROOT
BRANCH   1  15
ATOM     11  F   UNL     1       0.282  11.998  20.965  0.00  0.00    +0.000 F 
ATOM     12  C   UNL     1       0.691  10.740  20.756  0.00  0.00    +0.000 A 
ATOM     13  C   UNL     1       0.765   9.856  21.826  0.00  0.00    +0.000 A 
ATOM     14  C   UNL     1       1.186   8.542  21.609  0.00  0.00    +0.000 A 
ATOM     15  C   UNL     1       1.537   8.122  20.318  0.00  0.00    +0.000 A 
ATOM     16  C   UNL     1       1.460   9.026  19.250  0.00  0.00    +0.000 A 
ATOM     17  C   UNL     1       1.037  10.338  19.470  0.00  0.00    +0.000 A 
ENDBRANCH   1  15
BRANCH   3  18
ATOM     18  C   UNL     1       4.428   4.989  18.124  0.00  0.00    +0.000 A 
ATOM     19  C   UNL     1       5.491   5.178  19.020  0.00  0.00    +0.000 A 
ATOM     20  C   UNL     1       6.812   5.165  18.570  0.00  0.00    +0.000 A 
ATOM     21  C   UNL     1       7.090   4.956  17.220  0.00  0.00    +0.000 A 
ATOM     22  C   UNL     1       6.049   4.764  16.302  0.00  0.00    +0.000 A 
ATOM     23  C   UNL     1       4.722   4.796  16.761  0.00  0.00    +0.000 A 
BRANCH  22  24
ATOM     24  C   UNL     1       6.330   4.506  14.841  0.00  0.00    +0.000 C 
ATOM     25  F   UNL     1       6.395   3.183  14.521  0.00  0.00    +0.000 F 
ATOM     26  F   UNL     1       5.369   5.035  14.033  0.00  0.00    +0.000 F 
ATOM     27  F   UNL     1       7.506   5.051  14.426  0.00  0.00    +0.000 F 
ENDBRANCH  22  24
ENDBRANCH   3  18
TORSDOF 3
ENDMDL
MODEL 4
REMARK VINA RESULT:      -9.0      1.786      2.528
REMARK  Name = 
REMARK  3 active torsions:
REMARK  status: ('A' for Active; 'I' for Inactive)
REMARK    1  A    between atoms: C_5  and  C_6
REMARK    2  A    between atoms: C_8  and  C_9
REMARK    3  A    between atoms: C_13  and  C_14
REMARK                            x       y       z     vdW  Elec       q    Type
REMARK                         _______ _______ _______ _____ _____    ______ ____
ROOT
ATOM      1  C   UNL     1       1.930   6.744  20.059  0.00  0.00    +0.000 C 
ATOM      2  C   UNL     1       2.461   6.394  18.872  0.00  0.00    +0.000 C 
ATOM      3  C   UNL     1       2.982   4.981  18.636  0.00  0.00    +0.000 C 
ATOM      4  N   UNL     1       2.853   4.148  19.839  0.00  0.00    +0.000 N 
ATOM      5  N   UNL     1       3.213   2.849  19.916  0.00  0.00    +0.000 NA
ATOM      6  C   UNL     1       2.876   2.577  21.181  0.00  0.00    +0.000 A 
ATOM      7  N   UNL     1       2.283   3.599  21.878  0.00  0.00    +0.000 NA
ATOM      8  C   UNL     1       2.273   4.576  21.006  0.00  0.00    +0.000 A 
ATOM      9  N   UNL     1       1.816   5.840  21.093  0.00  0.00    +0.000 N 
ATOM     10  H   UNL     1       1.389   6.162  21.955  0.00  0.00    +0.000 HD
ENDROOT
BRANCH   1  15
ATOM     11  F   UNL     1       0.367  12.021  21.034  0.00  0.00    +0.000 F 
ATOM     12  C   UNL     1       0.734  10.756  20.795  0.00  0.00    +0.000 A 
ATOM     13  C   UNL     1       1.032  10.362  19.495  0.00  0.00    +0.000 A 
ATOM     14  C   UNL     1       1.420   9.043  19.245  0.00  0.00    +0.000 A 
ATOM     15  C   UNL     1       1.501   8.124  20.301  0.00  0.00    +0.000 A 
ATOM     16  C   UNL     1       1.193   8.536  21.605  0.00  0.00    +0.000 A 
ATOM     17  C   UNL     1       0.808   9.855  21.851  0.00  0.00    +0.000 A 
ENDBRANCH   1  15
BRANCH   3  18
ATOM     18  C   UNL     1       4.418   5.002  18.127  0.00  0.00    +0.000 A 
ATOM     19  C   UNL     1       5.477   5.202  19.025  0.00  0.00    +0.000 A 
ATOM     20  C   UNL     1       6.799   5.196  18.580  0.00  0.00    +0.000 A 
ATOM     21  C   UNL     1       7.084   4.981  17.232  0.00  0.00    +0.000 A 
ATOM     22  C   UNL     1       6.047   4.777  16.312  0.00  0.00    +0.000 A 
ATOM     23  C   UNL     1       4.718   4.803  16.766  0.00  0.00    +0.000 A 
BRANCH  22  24
ATOM     24  C   UNL     1       6.335   4.512  14.853  0.00  0.00    +0.000 C 
ATOM     25  F   UNL     1       5.396   5.022  14.008  0.00  0.00    +0.000 F 
ATOM     26  F   UNL     1       7.521   5.055  14.459  0.00  0.00    +0.000 F 
ATOM     27  F   UNL     1       6.418   3.185  14.565  0.00  0.00    +0.000 F 
ENDBRANCH  22  24
ENDBRANCH   3  18
TORSDOF 3
ENDMDL
MODEL 5
REMARK VINA RESULT:      -9.0      2.492      6.930
REMARK  Name = 
REMARK  3 active torsions:
REMARK  status: ('A' for Active; 'I' for Inactive)
REMARK    1  A    between atoms: C_5  and  C_6
REMARK    2  A    between atoms: C_8  and  C_9
REMARK    3  A    between atoms: C_13  and  C_14
REMARK                            x       y       z     vdW  Elec       q    Type
REMARK                         _______ _______ _______ _____ _____    ______ ____
ROOT
ATOM      1  C   UNL     1       4.186   4.824  17.595  0.00  0.00    +0.000 C 
ATOM      2  C   UNL     1       4.137   5.820  18.501  0.00  0.00    +0.000 C 
ATOM      3  C   UNL     1       3.072   5.831  19.592  0.00  0.00    +0.000 C 
ATOM      4  N   UNL     1       2.161   4.685  19.470  0.00  0.00    +0.000 N 
ATOM      5  N   UNL     1       1.136   4.427  20.311  0.00  0.00    +0.000 NA
ATOM      6  C   UNL     1       0.662   3.296  19.777  0.00  0.00    +0.000 A 
ATOM      7  N   UNL     1       1.352   2.806  18.697  0.00  0.00    +0.000 NA
ATOM      8  C   UNL     1       2.297   3.696  18.530  0.00  0.00    +0.000 A 
ATOM      9  N   UNL     1       3.297   3.772  17.631  0.00  0.00    +0.000 N 
ATOM     10  H   UNL     1       3.401   3.044  16.931  0.00  0.00    +0.000 HD
ENDROOT
BRANCH   1  15
ATOM     11  F   UNL     1       7.860   5.008  13.386  0.00  0.00    +0.000 F 
ATOM     12  C   UNL     1       6.986   4.960  14.399  0.00  0.00    +0.000 A 
ATOM     13  C   UNL     1       7.262   5.647  15.576  0.00  0.00    +0.000 A 
ATOM     14  C   UNL     1       6.349   5.602  16.632  0.00  0.00    +0.000 A 
ATOM     15  C   UNL     1       5.166   4.862  16.505  0.00  0.00    +0.000 A 
ATOM     16  C   UNL     1       4.903   4.171  15.314  0.00  0.00    +0.000 A 
ATOM     17  C   UNL     1       5.817   4.220  14.260  0.00  0.00    +0.000 A 
ENDBRANCH   1  15
BRANCH   3  18
ATOM     18  C   UNL     1       2.308   7.148  19.602  0.00  0.00    +0.000 A 
ATOM     19  C   UNL     1       2.224   7.919  18.433  0.00  0.00    +0.000 A 
ATOM     20  C   UNL     1       1.506   9.115  18.418  0.00  0.00    +0.000 A 
ATOM     21  C   UNL     1       0.852   9.554  19.568  0.00  0.00    +0.000 A 
ATOM     22  C   UNL     1       0.916   8.805  20.751  0.00  0.00    +0.000 A 
ATOM     23  C   UNL     1       1.658   7.612  20.762  0.00  0.00    +0.000 A 
BRANCH  22  24
ATOM     24  C   UNL     1       0.191   9.247  21.999  0.00  0.00    +0.000 C 
ATOM     25  F   UNL     1       0.974   9.255  23.114  0.00  0.00    +0.000 F 
ATOM     26  F   UNL     1      -0.302  10.512  21.884  0.00  0.00    +0.000 F 
ATOM     27  F   UNL     1      -0.877   8.457  22.296  0.00  0.00    +0.000 F 
ENDBRANCH  22  24
ENDBRANCH   3  18
TORSDOF 3
ENDMDL
MODEL 6
REMARK VINA RESULT:      -8.9      0.932      1.168
REMARK  Name = 
REMARK  3 active torsions:
REMARK  status: ('A' for Active; 'I' for Inactive)
REMARK    1  A    between atoms: C_5  and  C_6
REMARK    2  A    between atoms: C_8  and  C_9
REMARK    3  A    between atoms: C_13  and  C_14
REMARK                            x       y       z     vdW  Elec       q    Type
REMARK                         _______ _______ _______ _____ _____    ______ ____
ROOT
ATOM      1  C   UNL     1       1.997   6.828  19.721  0.00  0.00    +0.000 C 
ATOM      2  C   UNL     1       2.416   6.485  18.488  0.00  0.00    +0.000 C 
ATOM      3  C   UNL     1       2.919   5.074  18.200  0.00  0.00    +0.000 C 
ATOM      4  N   UNL     1       2.906   4.237  19.407  0.00  0.00    +0.000 N 
ATOM      5  N   UNL     1       3.277   2.940  19.445  0.00  0.00    +0.000 NA
ATOM      6  C   UNL     1       3.061   2.662  20.736  0.00  0.00    +0.000 A 
ATOM      7  N   UNL     1       2.532   3.680  21.488  0.00  0.00    +0.000 NA
ATOM      8  C   UNL     1       2.436   4.659  20.624  0.00  0.00    +0.000 A 
ATOM      9  N   UNL     1       1.985   5.921  20.758  0.00  0.00    +0.000 N 
ATOM     10  H   UNL     1       1.638   6.239  21.657  0.00  0.00    +0.000 HD
ENDROOT
BRANCH   1  15
ATOM     11  F   UNL     1       0.359  12.071  20.761  0.00  0.00    +0.000 F 
ATOM     12  C   UNL     1       0.759  10.816  20.517  0.00  0.00    +0.000 A 
ATOM     13  C   UNL     1       0.861   9.912  21.568  0.00  0.00    +0.000 A 
ATOM     14  C   UNL     1       1.273   8.602  21.315  0.00  0.00    +0.000 A 
ATOM     15  C   UNL     1       1.587   8.206  20.007  0.00  0.00    +0.000 A 
ATOM     16  C   UNL     1       1.483   9.130  18.958  0.00  0.00    +0.000 A 
ATOM     17  C   UNL     1       1.069  10.439  19.215  0.00  0.00    +0.000 A 
ENDBRANCH   1  15
BRANCH   3  18
ATOM     18  C   UNL     1       4.300   5.103  17.559  0.00  0.00    +0.000 A 
ATOM     19  C   UNL     1       4.657   4.125  16.618  0.00  0.00    +0.000 A 
ATOM     20  C   UNL     1       5.907   4.153  16.000  0.00  0.00    +0.000 A 
ATOM     21  C   UNL     1       6.818   5.163  16.308  0.00  0.00    +0.000 A 
ATOM     22  C   UNL     1       6.490   6.154  17.243  0.00  0.00    +0.000 A 
ATOM     23  C   UNL     1       5.236   6.107  17.872  0.00  0.00    +0.000 A 
BRANCH  22  24
ATOM     24  C   UNL     1       7.450   7.273  17.567  0.00  0.00    +0.000 C 
ATOM     25  F   UNL     1       6.836   8.454  17.860  0.00  0.00    +0.000 F 
ATOM     26  F   UNL     1       8.230   6.984  18.646  0.00  0.00    +0.000 F 
ATOM     27  F   UNL     1       8.310   7.542  16.547  0.00  0.00    +0.000 F 
ENDBRANCH  22  24
ENDBRANCH   3  18
TORSDOF 3
ENDMDL
MODEL 7
REMARK VINA RESULT:      -8.9      0.940      1.515
REMARK  Name = 
REMARK  3 active torsions:
REMARK  status: ('A' for Active; 'I' for Inactive)
REMARK    1  A    between atoms: C_5  and  C_6
REMARK    2  A    between atoms: C_8  and  C_9
REMARK    3  A    between atoms: C_13  and  C_14
REMARK                            x       y       z     vdW  Elec       q    Type
REMARK                         _______ _______ _______ _____ _____    ______ ____
ROOT
ATOM      1  C   UNL     1       1.973   6.856  19.683  0.00  0.00    +0.000 C 
ATOM      2  C   UNL     1       2.394   6.500  18.455  0.00  0.00    +0.000 C 
ATOM      3  C   UNL     1       2.905   5.089  18.184  0.00  0.00    +0.000 C 
ATOM      4  N   UNL     1       2.897   4.267  19.401  0.00  0.00    +0.000 N 
ATOM      5  N   UNL     1       3.276   2.972  19.456  0.00  0.00    +0.000 NA
ATOM      6  C   UNL     1       3.061   2.709  20.749  0.00  0.00    +0.000 A 
ATOM      7  N   UNL     1       2.526   3.733  21.489  0.00  0.00    +0.000 NA
ATOM      8  C   UNL     1       2.425   4.700  20.613  0.00  0.00    +0.000 A 
ATOM      9  N   UNL     1       1.966   5.961  20.732  0.00  0.00    +0.000 N 
ATOM     10  H   UNL     1       1.618   6.288  21.627  0.00  0.00    +0.000 HD
ENDROOT
BRANCH   1  15
ATOM     11  F   UNL     1       0.451  12.126  20.762  0.00  0.00    +0.000 F 
ATOM     12  C   UNL     1       0.808  10.862  20.499  0.00  0.00    +0.000 A 
ATOM     13  C   UNL     1       1.118  10.495  19.194  0.00  0.00    +0.000 A 
ATOM     14  C   UNL     1       1.496   9.179  18.918  0.00  0.00    +0.000 A 
ATOM     15  C   UNL     1       1.555   8.235  19.953  0.00  0.00    +0.000 A 
ATOM     16  C   UNL     1       1.236   8.619  21.262  0.00  0.00    +0.000 A 
ATOM     17  C   UNL     1       0.860   9.936  21.534  0.00  0.00    +0.000 A 
ENDBRANCH   1  15
BRANCH   3  18
ATOM     18  C   UNL     1       4.286   5.118  17.543  0.00  0.00    +0.000 A 
ATOM     19  C   UNL     1       4.636   4.151  16.588  0.00  0.00    +0.000 A 
ATOM     20  C   UNL     1       5.886   4.179  15.970  0.00  0.00    +0.000 A 
ATOM     21  C   UNL     1       6.803   5.180  16.291  0.00  0.00    +0.000 A 
ATOM     22  C   UNL     1       6.482   6.160  17.239  0.00  0.00    +0.000 A 
ATOM     23  C   UNL     1       5.227   6.112  17.869  0.00  0.00    +0.000 A 
BRANCH  22  24
ATOM     24  C   UNL     1       7.449   7.269  17.578  0.00  0.00    +0.000 C 
ATOM     25  F   UNL     1       8.248   6.992  18.646  0.00  0.00    +0.000 F 
ATOM     26  F   UNL     1       8.293   7.546  16.545  0.00  0.00    +0.000 F 
ATOM     27  F   UNL     1       6.823   8.442  17.872  0.00  0.00    +0.000 F 
ENDBRANCH  22  24
ENDBRANCH   3  18
TORSDOF 3
ENDMDL
MODEL 8
REMARK VINA RESULT:      -8.9      2.626      6.978
REMARK  Name = 
REMARK  3 active torsions:
REMARK  status: ('A' for Active; 'I' for Inactive)
REMARK    1  A    between atoms: C_5  and  C_6
REMARK    2  A    between atoms: C_8  and  C_9
REMARK    3  A    between atoms: C_13  and  C_14
REMARK                            x       y       z     vdW  Elec       q    Type
REMARK                         _______ _______ _______ _____ _____    ______ ____
ROOT
ATOM      1  C   UNL     1       4.243   4.769  17.284  0.00  0.00    +0.000 C 
ATOM      2  C   UNL     1       4.228   5.787  18.165  0.00  0.00    +0.000 C 
ATOM      3  C   UNL     1       3.216   5.818  19.305  0.00  0.00    +0.000 C 
ATOM      4  N   UNL     1       2.311   4.662  19.256  0.00  0.00    +0.000 N 
ATOM      5  N   UNL     1       1.330   4.417  20.151  0.00  0.00    +0.000 NA
ATOM      6  C   UNL     1       0.841   3.269  19.669  0.00  0.00    +0.000 A 
ATOM      7  N   UNL     1       1.483   2.757  18.570  0.00  0.00    +0.000 NA
ATOM      8  C   UNL     1       2.411   3.650  18.336  0.00  0.00    +0.000 A 
ATOM      9  N   UNL     1       3.367   3.711  17.389  0.00  0.00    +0.000 N 
ATOM     10  H   UNL     1       3.444   2.966  16.703  0.00  0.00    +0.000 HD
ENDROOT
BRANCH   1  15
ATOM     11  F   UNL     1       7.833   4.782  12.998  0.00  0.00    +0.000 F 
ATOM     12  C   UNL     1       6.967   4.784  14.020  0.00  0.00    +0.000 A 
ATOM     13  C   UNL     1       5.716   4.200  13.860  0.00  0.00    +0.000 A 
ATOM     14  C   UNL     1       4.814   4.196  14.926  0.00  0.00    +0.000 A 
ATOM     15  C   UNL     1       5.170   4.786  16.147  0.00  0.00    +0.000 A 
ATOM     16  C   UNL     1       6.433   5.375  16.292  0.00  0.00    +0.000 A 
ATOM     17  C   UNL     1       7.333   5.374  15.225  0.00  0.00    +0.000 A 
ENDBRANCH   1  15
BRANCH   3  18
ATOM     18  C   UNL     1       2.441   7.129  19.318  0.00  0.00    +0.000 A 
ATOM     19  C   UNL     1       2.345   7.898  18.149  0.00  0.00    +0.000 A 
ATOM     20  C   UNL     1       1.616   9.088  18.136  0.00  0.00    +0.000 A 
ATOM     21  C   UNL     1       0.965   9.523  19.290  0.00  0.00    +0.000 A 
ATOM     22  C   UNL     1       1.042   8.775  20.473  0.00  0.00    +0.000 A 
ATOM     23  C   UNL     1       1.793   7.588  20.481  0.00  0.00    +0.000 A 
BRANCH  22  24
ATOM     24  C   UNL     1       0.320   9.213  21.725  0.00  0.00    +0.000 C 
ATOM     25  F   UNL     1      -0.220  10.461  21.637  0.00  0.00    +0.000 F 
ATOM     26  F   UNL     1      -0.715   8.383  22.035  0.00  0.00    +0.000 F 
ATOM     27  F   UNL     1       1.127   9.229  22.820  0.00  0.00    +0.000 F 
ENDBRANCH  22  24
ENDBRANCH   3  18
TORSDOF 3
ENDMDL
