MODEL 1
REMARK VINA RESULT:      -7.8      0.000      0.000
REMARK  Name = 
REMARK  3 active torsions:
REMARK  status: ('A' for Active; 'I' for Inactive)
REMARK    1  A    between atoms: C_2  and  C_18
REMARK    2  A    between atoms: C_7  and  C_8
REMARK    3  A    between atoms: C_18  and  C_19
REMARK                            x       y       z     vdW  Elec       q    Type
REMARK                         _______ _______ _______ _____ _____    ______ ____
ROOT
ATOM      1  O   UNL     1       5.710   3.233  15.788  0.00  0.00    +0.000 OA
ATOM      2  C   UNL     1       5.296   4.167  16.475  0.00  0.00    +0.000 C 
ATOM      3  N   UNL     1       4.360   4.019  17.495  0.00  0.00    +0.000 N 
ATOM      4  C   UNL     1       3.838   2.698  17.832  0.00  0.00    +0.000 C 
ATOM      5  C   UNL     1       2.312   2.710  17.849  0.00  0.00    +0.000 C 
ATOM      6  C   UNL     1       1.752   3.832  18.733  0.00  0.00    +0.000 C 
ATOM      7  C   UNL     1       2.364   5.190  18.359  0.00  0.00    +0.000 C 
ATOM      8  C   UNL     1       3.893   5.100  18.358  0.00  0.00    +0.000 C 
ENDROOT
BRANCH   7   9
ATOM      9  C   UNL     1       1.943   6.267  19.306  0.00  0.00    +0.000 A 
ATOM     10  N   UNL     1       1.732   6.110  20.599  0.00  0.00    +0.000 NA
ATOM     11  N   UNL     1       1.453   7.338  21.147  0.00  0.00    +0.000 NA
ATOM     12  C   UNL     1       1.499   8.228  20.182  0.00  0.00    +0.000 A 
ATOM     13  C   UNL     1       1.306   9.635  20.162  0.00  0.00    +0.000 A 
ATOM     14  C   UNL     1       1.435  10.307  19.001  0.00  0.00    +0.000 A 
ATOM     15  C   UNL     1       1.773   9.623  17.762  0.00  0.00    +0.000 A 
ATOM     16  C   UNL     1       1.950   8.291  17.777  0.00  0.00    +0.000 A 
ATOM     17  N   UNL     1       1.810   7.601  18.983  0.00  0.00    +0.000 N 
ENDBRANCH   7   9
BRANCH   2  18
ATOM     18  C   UNL     1       5.772   5.577  16.174  0.00  0.00    +0.000 C 
ATOM     19  C   UNL     1       4.785   6.595  15.602  0.00  0.00    +0.000 C 
ATOM     20  C   UNL     1       5.752   5.936  14.681  0.00  0.00    +0.000 C 
BRANCH  18  21
ATOM     21  C   UNL     1       6.820   6.130  17.158  0.00  0.00    +0.000 A 
ATOM     22  C   UNL     1       7.223   7.480  17.070  0.00  0.00    +0.000 A 
ATOM     23  C   UNL     1       8.033   8.085  18.039  0.00  0.00    +0.000 A 
ATOM     24  C   UNL     1       8.494   7.337  19.113  0.00  0.00    +0.000 A 
ATOM     25  C   UNL     1       8.172   5.988  19.182  0.00  0.00    +0.000 A 
ATOM     26  F   UNL     1       8.619   5.261  20.213  0.00  0.00    +0.000 F 
ATOM     27  C   UNL     1       7.356   5.386  18.224  0.00  0.00    +0.000 A 
ENDBRANCH  18  21
ENDBRANCH   2  18
TORSDOF 3
ENDMDL
MODEL 2
REMARK VINA RESULT:      -7.5      0.901      1.288
REMARK  Name = 
REMARK  3 active torsions:
REMARK  status: ('A' for Active; 'I' for Inactive)
REMARK    1  A    between atoms: C_2  and  C_18
REMARK    2  A    between atoms: C_7  and  C_8
REMARK    3  A    between atoms: C_18  and  C_19
REMARK                            x       y       z     vdW  Elec       q    Type
REMARK                         _______ _______ _______ _____ _____    ______ ____
ROOT
ATOM      1  O   UNL     1       5.808   3.225  15.730  0.00  0.00    +0.000 OA
ATOM      2  C   UNL     1       5.374   4.148  16.417  0.00  0.00    +0.000 C 
ATOM      3  N   UNL     1       4.438   3.979  17.435  0.00  0.00    +0.000 N 
ATOM      4  C   UNL     1       3.943   2.648  17.769  0.00  0.00    +0.000 C 
ATOM      5  C   UNL     1       2.417   2.628  17.782  0.00  0.00    +0.000 C 
ATOM      6  C   UNL     1       1.832   3.737  18.667  0.00  0.00    +0.000 C 
ATOM      7  C   UNL     1       2.417   5.108  18.296  0.00  0.00    +0.000 C 
ATOM      8  C   UNL     1       3.948   5.050  18.299  0.00  0.00    +0.000 C 
ENDROOT
BRANCH   7   9
ATOM      9  C   UNL     1       1.972   6.174  19.244  0.00  0.00    +0.000 A 
ATOM     10  N   UNL     1       1.718   6.001  20.528  0.00  0.00    +0.000 NA
ATOM     11  N   UNL     1       1.429   7.223  21.083  0.00  0.00    +0.000 NA
ATOM     12  C   UNL     1       1.511   8.126  20.133  0.00  0.00    +0.000 A 
ATOM     13  C   UNL     1       1.327   9.535  20.126  0.00  0.00    +0.000 A 
ATOM     14  C   UNL     1       1.498  10.222  18.979  0.00  0.00    +0.000 A 
ATOM     15  C   UNL     1       1.872   9.552  17.743  0.00  0.00    +0.000 A 
ATOM     16  C   UNL     1       2.040   8.219  17.745  0.00  0.00    +0.000 A 
ATOM     17  N   UNL     1       1.857   7.514  18.935  0.00  0.00    +0.000 N 
ENDBRANCH   7   9
BRANCH   2  18
ATOM     18  C   UNL     1       5.821   5.569  16.119  0.00  0.00    +0.000 C 
ATOM     19  C   UNL     1       4.879   6.508  15.364  0.00  0.00    +0.000 C 
ATOM     20  C   UNL     1       6.000   5.865  14.623  0.00  0.00    +0.000 C 
BRANCH  18  21
ATOM     21  C   UNL     1       6.689   6.216  17.215  0.00  0.00    +0.000 A 
ATOM     22  C   UNL     1       7.254   5.412  18.229  0.00  0.00    +0.000 A 
ATOM     23  C   UNL     1       8.190   5.909  19.144  0.00  0.00    +0.000 A 
ATOM     24  C   UNL     1       8.561   7.246  19.090  0.00  0.00    +0.000 A 
ATOM     25  C   UNL     1       7.962   8.073  18.149  0.00  0.00    +0.000 A 
ATOM     26  F   UNL     1       8.312   9.364  18.097  0.00  0.00    +0.000 F 
ATOM     27  C   UNL     1       7.039   7.577  17.228  0.00  0.00    +0.000 A 
ENDBRANCH  18  21
ENDBRANCH   2  18
TORSDOF 3
ENDMDL
MODEL 3
REMARK VINA RESULT:      -7.4      7.463     10.196
REMARK  Name = 
REMARK  3 active torsions:
REMARK  status: ('A' for Active; 'I' for Inactive)
REMARK    1  A    between atoms: C_2  and  C_18
REMARK    2  A    between atoms: C_7  and  C_8
REMARK    3  A    between atoms: C_18  and  C_19
REMARK                            x       y       z     vdW  Elec       q    Type
REMARK                         _______ _______ _______ _____ _____    ______ ____
ROOT
ATOM      1  O   UNL     1      -1.347  14.120  23.701  0.00  0.00    +0.000 OA
ATOM      2  C   UNL     1      -1.578  13.830  22.529  0.00  0.00    +0.000 C 
ATOM      3  N   UNL     1      -2.861  13.742  21.992  0.00  0.00    +0.000 N 
ATOM      4  C   UNL     1      -4.027  14.039  22.818  0.00  0.00    +0.000 C 
ATOM      5  C   UNL     1      -5.044  12.903  22.742  0.00  0.00    +0.000 C 
ATOM      6  C   UNL     1      -5.397  12.539  21.294  0.00  0.00    +0.000 C 
ATOM      7  C   UNL     1      -4.132  12.276  20.464  0.00  0.00    +0.000 C 
ATOM      8  C   UNL     1      -3.159  13.452  20.593  0.00  0.00    +0.000 C 
ENDROOT
BRANCH   7   9
ATOM      9  C   UNL     1      -4.449  12.067  19.019  0.00  0.00    +0.000 A 
ATOM     10  N   UNL     1      -5.464  12.610  18.372  0.00  0.00    +0.000 NA
ATOM     11  N   UNL     1      -5.373  12.261  17.047  0.00  0.00    +0.000 NA
ATOM     12  C   UNL     1      -4.304  11.512  16.902  0.00  0.00    +0.000 A 
ATOM     13  C   UNL     1      -3.716  10.882  15.772  0.00  0.00    +0.000 A 
ATOM     14  C   UNL     1      -2.581  10.171  15.922  0.00  0.00    +0.000 A 
ATOM     15  C   UNL     1      -1.938  10.036  17.220  0.00  0.00    +0.000 A 
ATOM     16  C   UNL     1      -2.494  10.625  18.292  0.00  0.00    +0.000 A 
ATOM     17  N   UNL     1      -3.673  11.355  18.129  0.00  0.00    +0.000 N 
ENDBRANCH   7   9
BRANCH   2  18
ATOM     18  C   UNL     1      -0.421  13.484  21.608  0.00  0.00    +0.000 C 
ATOM     19  C   UNL     1       0.872  14.296  21.692  0.00  0.00    +0.000 C 
ATOM     20  C   UNL     1      -0.086  14.582  20.588  0.00  0.00    +0.000 C 
BRANCH  18  21
ATOM     21  C   UNL     1      -0.258  11.981  21.310  0.00  0.00    +0.000 A 
ATOM     22  C   UNL     1       0.497  11.565  20.192  0.00  0.00    +0.000 A 
ATOM     23  C   UNL     1       0.828  10.223  19.969  0.00  0.00    +0.000 A 
ATOM     24  C   UNL     1       0.377   9.249  20.850  0.00  0.00    +0.000 A 
ATOM     25  C   UNL     1      -0.429   9.626  21.915  0.00  0.00    +0.000 A 
ATOM     26  F   UNL     1      -0.871   8.690  22.764  0.00  0.00    +0.000 F 
ATOM     27  C   UNL     1      -0.750  10.964  22.146  0.00  0.00    +0.000 A 
ENDBRANCH  18  21
ENDBRANCH   2  18
TORSDOF 3
ENDMDL
MODEL 4
REMARK VINA RESULT:      -7.2      1.836      2.709
REMARK  Name = 
REMARK  3 active torsions:
REMARK  status: ('A' for Active; 'I' for Inactive)
REMARK    1  A    between atoms: C_2  and  C_18
REMARK    2  A    between atoms: C_7  and  C_8
REMARK    3  A    between atoms: C_18  and  C_19
REMARK                            x       y       z     vdW  Elec       q    Type
REMARK                         _______ _______ _______ _____ _____    ______ ____
ROOT
ATOM      1  O   UNL     1       4.707   2.572  18.918  0.00  0.00    +0.000 OA
ATOM      2  C   UNL     1       4.523   3.775  18.742  0.00  0.00    +0.000 C 
ATOM      3  N   UNL     1       3.647   4.542  19.507  0.00  0.00    +0.000 N 
ATOM      4  C   UNL     1       2.910   3.938  20.612  0.00  0.00    +0.000 C 
ATOM      5  C   UNL     1       1.418   4.236  20.492  0.00  0.00    +0.000 C 
ATOM      6  C   UNL     1       1.139   5.735  20.319  0.00  0.00    +0.000 C 
ATOM      7  C   UNL     1       1.969   6.323  19.168  0.00  0.00    +0.000 C 
ATOM      8  C   UNL     1       3.450   5.981  19.353  0.00  0.00    +0.000 C 
ENDROOT
BRANCH   7   9
ATOM      9  C   UNL     1       1.823   7.808  19.082  0.00  0.00    +0.000 A 
ATOM     10  N   UNL     1       2.056   8.539  18.008  0.00  0.00    +0.000 NA
ATOM     11  N   UNL     1       1.723   9.842  18.287  0.00  0.00    +0.000 NA
ATOM     12  C   UNL     1       1.289   9.888  19.526  0.00  0.00    +0.000 A 
ATOM     13  C   UNL     1       0.808  10.951  20.337  0.00  0.00    +0.000 A 
ATOM     14  C   UNL     1       0.406  10.695  21.598  0.00  0.00    +0.000 A 
ATOM     15  C   UNL     1       0.448   9.349  22.149  0.00  0.00    +0.000 A 
ATOM     16  C   UNL     1       0.909   8.343  21.386  0.00  0.00    +0.000 A 
ATOM     17  N   UNL     1       1.329   8.617  20.083  0.00  0.00    +0.000 N 
ENDBRANCH   7   9
BRANCH   2  18
ATOM     18  C   UNL     1       5.234   4.475  17.597  0.00  0.00    +0.000 C 
ATOM     19  C   UNL     1       4.474   4.748  16.299  0.00  0.00    +0.000 C 
ATOM     20  C   UNL     1       5.420   3.599  16.351  0.00  0.00    +0.000 C 
BRANCH  18  21
ATOM     21  C   UNL     1       6.248   5.552  18.028  0.00  0.00    +0.000 A 
ATOM     22  C   UNL     1       7.156   5.283  19.076  0.00  0.00    +0.000 A 
ATOM     23  C   UNL     1       8.211   6.147  19.393  0.00  0.00    +0.000 A 
ATOM     24  C   UNL     1       8.364   7.333  18.686  0.00  0.00    +0.000 A 
ATOM     25  C   UNL     1       7.440   7.654  17.702  0.00  0.00    +0.000 A 
ATOM     26  F   UNL     1       7.580   8.798  17.022  0.00  0.00    +0.000 F 
ATOM     27  C   UNL     1       6.395   6.789  17.376  0.00  0.00    +0.000 A 
ENDBRANCH  18  21
ENDBRANCH   2  18
TORSDOF 3
ENDMDL
MODEL 5
REMARK VINA RESULT:      -7.2      1.035      1.809
REMARK  Name = 
REMARK  3 active torsions:
REMARK  status: ('A' for Active; 'I' for Inactive)
REMARK    1  A    between atoms: C_2  and  C_18
REMARK    2  A    between atoms: C_7  and  C_8
REMARK    3  A    between atoms: C_18  and  C_19
REMARK                            x       y       z     vdW  Elec       q    Type
REMARK                         _______ _______ _______ _____ _____    ______ ____
ROOT
ATOM      1  O   UNL     1       5.159   2.525  16.676  0.00  0.00    +0.000 OA
ATOM      2  C   UNL     1       4.986   3.726  16.877  0.00  0.00    +0.000 C 
ATOM      3  N   UNL     1       3.994   4.235  17.713  0.00  0.00    +0.000 N 
ATOM      4  C   UNL     1       3.110   3.331  18.442  0.00  0.00    +0.000 C 
ATOM      5  C   UNL     1       1.648   3.704  18.209  0.00  0.00    +0.000 C 
ATOM      6  C   UNL     1       1.377   5.187  18.494  0.00  0.00    +0.000 C 
ATOM      7  C   UNL     1       2.360   6.086  17.731  0.00  0.00    +0.000 C 
ATOM      8  C   UNL     1       3.802   5.652  18.009  0.00  0.00    +0.000 C 
ENDROOT
BRANCH   7   9
ATOM      9  C   UNL     1       2.206   7.523  18.112  0.00  0.00    +0.000 A 
ATOM     10  N   UNL     1       2.368   8.552  17.301  0.00  0.00    +0.000 NA
ATOM     11  N   UNL     1       2.052   9.700  17.985  0.00  0.00    +0.000 NA
ATOM     12  C   UNL     1       1.701   9.357  19.203  0.00  0.00    +0.000 A 
ATOM     13  C   UNL     1       1.273  10.111  20.329  0.00  0.00    +0.000 A 
ATOM     14  C   UNL     1       0.954   9.475  21.473  0.00  0.00    +0.000 A 
ATOM     15  C   UNL     1       1.035   8.026  21.582  0.00  0.00    +0.000 A 
ATOM     16  C   UNL     1       1.445   7.311  20.522  0.00  0.00    +0.000 A 
ATOM     17  N   UNL     1       1.778   7.978  19.342  0.00  0.00    +0.000 N 
ENDBRANCH   7   9
BRANCH   2  18
ATOM     18  C   UNL     1       5.849   4.734  16.138  0.00  0.00    +0.000 C 
ATOM     19  C   UNL     1       5.275   5.466  14.925  0.00  0.00    +0.000 C 
ATOM     20  C   UNL     1       6.201   4.320  14.703  0.00  0.00    +0.000 C 
BRANCH  18  21
ATOM     21  C   UNL     1       6.799   5.551  17.035  0.00  0.00    +0.000 A 
ATOM     22  C   UNL     1       7.001   6.925  16.776  0.00  0.00    +0.000 A 
ATOM     23  C   UNL     1       7.707   7.757  17.652  0.00  0.00    +0.000 A 
ATOM     24  C   UNL     1       8.266   7.223  18.806  0.00  0.00    +0.000 A 
ATOM     25  C   UNL     1       8.144   5.861  19.044  0.00  0.00    +0.000 A 
ATOM     26  F   UNL     1       8.686   5.340  20.152  0.00  0.00    +0.000 F 
ATOM     27  C   UNL     1       7.431   5.032  18.178  0.00  0.00    +0.000 A 
ENDBRANCH  18  21
ENDBRANCH   2  18
TORSDOF 3
ENDMDL
MODEL 6
REMARK VINA RESULT:      -7.2      2.189      3.474
REMARK  Name = 
REMARK  3 active torsions:
REMARK  status: ('A' for Active; 'I' for Inactive)
REMARK    1  A    between atoms: C_2  and  C_18
REMARK    2  A    between atoms: C_7  and  C_8
REMARK    3  A    between atoms: C_18  and  C_19
REMARK                            x       y       z     vdW  Elec       q    Type
REMARK                         _______ _______ _______ _____ _____    ______ ____
ROOT
ATOM      1  O   UNL     1       5.418   2.771  19.430  0.00  0.00    +0.000 OA
ATOM      2  C   UNL     1       5.197   3.958  19.195  0.00  0.00    +0.000 C 
ATOM      3  N   UNL     1       4.031   4.616  19.578  0.00  0.00    +0.000 N 
ATOM      4  C   UNL     1       3.000   3.912  20.334  0.00  0.00    +0.000 C 
ATOM      5  C   UNL     1       1.637   4.077  19.669  0.00  0.00    +0.000 C 
ATOM      6  C   UNL     1       1.298   5.549  19.400  0.00  0.00    +0.000 C 
ATOM      7  C   UNL     1       2.433   6.248  18.637  0.00  0.00    +0.000 C 
ATOM      8  C   UNL     1       3.767   6.036  19.359  0.00  0.00    +0.000 C 
ENDROOT
BRANCH   7   9
ATOM      9  C   UNL     1       2.186   7.716  18.499  0.00  0.00    +0.000 A 
ATOM     10  N   UNL     1       2.349   8.419  17.394  0.00  0.00    +0.000 NA
ATOM     11  N   UNL     1       1.935   9.707  17.632  0.00  0.00    +0.000 NA
ATOM     12  C   UNL     1       1.524   9.772  18.878  0.00  0.00    +0.000 A 
ATOM     13  C   UNL     1       0.989  10.831  19.660  0.00  0.00    +0.000 A 
ATOM     14  C   UNL     1       0.629  10.598  20.937  0.00  0.00    +0.000 A 
ATOM     15  C   UNL     1       0.773   9.280  21.537  0.00  0.00    +0.000 A 
ATOM     16  C   UNL     1       1.284   8.278  20.802  0.00  0.00    +0.000 A 
ATOM     17  N   UNL     1       1.659   8.529  19.481  0.00  0.00    +0.000 N 
ENDBRANCH   7   9
BRANCH   2  18
ATOM     18  C   UNL     1       6.209   4.757  18.393  0.00  0.00    +0.000 C 
ATOM     19  C   UNL     1       7.697   4.619  18.714  0.00  0.00    +0.000 C 
ATOM     20  C   UNL     1       6.961   5.813  19.215  0.00  0.00    +0.000 C 
BRANCH  18  21
ATOM     21  C   UNL     1       5.851   4.946  16.907  0.00  0.00    +0.000 A 
ATOM     22  C   UNL     1       5.373   6.195  16.452  0.00  0.00    +0.000 A 
ATOM     23  C   UNL     1       5.200   6.482  15.093  0.00  0.00    +0.000 A 
ATOM     24  C   UNL     1       5.471   5.504  14.145  0.00  0.00    +0.000 A 
ATOM     25  C   UNL     1       5.871   4.246  14.572  0.00  0.00    +0.000 A 
ATOM     26  F   UNL     1       6.128   3.298  13.662  0.00  0.00    +0.000 F 
ATOM     27  C   UNL     1       6.055   3.961  15.925  0.00  0.00    +0.000 A 
ENDBRANCH  18  21
ENDBRANCH   2  18
TORSDOF 3
ENDMDL
MODEL 7
REMARK VINA RESULT:      -7.2      1.389      2.253
REMARK  Name = 
REMARK  3 active torsions:
REMARK  status: ('A' for Active; 'I' for Inactive)
REMARK    1  A    between atoms: C_2  and  C_18
REMARK    2  A    between atoms: C_7  and  C_8
REMARK    3  A    between atoms: C_18  and  C_19
REMARK                            x       y       z     vdW  Elec       q    Type
REMARK                         _______ _______ _______ _____ _____    ______ ____
ROOT
ATOM      1  O   UNL     1       5.237   2.895  16.728  0.00  0.00    +0.000 OA
ATOM      2  C   UNL     1       5.021   4.085  16.952  0.00  0.00    +0.000 C 
ATOM      3  N   UNL     1       3.972   4.543  17.747  0.00  0.00    +0.000 N 
ATOM      4  C   UNL     1       3.075   3.596  18.401  0.00  0.00    +0.000 C 
ATOM      5  C   UNL     1       1.618   3.938  18.099  0.00  0.00    +0.000 C 
ATOM      6  C   UNL     1       1.292   5.405  18.410  0.00  0.00    +0.000 C 
ATOM      7  C   UNL     1       2.290   6.351  17.728  0.00  0.00    +0.000 C 
ATOM      8  C   UNL     1       3.727   5.945  18.072  0.00  0.00    +0.000 C 
ENDROOT
BRANCH   7   9
ATOM      9  C   UNL     1       2.078   7.772  18.140  0.00  0.00    +0.000 A 
ATOM     10  N   UNL     1       2.132   8.819  17.338  0.00  0.00    +0.000 NA
ATOM     11  N   UNL     1       1.793   9.938  18.058  0.00  0.00    +0.000 NA
ATOM     12  C   UNL     1       1.534   9.560  19.289  0.00  0.00    +0.000 A 
ATOM     13  C   UNL     1       1.131  10.273  20.450  0.00  0.00    +0.000 A 
ATOM     14  C   UNL     1       0.918   9.605  21.600  0.00  0.00    +0.000 A 
ATOM     15  C   UNL     1       1.087   8.162  21.681  0.00  0.00    +0.000 A 
ATOM     16  C   UNL     1       1.475   7.485  20.587  0.00  0.00    +0.000 A 
ATOM     17  N   UNL     1       1.699   8.185  19.400  0.00  0.00    +0.000 N 
ENDBRANCH   7   9
BRANCH   2  18
ATOM     18  C   UNL     1       5.896   5.135  16.291  0.00  0.00    +0.000 C 
ATOM     19  C   UNL     1       5.399   5.835  15.025  0.00  0.00    +0.000 C 
ATOM     20  C   UNL     1       6.400   4.738  14.896  0.00  0.00    +0.000 C 
BRANCH  18  21
ATOM     21  C   UNL     1       6.715   6.002  17.267  0.00  0.00    +0.000 A 
ATOM     22  C   UNL     1       7.292   5.413  18.414  0.00  0.00    +0.000 A 
ATOM     23  C   UNL     1       8.188   6.102  19.239  0.00  0.00    +0.000 A 
ATOM     24  C   UNL     1       8.506   7.424  18.955  0.00  0.00    +0.000 A 
ATOM     25  C   UNL     1       7.894   8.046  17.876  0.00  0.00    +0.000 A 
ATOM     26  F   UNL     1       8.194   9.322  17.601  0.00  0.00    +0.000 F 
ATOM     27  C   UNL     1       7.010   7.358  17.045  0.00  0.00    +0.000 A 
ENDBRANCH  18  21
ENDBRANCH   2  18
TORSDOF 3
ENDMDL
MODEL 8
REMARK VINA RESULT:      -7.1      1.595      2.432
REMARK  Name = 
REMARK  3 active torsions:
REMARK  status: ('A' for Active; 'I' for Inactive)
REMARK    1  A    between atoms: C_2  and  C_18
REMARK    2  A    between atoms: C_7  and  C_8
REMARK    3  A    between atoms: C_18  and  C_19
REMARK                            x       y       z     vdW  Elec       q    Type
REMARK                         _______ _______ _______ _____ _____    ______ ____
ROOT
ATOM      1  O   UNL     1       4.482   2.381  18.944  0.00  0.00    +0.000 OA
ATOM      2  C   UNL     1       4.339   3.584  18.734  0.00  0.00    +0.000 C 
ATOM      3  N   UNL     1       3.549   4.417  19.522  0.00  0.00    +0.000 N 
ATOM      4  C   UNL     1       2.862   3.888  20.696  0.00  0.00    +0.000 C 
ATOM      5  C   UNL     1       1.380   4.249  20.661  0.00  0.00    +0.000 C 
ATOM      6  C   UNL     1       1.155   5.752  20.448  0.00  0.00    +0.000 C 
ATOM      7  C   UNL     1       1.931   6.259  19.223  0.00  0.00    +0.000 C 
ATOM      8  C   UNL     1       3.406   5.857  19.326  0.00  0.00    +0.000 C 
ENDROOT
BRANCH   7   9
ATOM      9  C   UNL     1       1.844   7.745  19.089  0.00  0.00    +0.000 A 
ATOM     10  N   UNL     1       2.151   8.435  18.006  0.00  0.00    +0.000 NA
ATOM     11  N   UNL     1       1.854   9.757  18.233  0.00  0.00    +0.000 NA
ATOM     12  C   UNL     1       1.369   9.856  19.450  0.00  0.00    +0.000 A 
ATOM     13  C   UNL     1       0.892  10.959  20.209  0.00  0.00    +0.000 A 
ATOM     14  C   UNL     1       0.427  10.755  21.457  0.00  0.00    +0.000 A 
ATOM     15  C   UNL     1       0.395   9.426  22.047  0.00  0.00    +0.000 A 
ATOM     16  C   UNL     1       0.851   8.382  21.334  0.00  0.00    +0.000 A 
ATOM     17  N   UNL     1       1.337   8.601  20.045  0.00  0.00    +0.000 N 
ENDBRANCH   7   9
BRANCH   2  18
ATOM     18  C   UNL     1       5.002   4.209  17.519  0.00  0.00    +0.000 C 
ATOM     19  C   UNL     1       4.142   4.612  16.320  0.00  0.00    +0.000 C 
ATOM     20  C   UNL     1       4.923   3.345  16.252  0.00  0.00    +0.000 C 
BRANCH  18  21
ATOM     21  C   UNL     1       6.196   5.130  17.836  0.00  0.00    +0.000 A 
ATOM     22  C   UNL     1       6.361   6.338  17.122  0.00  0.00    +0.000 A 
ATOM     23  C   UNL     1       7.316   7.295  17.481  0.00  0.00    +0.000 A 
ATOM     24  C   UNL     1       8.165   7.051  18.553  0.00  0.00    +0.000 A 
ATOM     25  C   UNL     1       8.071   5.839  19.222  0.00  0.00    +0.000 A 
ATOM     26  F   UNL     1       8.891   5.597  20.253  0.00  0.00    +0.000 F 
ATOM     27  C   UNL     1       7.112   4.888  18.874  0.00  0.00    +0.000 A 
ENDBRANCH  18  21
ENDBRANCH   2  18
TORSDOF 3
ENDMDL
MODEL 9
REMARK VINA RESULT:      -7.1      1.573      1.977
REMARK  Name = 
REMARK  3 active torsions:
REMARK  status: ('A' for Active; 'I' for Inactive)
REMARK    1  A    between atoms: C_2  and  C_18
REMARK    2  A    between atoms: C_7  and  C_8
REMARK    3  A    between atoms: C_18  and  C_19
REMARK                            x       y       z     vdW  Elec       q    Type
REMARK                         _______ _______ _______ _____ _____    ______ ____
ROOT
ATOM      1  O   UNL     1       4.849   2.606  18.065  0.00  0.00    +0.000 OA
ATOM      2  C   UNL     1       4.521   3.763  18.322  0.00  0.00    +0.000 C 
ATOM      3  N   UNL     1       3.692   4.112  19.387  0.00  0.00    +0.000 N 
ATOM      4  C   UNL     1       3.191   3.088  20.297  0.00  0.00    +0.000 C 
ATOM      5  C   UNL     1       1.675   3.191  20.441  0.00  0.00    +0.000 C 
ATOM      6  C   UNL     1       1.224   4.611  20.809  0.00  0.00    +0.000 C 
ATOM      7  C   UNL     1       1.812   5.647  19.842  0.00  0.00    +0.000 C 
ATOM      8  C   UNL     1       3.332   5.481  19.745  0.00  0.00    +0.000 C 
ENDROOT
BRANCH   7   9
ATOM      9  C   UNL     1       1.506   7.045  20.273  0.00  0.00    +0.000 A 
ATOM     10  N   UNL     1       1.201   7.417  21.503  0.00  0.00    +0.000 NA
ATOM     11  N   UNL     1       1.080   8.785  21.526  0.00  0.00    +0.000 NA
ATOM     12  C   UNL     1       1.313   9.230  20.313  0.00  0.00    +0.000 A 
ATOM     13  C   UNL     1       1.336  10.536  19.754  0.00  0.00    +0.000 A 
ATOM     14  C   UNL     1       1.629  10.696  18.449  0.00  0.00    +0.000 A 
ATOM     15  C   UNL     1       1.930   9.558  17.594  0.00  0.00    +0.000 A 
ATOM     16  C   UNL     1       1.903   8.321  18.118  0.00  0.00    +0.000 A 
ATOM     17  N   UNL     1       1.593   8.163  19.469  0.00  0.00    +0.000 N 
ENDBRANCH   7   9
BRANCH   2  18
ATOM     18  C   UNL     1       4.982   4.886  17.410  0.00  0.00    +0.000 C 
ATOM     19  C   UNL     1       3.956   5.615  16.541  0.00  0.00    +0.000 C 
ATOM     20  C   UNL     1       4.823   4.578  15.914  0.00  0.00    +0.000 C 
BRANCH  18  21
ATOM     21  C   UNL     1       6.126   5.749  17.975  0.00  0.00    +0.000 A 
ATOM     22  C   UNL     1       6.925   5.254  19.030  0.00  0.00    +0.000 A 
ATOM     23  C   UNL     1       8.082   5.910  19.464  0.00  0.00    +0.000 A 
ATOM     24  C   UNL     1       8.456   7.109  18.873  0.00  0.00    +0.000 A 
ATOM     25  C   UNL     1       7.646   7.653  17.885  0.00  0.00    +0.000 A 
ATOM     26  F   UNL     1       7.999   8.812  17.315  0.00  0.00    +0.000 F 
ATOM     27  C   UNL     1       6.498   6.995  17.442  0.00  0.00    +0.000 A 
ENDBRANCH  18  21
ENDBRANCH   2  18
TORSDOF 3
ENDMDL
