MODEL 1
REMARK VINA RESULT:      -8.2      0.000      0.000
REMARK  Name = 
REMARK  2 active torsions:
REMARK  status: ('A' for Active; 'I' for Inactive)
REMARK    1  A    between atoms: C_5  and  C_7
REMARK    2  A    between atoms: C_7  and  N_8
REMARK                            x       y       z     vdW  Elec       q    Type
REMARK                         _______ _______ _______ _____ _____    ______ ____
ROOT
ATOM      1  N   UNL     1       2.331   7.651  18.648  0.00  0.00    +0.000 N 
ATOM      2  C   UNL     1       2.175   7.407  19.974  0.00  0.00    +0.000 C 
ATOM      3  O   UNL     1       1.352   7.908  20.719  0.00  0.00    +0.000 OA
ATOM      4  N   UNL     1       3.052   6.418  20.354  0.00  0.00    +0.000 N 
ATOM      5  C   UNL     1       3.698   5.807  19.211  0.00  0.00    +0.000 C 
ATOM      6  C   UNL     1       5.197   5.688  19.432  0.00  0.00    +0.000 C 
ATOM      7  C   UNL     1       5.832   4.913  18.291  0.00  0.00    +0.000 C 
ATOM      8  O   UNL     1       5.265   3.616  18.104  0.00  0.00    +0.000 OA
ATOM      9  C   UNL     1       3.904   3.529  18.179  0.00  0.00    +0.000 A 
ATOM     10  C   UNL     1       3.332   2.401  17.588  0.00  0.00    +0.000 A 
ATOM     11  C   UNL     1       1.950   2.218  17.605  0.00  0.00    +0.000 A 
ATOM     12  C   UNL     1       1.134   3.138  18.253  0.00  0.00    +0.000 A 
ATOM     13  C   UNL     1       1.701   4.258  18.858  0.00  0.00    +0.000 A 
ATOM     14  C   UNL     1       3.092   4.482  18.803  0.00  0.00    +0.000 A 
ATOM     15  C   UNL     1       3.283   6.829  18.115  0.00  0.00    +0.000 C 
ATOM     16  O   UNL     1       3.640   6.792  16.947  0.00  0.00    +0.000 OA
ATOM     17  H   UNL     1       2.953   5.978  21.258  0.00  0.00    +0.000 HD
ENDROOT
BRANCH   1  18
ATOM     18  C   UNL     1       1.449   8.487  17.864  0.00  0.00    +0.000 C 
BRANCH  18  23
ATOM     19  O   UNL     1      -3.063  10.537  18.202  0.00  0.00    +0.000 OA
ATOM     20  C   UNL     1      -1.939  11.014  18.367  0.00  0.00    +0.000 C 
ATOM     21  C   UNL     1      -0.754  10.169  18.805  0.00  0.00    +0.000 C 
ATOM     22  N   UNL     1       0.576  10.739  18.526  0.00  0.00    +0.000 N 
ATOM     23  C   UNL     1       1.687   9.966  18.161  0.00  0.00    +0.000 C 
ATOM     24  O   UNL     1       2.818  10.427  17.982  0.00  0.00    +0.000 OA
ATOM     25  C   UNL     1       0.672  12.165  18.683  0.00  0.00    +0.000 A 
ATOM     26  C   UNL     1       1.885  12.826  18.914  0.00  0.00    +0.000 A 
ATOM     27  C   UNL     1       1.953  14.219  18.965  0.00  0.00    +0.000 A 
ATOM     28  C   UNL     1       0.803  14.979  18.794  0.00  0.00    +0.000 A 
ATOM     29  C   UNL     1      -0.420  14.346  18.590  0.00  0.00    +0.000 A 
ATOM     30  C   UNL     1      -0.488  12.950  18.550  0.00  0.00    +0.000 A 
ATOM     31  N   UNL     1      -1.737  12.363  18.323  0.00  0.00    +0.000 N 
ATOM     32  H   UNL     1      -2.549  12.933  18.129  0.00  0.00    +0.000 HD
ENDBRANCH  18  23
ENDBRANCH   1  18
TORSDOF 2
ENDMDL
MODEL 2
REMARK VINA RESULT:      -8.1      5.316     10.361
REMARK  Name = 
REMARK  2 active torsions:
REMARK  status: ('A' for Active; 'I' for Inactive)
REMARK    1  A    between atoms: C_5  and  C_7
REMARK    2  A    between atoms: C_7  and  N_8
REMARK                            x       y       z     vdW  Elec       q    Type
REMARK                         _______ _______ _______ _____ _____    ______ ____
ROOT
ATOM      1  N   UNL     1      -4.982  13.249  21.740  0.00  0.00    +0.000 N 
ATOM      2  C   UNL     1      -6.180  13.444  22.350  0.00  0.00    +0.000 C 
ATOM      3  O   UNL     1      -6.374  13.963  23.435  0.00  0.00    +0.000 OA
ATOM      4  N   UNL     1      -7.184  13.036  21.504  0.00  0.00    +0.000 N 
ATOM      5  C   UNL     1      -6.682  12.737  20.179  0.00  0.00    +0.000 C 
ATOM      6  C   UNL     1      -7.228  11.412  19.675  0.00  0.00    +0.000 C 
ATOM      7  C   UNL     1      -6.809  11.190  18.232  0.00  0.00    +0.000 C 
ATOM      8  O   UNL     1      -7.214  12.245  17.358  0.00  0.00    +0.000 OA
ATOM      9  C   UNL     1      -7.048  13.519  17.823  0.00  0.00    +0.000 A 
ATOM     10  C   UNL     1      -7.027  14.524  16.854  0.00  0.00    +0.000 A 
ATOM     11  C   UNL     1      -6.859  15.858  17.221  0.00  0.00    +0.000 A 
ATOM     12  C   UNL     1      -6.757  16.201  18.564  0.00  0.00    +0.000 A 
ATOM     13  C   UNL     1      -6.792  15.205  19.537  0.00  0.00    +0.000 A 
ATOM     14  C   UNL     1      -6.909  13.847  19.176  0.00  0.00    +0.000 A 
ATOM     15  C   UNL     1      -5.158  12.737  20.486  0.00  0.00    +0.000 C 
ATOM     16  O   UNL     1      -4.278  12.468  19.681  0.00  0.00    +0.000 OA
ATOM     17  H   UNL     1      -8.144  13.274  21.712  0.00  0.00    +0.000 HD
ENDROOT
BRANCH   1  18
ATOM     18  C   UNL     1      -3.720  13.739  22.248  0.00  0.00    +0.000 C 
BRANCH  18  23
ATOM     19  O   UNL     1      -0.502  13.465  18.475  0.00  0.00    +0.000 OA
ATOM     20  C   UNL     1      -0.574  12.831  19.529  0.00  0.00    +0.000 C 
ATOM     21  C   UNL     1      -1.208  13.411  20.784  0.00  0.00    +0.000 C 
ATOM     22  N   UNL     1      -1.634  12.429  21.797  0.00  0.00    +0.000 N 
ATOM     23  C   UNL     1      -2.780  12.585  22.589  0.00  0.00    +0.000 C 
ATOM     24  O   UNL     1      -3.114  11.798  23.480  0.00  0.00    +0.000 OA
ATOM     25  C   UNL     1      -0.767  11.292  21.945  0.00  0.00    +0.000 A 
ATOM     26  C   UNL     1      -0.726  10.512  23.108  0.00  0.00    +0.000 A 
ATOM     27  C   UNL     1       0.057   9.358  23.179  0.00  0.00    +0.000 A 
ATOM     28  C   UNL     1       0.822   8.967  22.088  0.00  0.00    +0.000 A 
ATOM     29  C   UNL     1       0.820   9.741  20.930  0.00  0.00    +0.000 A 
ATOM     30  C   UNL     1       0.044  10.901  20.864  0.00  0.00    +0.000 A 
ATOM     31  N   UNL     1       0.061  11.631  19.671  0.00  0.00    +0.000 N 
ATOM     32  H   UNL     1       0.567  11.293  18.864  0.00  0.00    +0.000 HD
ENDBRANCH  18  23
ENDBRANCH   1  18
TORSDOF 2
ENDMDL
MODEL 3
REMARK VINA RESULT:      -7.9      4.632      9.593
REMARK  Name = 
REMARK  2 active torsions:
REMARK  status: ('A' for Active; 'I' for Inactive)
REMARK    1  A    between atoms: C_5  and  C_7
REMARK    2  A    between atoms: C_7  and  N_8
REMARK                            x       y       z     vdW  Elec       q    Type
REMARK                         _______ _______ _______ _____ _____    ______ ____
ROOT
ATOM      1  N   UNL     1      -3.266  13.938  21.929  0.00  0.00    +0.000 N 
ATOM      2  C   UNL     1      -3.695  14.999  21.197  0.00  0.00    +0.000 C 
ATOM      3  O   UNL     1      -3.002  15.842  20.654  0.00  0.00    +0.000 OA
ATOM      4  N   UNL     1      -5.063  14.939  21.079  0.00  0.00    +0.000 N 
ATOM      5  C   UNL     1      -5.589  13.682  21.570  0.00  0.00    +0.000 C 
ATOM      6  C   UNL     1      -6.785  13.910  22.480  0.00  0.00    +0.000 C 
ATOM      7  C   UNL     1      -7.409  12.580  22.864  0.00  0.00    +0.000 C 
ATOM      8  O   UNL     1      -7.800  11.794  21.737  0.00  0.00    +0.000 OA
ATOM      9  C   UNL     1      -6.919  11.744  20.693  0.00  0.00    +0.000 A 
ATOM     10  C   UNL     1      -7.080  10.674  19.811  0.00  0.00    +0.000 A 
ATOM     11  C   UNL     1      -6.231  10.528  18.715  0.00  0.00    +0.000 A 
ATOM     12  C   UNL     1      -5.245  11.475  18.468  0.00  0.00    +0.000 A 
ATOM     13  C   UNL     1      -5.088  12.553  19.337  0.00  0.00    +0.000 A 
ATOM     14  C   UNL     1      -5.907  12.684  20.478  0.00  0.00    +0.000 A 
ATOM     15  C   UNL     1      -4.319  13.147  22.290  0.00  0.00    +0.000 C 
ATOM     16  O   UNL     1      -4.260  12.111  22.936  0.00  0.00    +0.000 OA
ATOM     17  H   UNL     1      -5.538  15.539  20.418  0.00  0.00    +0.000 HD
ENDROOT
BRANCH   1  18
ATOM     18  C   UNL     1      -1.878  13.570  22.093  0.00  0.00    +0.000 C 
BRANCH  18  23
ATOM     19  O   UNL     1       0.382   9.626  24.096  0.00  0.00    +0.000 OA
ATOM     20  C   UNL     1       0.154   9.923  22.922  0.00  0.00    +0.000 C 
ATOM     21  C   UNL     1      -1.016  10.805  22.519  0.00  0.00    +0.000 C 
ATOM     22  N   UNL     1      -0.911  11.441  21.194  0.00  0.00    +0.000 N 
ATOM     23  C   UNL     1      -1.391  12.728  20.914  0.00  0.00    +0.000 C 
ATOM     24  O   UNL     1      -1.360  13.247  19.794  0.00  0.00    +0.000 OA
ATOM     25  C   UNL     1      -0.299  10.630  20.177  0.00  0.00    +0.000 A 
ATOM     26  C   UNL     1      -0.507  10.840  18.808  0.00  0.00    +0.000 A 
ATOM     27  C   UNL     1       0.180  10.095  17.847  0.00  0.00    +0.000 A 
ATOM     28  C   UNL     1       1.085   9.117  18.242  0.00  0.00    +0.000 A 
ATOM     29  C   UNL     1       1.290   8.870  19.597  0.00  0.00    +0.000 A 
ATOM     30  C   UNL     1       0.593   9.610  20.556  0.00  0.00    +0.000 A 
ATOM     31  N   UNL     1       0.849   9.338  21.904  0.00  0.00    +0.000 N 
ATOM     32  H   UNL     1       1.564   8.674  22.171  0.00  0.00    +0.000 HD
ENDBRANCH  18  23
ENDBRANCH   1  18
TORSDOF 2
ENDMDL
MODEL 4
REMARK VINA RESULT:      -7.9      2.544      3.891
REMARK  Name = 
REMARK  2 active torsions:
REMARK  status: ('A' for Active; 'I' for Inactive)
REMARK    1  A    between atoms: C_5  and  C_7
REMARK    2  A    between atoms: C_7  and  N_8
REMARK                            x       y       z     vdW  Elec       q    Type
REMARK                         _______ _______ _______ _____ _____    ______ ____
ROOT
ATOM      1  N   UNL     1       3.468   6.255  18.238  0.00  0.00    +0.000 N 
ATOM      2  C   UNL     1       2.987   4.996  18.401  0.00  0.00    +0.000 C 
ATOM      3  O   UNL     1       1.817   4.662  18.465  0.00  0.00    +0.000 OA
ATOM      4  N   UNL     1       4.038   4.110  18.397  0.00  0.00    +0.000 N 
ATOM      5  C   UNL     1       5.279   4.752  18.014  0.00  0.00    +0.000 C 
ATOM      6  C   UNL     1       6.404   4.374  18.962  0.00  0.00    +0.000 C 
ATOM      7  C   UNL     1       7.722   4.936  18.458  0.00  0.00    +0.000 C 
ATOM      8  O   UNL     1       8.044   4.517  17.132  0.00  0.00    +0.000 OA
ATOM      9  C   UNL     1       7.023   4.526  16.224  0.00  0.00    +0.000 A 
ATOM     10  C   UNL     1       7.402   4.541  14.881  0.00  0.00    +0.000 A 
ATOM     11  C   UNL     1       6.437   4.555  13.874  0.00  0.00    +0.000 A 
ATOM     12  C   UNL     1       5.088   4.508  14.204  0.00  0.00    +0.000 A 
ATOM     13  C   UNL     1       4.703   4.477  15.542  0.00  0.00    +0.000 A 
ATOM     14  C   UNL     1       5.668   4.515  16.571  0.00  0.00    +0.000 A 
ATOM     15  C   UNL     1       4.827   6.238  18.102  0.00  0.00    +0.000 C 
ATOM     16  O   UNL     1       5.552   7.205  17.924  0.00  0.00    +0.000 OA
ATOM     17  H   UNL     1       3.860   3.118  18.322  0.00  0.00    +0.000 HD
ENDROOT
BRANCH   1  18
ATOM     18  C   UNL     1       2.643   7.419  18.000  0.00  0.00    +0.000 C 
BRANCH  18  23
ATOM     19  O   UNL     1       2.000  12.341  17.840  0.00  0.00    +0.000 OA
ATOM     20  C   UNL     1       1.576  11.491  18.625  0.00  0.00    +0.000 C 
ATOM     21  C   UNL     1       1.364  10.042  18.217  0.00  0.00    +0.000 C 
ATOM     22  N   UNL     1       1.301   9.069  19.322  0.00  0.00    +0.000 N 
ATOM     23  C   UNL     1       1.818   7.769  19.236  0.00  0.00    +0.000 C 
ATOM     24  O   UNL     1       1.719   6.928  20.135  0.00  0.00    +0.000 OA
ATOM     25  C   UNL     1       0.638   9.537  20.508  0.00  0.00    +0.000 A 
ATOM     26  C   UNL     1       0.079   8.674  21.459  0.00  0.00    +0.000 A 
ATOM     27  C   UNL     1      -0.471   9.163  22.646  0.00  0.00    +0.000 A 
ATOM     28  C   UNL     1      -0.480  10.528  22.899  0.00  0.00    +0.000 A 
ATOM     29  C   UNL     1       0.044  11.410  21.957  0.00  0.00    +0.000 A 
ATOM     30  C   UNL     1       0.585  10.920  20.765  0.00  0.00    +0.000 A 
ATOM     31  N   UNL     1       1.118  11.845  19.861  0.00  0.00    +0.000 N 
ATOM     32  H   UNL     1       1.167  12.827  20.095  0.00  0.00    +0.000 HD
ENDBRANCH  18  23
ENDBRANCH   1  18
TORSDOF 2
ENDMDL
MODEL 5
REMARK VINA RESULT:      -7.9      5.019     10.082
REMARK  Name = 
REMARK  2 active torsions:
REMARK  status: ('A' for Active; 'I' for Inactive)
REMARK    1  A    between atoms: C_5  and  C_7
REMARK    2  A    between atoms: C_7  and  N_8
REMARK                            x       y       z     vdW  Elec       q    Type
REMARK                         _______ _______ _______ _____ _____    ______ ____
ROOT
ATOM      1  N   UNL     1      -3.347  14.214  23.042  0.00  0.00    +0.000 N 
ATOM      2  C   UNL     1      -3.824  15.403  22.591  0.00  0.00    +0.000 C 
ATOM      3  O   UNL     1      -3.171  16.342  22.171  0.00  0.00    +0.000 OA
ATOM      4  N   UNL     1      -5.198  15.364  22.595  0.00  0.00    +0.000 N 
ATOM      5  C   UNL     1      -5.697  14.032  22.863  0.00  0.00    +0.000 C 
ATOM      6  C   UNL     1      -6.797  14.062  23.911  0.00  0.00    +0.000 C 
ATOM      7  C   UNL     1      -7.406  12.680  24.068  0.00  0.00    +0.000 C 
ATOM      8  O   UNL     1      -7.915  12.144  22.846  0.00  0.00    +0.000 OA
ATOM      9  C   UNL     1      -7.138  12.315  21.735  0.00  0.00    +0.000 A 
ATOM     10  C   UNL     1      -7.400  11.452  20.669  0.00  0.00    +0.000 A 
ATOM     11  C   UNL     1      -6.662  11.540  19.490  0.00  0.00    +0.000 A 
ATOM     12  C   UNL     1      -5.686  12.520  19.352  0.00  0.00    +0.000 A 
ATOM     13  C   UNL     1      -5.430  13.394  20.406  0.00  0.00    +0.000 A 
ATOM     14  C   UNL     1      -6.134  13.283  21.623  0.00  0.00    +0.000 A 
ATOM     15  C   UNL     1      -4.374  13.361  23.330  0.00  0.00    +0.000 C 
ATOM     16  O   UNL     1      -4.273  12.214  23.738  0.00  0.00    +0.000 OA
ATOM     17  H   UNL     1      -5.723  16.088  22.122  0.00  0.00    +0.000 HD
ENDROOT
BRANCH   1  18
ATOM     18  C   UNL     1      -1.956  13.823  22.991  0.00  0.00    +0.000 C 
BRANCH  18  23
ATOM     19  O   UNL     1       0.271   9.529  24.122  0.00  0.00    +0.000 OA
ATOM     20  C   UNL     1      -0.045  10.019  23.037  0.00  0.00    +0.000 C 
ATOM     21  C   UNL     1      -1.200  10.997  22.892  0.00  0.00    +0.000 C 
ATOM     22  N   UNL     1      -1.182  11.834  21.680  0.00  0.00    +0.000 N 
ATOM     23  C   UNL     1      -1.619  13.166  21.654  0.00  0.00    +0.000 C 
ATOM     24  O   UNL     1      -1.662  13.857  20.632  0.00  0.00    +0.000 OA
ATOM     25  C   UNL     1      -0.704  11.177  20.494  0.00  0.00    +0.000 A 
ATOM     26  C   UNL     1      -1.023  11.612  19.201  0.00  0.00    +0.000 A 
ATOM     27  C   UNL     1      -0.462  11.008  18.074  0.00  0.00    +0.000 A 
ATOM     28  C   UNL     1       0.423   9.948  18.221  0.00  0.00    +0.000 A 
ATOM     29  C   UNL     1       0.735   9.478  19.494  0.00  0.00    +0.000 A 
ATOM     30  C   UNL     1       0.165  10.077  20.620  0.00  0.00    +0.000 A 
ATOM     31  N   UNL     1       0.526   9.582  21.878  0.00  0.00    +0.000 N 
ATOM     32  H   UNL     1       1.227   8.859  21.966  0.00  0.00    +0.000 HD
ENDBRANCH  18  23
ENDBRANCH   1  18
TORSDOF 2
ENDMDL
MODEL 6
REMARK VINA RESULT:      -7.9      2.727      4.301
REMARK  Name = 
REMARK  2 active torsions:
REMARK  status: ('A' for Active; 'I' for Inactive)
REMARK    1  A    between atoms: C_5  and  C_7
REMARK    2  A    between atoms: C_7  and  N_8
REMARK                            x       y       z     vdW  Elec       q    Type
REMARK                         _______ _______ _______ _____ _____    ______ ____
ROOT
ATOM      1  N   UNL     1       3.665   5.441  18.738  0.00  0.00    +0.000 N 
ATOM      2  C   UNL     1       4.255   4.404  19.386  0.00  0.00    +0.000 C 
ATOM      3  O   UNL     1       3.697   3.508  19.995  0.00  0.00    +0.000 OA
ATOM      4  N   UNL     1       5.614   4.462  19.181  0.00  0.00    +0.000 N 
ATOM      5  C   UNL     1       5.964   5.454  18.186  0.00  0.00    +0.000 C 
ATOM      6  C   UNL     1       7.115   6.322  18.664  0.00  0.00    +0.000 C 
ATOM      7  C   UNL     1       7.562   7.255  17.552  0.00  0.00    +0.000 C 
ATOM      8  O   UNL     1       7.937   6.569  16.356  0.00  0.00    +0.000 OA
ATOM      9  C   UNL     1       7.127   5.541  15.964  0.00  0.00    +0.000 A 
ATOM     10  C   UNL     1       7.226   5.164  14.624  0.00  0.00    +0.000 A 
ATOM     11  C   UNL     1       6.440   4.129  14.120  0.00  0.00    +0.000 A 
ATOM     12  C   UNL     1       5.582   3.433  14.964  0.00  0.00    +0.000 A 
ATOM     13  C   UNL     1       5.490   3.794  16.306  0.00  0.00    +0.000 A 
ATOM     14  C   UNL     1       6.241   4.874  16.816  0.00  0.00    +0.000 A 
ATOM     15  C   UNL     1       4.598   6.189  18.077  0.00  0.00    +0.000 C 
ATOM     16  O   UNL     1       4.383   7.176  17.389  0.00  0.00    +0.000 OA
ATOM     17  H   UNL     1       6.194   3.673  19.432  0.00  0.00    +0.000 HD
ENDROOT
BRANCH   1  18
ATOM     18  C   UNL     1       2.237   5.590  18.571  0.00  0.00    +0.000 C 
BRANCH  18  23
ATOM     19  O   UNL     1       2.243  10.335  17.103  0.00  0.00    +0.000 OA
ATOM     20  C   UNL     1       1.812   9.802  18.126  0.00  0.00    +0.000 C 
ATOM     21  C   UNL     1       1.358   8.352  18.157  0.00  0.00    +0.000 C 
ATOM     22  N   UNL     1       1.306   7.726  19.490  0.00  0.00    +0.000 N 
ATOM     23  C   UNL     1       1.629   6.382  19.727  0.00  0.00    +0.000 C 
ATOM     24  O   UNL     1       1.533   5.834  20.829  0.00  0.00    +0.000 OA
ATOM     25  C   UNL     1       0.867   8.590  20.552  0.00  0.00    +0.000 A 
ATOM     26  C   UNL     1       0.323   8.110  21.749  0.00  0.00    +0.000 A 
ATOM     27  C   UNL     1      -0.003   8.976  22.796  0.00  0.00    +0.000 A 
ATOM     28  C   UNL     1       0.203  10.342  22.659  0.00  0.00    +0.000 A 
ATOM     29  C   UNL     1       0.717  10.848  21.467  0.00  0.00    +0.000 A 
ATOM     30  C   UNL     1       1.032   9.982  20.417  0.00  0.00    +0.000 A 
ATOM     31  N   UNL     1       1.565  10.537  19.249  0.00  0.00    +0.000 N 
ATOM     32  H   UNL     1       1.775  11.525  19.195  0.00  0.00    +0.000 HD
ENDBRANCH  18  23
ENDBRANCH   1  18
TORSDOF 2
ENDMDL
MODEL 7
REMARK VINA RESULT:      -7.8      1.769      8.424
REMARK  Name = 
REMARK  2 active torsions:
REMARK  status: ('A' for Active; 'I' for Inactive)
REMARK    1  A    between atoms: C_5  and  C_7
REMARK    2  A    between atoms: C_7  and  N_8
REMARK                            x       y       z     vdW  Elec       q    Type
REMARK                         _______ _______ _______ _____ _____    ______ ____
ROOT
ATOM      1  N   UNL     1       1.057   9.346  20.630  0.00  0.00    +0.000 N 
ATOM      2  C   UNL     1       0.486   9.793  21.777  0.00  0.00    +0.000 C 
ATOM      3  O   UNL     1       0.754   9.444  22.914  0.00  0.00    +0.000 OA
ATOM      4  N   UNL     1      -0.409  10.792  21.473  0.00  0.00    +0.000 N 
ATOM      5  C   UNL     1      -0.309  11.197  20.087  0.00  0.00    +0.000 C 
ATOM      6  C   UNL     1      -1.683  11.288  19.445  0.00  0.00    +0.000 C 
ATOM      7  C   UNL     1      -1.567  11.855  18.041  0.00  0.00    +0.000 C 
ATOM      8  O   UNL     1      -0.928  13.132  17.999  0.00  0.00    +0.000 OA
ATOM      9  C   UNL     1       0.182  13.283  18.782  0.00  0.00    +0.000 A 
ATOM     10  C   UNL     1       1.036  14.331  18.432  0.00  0.00    +0.000 A 
ATOM     11  C   UNL     1       2.198  14.570  19.164  0.00  0.00    +0.000 A 
ATOM     12  C   UNL     1       2.491  13.792  20.277  0.00  0.00    +0.000 A 
ATOM     13  C   UNL     1       1.636  12.754  20.640  0.00  0.00    +0.000 A 
ATOM     14  C   UNL     1       0.484  12.469  19.878  0.00  0.00    +0.000 A 
ATOM     15  C   UNL     1       0.582  10.039  19.553  0.00  0.00    +0.000 C 
ATOM     16  O   UNL     1       0.911   9.886  18.387  0.00  0.00    +0.000 OA
ATOM     17  H   UNL     1      -0.791  11.367  22.212  0.00  0.00    +0.000 HD
ENDROOT
BRANCH   1  18
ATOM     18  C   UNL     1       2.181   8.438  20.579  0.00  0.00    +0.000 C 
BRANCH  18  23
ATOM     19  O   UNL     1       4.808   6.386  16.897  0.00  0.00    +0.000 OA
ATOM     20  C   UNL     1       3.983   5.903  17.673  0.00  0.00    +0.000 C 
ATOM     21  C   UNL     1       3.735   6.479  19.058  0.00  0.00    +0.000 C 
ATOM     22  N   UNL     1       2.450   6.115  19.681  0.00  0.00    +0.000 N 
ATOM     23  C   UNL     1       1.711   6.987  20.494  0.00  0.00    +0.000 C 
ATOM     24  O   UNL     1       0.664   6.673  21.066  0.00  0.00    +0.000 OA
ATOM     25  C   UNL     1       2.005   4.773  19.421  0.00  0.00    +0.000 A 
ATOM     26  C   UNL     1       1.098   4.097  20.248  0.00  0.00    +0.000 A 
ATOM     27  C   UNL     1       0.615   2.831  19.911  0.00  0.00    +0.000 A 
ATOM     28  C   UNL     1       1.040   2.212  18.742  0.00  0.00    +0.000 A 
ATOM     29  C   UNL     1       1.962   2.851  17.917  0.00  0.00    +0.000 A 
ATOM     30  C   UNL     1       2.452   4.113  18.261  0.00  0.00    +0.000 A 
ATOM     31  N   UNL     1       3.361   4.721  17.389  0.00  0.00    +0.000 N 
ATOM     32  H   UNL     1       3.602   4.287  16.508  0.00  0.00    +0.000 HD
ENDBRANCH  18  23
ENDBRANCH   1  18
TORSDOF 2
ENDMDL
MODEL 8
REMARK VINA RESULT:      -7.7      5.223      8.860
REMARK  Name = 
REMARK  2 active torsions:
REMARK  status: ('A' for Active; 'I' for Inactive)
REMARK    1  A    between atoms: C_5  and  C_7
REMARK    2  A    between atoms: C_7  and  N_8
REMARK                            x       y       z     vdW  Elec       q    Type
REMARK                         _______ _______ _______ _____ _____    ______ ____
ROOT
ATOM      1  N   UNL     1      -3.671  11.350  17.847  0.00  0.00    +0.000 N 
ATOM      2  C   UNL     1      -4.469  11.304  16.749  0.00  0.00    +0.000 C 
ATOM      3  O   UNL     1      -4.230  10.746  15.692  0.00  0.00    +0.000 OA
ATOM      4  N   UNL     1      -5.662  11.925  17.036  0.00  0.00    +0.000 N 
ATOM      5  C   UNL     1      -5.780  12.234  18.446  0.00  0.00    +0.000 C 
ATOM      6  C   UNL     1      -6.258  13.661  18.653  0.00  0.00    +0.000 C 
ATOM      7  C   UNL     1      -6.516  13.916  20.127  0.00  0.00    +0.000 C 
ATOM      8  O   UNL     1      -7.453  13.004  20.703  0.00  0.00    +0.000 OA
ATOM      9  C   UNL     1      -7.316  11.689  20.354  0.00  0.00    +0.000 A 
ATOM     10  C   UNL     1      -7.916  10.766  21.212  0.00  0.00    +0.000 A 
ATOM     11  C   UNL     1      -7.833   9.399  20.950  0.00  0.00    +0.000 A 
ATOM     12  C   UNL     1      -7.187   8.949  19.804  0.00  0.00    +0.000 A 
ATOM     13  C   UNL     1      -6.598   9.866  18.937  0.00  0.00    +0.000 A 
ATOM     14  C   UNL     1      -6.631  11.249  19.217  0.00  0.00    +0.000 A 
ATOM     15  C   UNL     1      -4.311  11.971  18.881  0.00  0.00    +0.000 C 
ATOM     16  O   UNL     1      -3.867  12.154  20.005  0.00  0.00    +0.000 OA
ATOM     17  H   UNL     1      -6.445  11.828  16.404  0.00  0.00    +0.000 HD
ENDROOT
BRANCH   1  18
ATOM     18  C   UNL     1      -2.423  10.631  17.977  0.00  0.00    +0.000 C 
BRANCH  18  23
ATOM     19  O   UNL     1      -0.160   9.710  22.301  0.00  0.00    +0.000 OA
ATOM     20  C   UNL     1       0.127  10.479  21.382  0.00  0.00    +0.000 C 
ATOM     21  C   UNL     1      -0.296  10.220  19.945  0.00  0.00    +0.000 C 
ATOM     22  N   UNL     1      -0.296  11.395  19.056  0.00  0.00    +0.000 N 
ATOM     23  C   UNL     1      -1.240  11.594  18.037  0.00  0.00    +0.000 C 
ATOM     24  O   UNL     1      -1.214  12.545  17.251  0.00  0.00    +0.000 OA
ATOM     25  C   UNL     1       0.770  12.332  19.284  0.00  0.00    +0.000 A 
ATOM     26  C   UNL     1       1.216  13.232  18.309  0.00  0.00    +0.000 A 
ATOM     27  C   UNL     1       2.188  14.192  18.598  0.00  0.00    +0.000 A 
ATOM     28  C   UNL     1       2.740  14.262  19.870  0.00  0.00    +0.000 A 
ATOM     29  C   UNL     1       2.334  13.360  20.851  0.00  0.00    +0.000 A 
ATOM     30  C   UNL     1       1.369  12.393  20.557  0.00  0.00    +0.000 A 
ATOM     31  N   UNL     1       0.981  11.524  21.582  0.00  0.00    +0.000 N 
ATOM     32  H   UNL     1       1.341  11.637  22.519  0.00  0.00    +0.000 HD
ENDBRANCH  18  23
ENDBRANCH   1  18
TORSDOF 2
ENDMDL
MODEL 9
REMARK VINA RESULT:      -7.6      3.930      8.944
REMARK  Name = 
REMARK  2 active torsions:
REMARK  status: ('A' for Active; 'I' for Inactive)
REMARK    1  A    between atoms: C_5  and  C_7
REMARK    2  A    between atoms: C_7  and  N_8
REMARK                            x       y       z     vdW  Elec       q    Type
REMARK                         _______ _______ _______ _____ _____    ______ ____
ROOT
ATOM      1  N   UNL     1      -0.549  14.456  20.760  0.00  0.00    +0.000 N 
ATOM      2  C   UNL     1       0.314  14.414  21.807  0.00  0.00    +0.000 C 
ATOM      3  O   UNL     1       0.408  13.534  22.644  0.00  0.00    +0.000 OA
ATOM      4  N   UNL     1       1.154  15.501  21.739  0.00  0.00    +0.000 N 
ATOM      5  C   UNL     1       1.006  16.216  20.489  0.00  0.00    +0.000 C 
ATOM      6  C   UNL     1       0.892  17.713  20.727  0.00  0.00    +0.000 C 
ATOM      7  C   UNL     1       0.887  18.453  19.401  0.00  0.00    +0.000 C 
ATOM      8  O   UNL     1       2.033  18.176  18.595  0.00  0.00    +0.000 OA
ATOM      9  C   UNL     1       2.433  16.871  18.532  0.00  0.00    +0.000 A 
ATOM     10  C   UNL     1       3.245  16.534  17.448  0.00  0.00    +0.000 A 
ATOM     11  C   UNL     1       3.705  15.228  17.287  0.00  0.00    +0.000 A 
ATOM     12  C   UNL     1       3.393  14.259  18.234  0.00  0.00    +0.000 A 
ATOM     13  C   UNL     1       2.595  14.592  19.326  0.00  0.00    +0.000 A 
ATOM     14  C   UNL     1       2.080  15.898  19.473  0.00  0.00    +0.000 A 
ATOM     15  C   UNL     1      -0.295  15.541  19.970  0.00  0.00    +0.000 C 
ATOM     16  O   UNL     1      -0.886  15.847  18.944  0.00  0.00    +0.000 OA
ATOM     17  H   UNL     1       1.975  15.540  22.327  0.00  0.00    +0.000 HD
ENDROOT
BRANCH   1  18
ATOM     18  C   UNL     1      -1.444  13.379  20.399  0.00  0.00    +0.000 C 
BRANCH  18  23
ATOM     19  O   UNL     1      -0.114   9.928  23.714  0.00  0.00    +0.000 OA
ATOM     20  C   UNL     1       0.013   9.970  22.489  0.00  0.00    +0.000 C 
ATOM     21  C   UNL     1      -0.934  10.760  21.600  0.00  0.00    +0.000 C 
ATOM     22  N   UNL     1      -0.421  11.097  20.260  0.00  0.00    +0.000 N 
ATOM     23  C   UNL     1      -0.712  12.301  19.602  0.00  0.00    +0.000 C 
ATOM     24  O   UNL     1      -0.336  12.568  18.458  0.00  0.00    +0.000 OA
ATOM     25  C   UNL     1       0.389  10.082  19.645  0.00  0.00    +0.000 A 
ATOM     26  C   UNL     1       0.582   9.997  18.260  0.00  0.00    +0.000 A 
ATOM     27  C   UNL     1       1.454   9.057  17.707  0.00  0.00    +0.000 A 
ATOM     28  C   UNL     1       2.142   8.176  18.531  0.00  0.00    +0.000 A 
ATOM     29  C   UNL     1       1.946   8.221  19.909  0.00  0.00    +0.000 A 
ATOM     30  C   UNL     1       1.066   9.156  20.460  0.00  0.00    +0.000 A 
ATOM     31  N   UNL     1       0.919   9.174  21.851  0.00  0.00    +0.000 N 
ATOM     32  H   UNL     1       1.483   8.574  22.438  0.00  0.00    +0.000 HD
ENDBRANCH  18  23
ENDBRANCH   1  18
TORSDOF 2
ENDMDL
