MODEL 1
REMARK VINA RESULT:      -8.6      0.000      0.000
REMARK  Name = 
REMARK  5 active torsions:
REMARK  status: ('A' for Active; 'I' for Inactive)
REMARK    1  A    between atoms: C_2  and  C_14
REMARK    2  A    between atoms: N_3  and  C_4
REMARK    3  A    between atoms: C_4  and  C_5
REMARK    4  A    between atoms: C_19  and  S_20
REMARK    5  A    between atoms: S_20  and  N_23
REMARK                            x       y       z     vdW  Elec       q    Type
REMARK                         _______ _______ _______ _____ _____    ______ ____
ROOT
ATOM      1  C   UNL     1       2.014   6.584  19.381  0.00  0.00    +0.000 A 
ATOM      2  C   UNL     1       1.737   6.336  20.719  0.00  0.00    +0.000 A 
ATOM      3  C   UNL     1       1.937   5.072  21.226  0.00  0.00    +0.000 A 
ATOM      4  C   UNL     1       2.436   4.040  20.414  0.00  0.00    +0.000 A 
ATOM      5 CL   UNL     1       2.790   2.627  21.339  0.00  0.00    +0.000 Cl
ATOM      6  C   UNL     1       2.691   4.285  19.052  0.00  0.00    +0.000 A 
ATOM      7  C   UNL     1       2.441   5.566  18.535  0.00  0.00    +0.000 A 
ENDROOT
BRANCH   1   9
ATOM      8  O   UNL     1       2.553   8.334  17.959  0.00  0.00    +0.000 OA
ATOM      9  C   UNL     1       1.928   7.981  18.952  0.00  0.00    +0.000 C 
ATOM     10  N   UNL     1       1.155   8.815  19.711  0.00  0.00    +0.000 N 
ATOM     11  H   UNL     1       0.939   8.572  20.673  0.00  0.00    +0.000 HD
BRANCH  10  12
ATOM     12  C   UNL     1       1.123  10.201  19.332  0.00  0.00    +0.000 C 
BRANCH  12  13
ATOM     13  C   UNL     1      -0.230  10.562  18.853  0.00  0.00    +0.000 A 
ATOM     14  C   UNL     1      -1.183  11.356  19.464  0.00  0.00    +0.000 A 
ATOM     15  N   UNL     1      -2.280  11.313  18.643  0.00  0.00    +0.000 N 
ATOM     16  C   UNL     1      -3.528  11.910  18.793  0.00  0.00    +0.000 A 
ATOM     17  C   UNL     1      -4.469  11.701  17.857  0.00  0.00    +0.000 A 
ATOM     18  C   UNL     1      -4.150  10.858  16.713  0.00  0.00    +0.000 A 
ATOM     19  C   UNL     1      -2.935  10.293  16.571  0.00  0.00    +0.000 A 
ATOM     20  C   UNL     1      -1.938  10.509  17.562  0.00  0.00    +0.000 A 
ATOM     21  N   UNL     1      -0.705  10.062  17.660  0.00  0.00    +0.000 NA
ENDBRANCH  12  13
ENDBRANCH  10  12
ENDBRANCH   1   9
BRANCH   6  22
ATOM     22  S   UNL     1       3.169   3.083  17.821  0.00  0.00    +0.000 S 
ATOM     23  O   UNL     1       3.313   1.820  18.454  0.00  0.00    +0.000 OA
ATOM     24  O   UNL     1       2.229   3.250  16.705  0.00  0.00    +0.000 OA
BRANCH  22  25
ATOM     25  N   UNL     1       4.717   3.577  17.232  0.00  0.00    +0.000 NA
ATOM     26  C   UNL     1       4.769   3.994  15.816  0.00  0.00    +0.000 C 
ATOM     27  C   UNL     1       6.112   3.926  15.114  0.00  0.00    +0.000 C 
ATOM     28  C   UNL     1       7.118   4.974  15.550  0.00  0.00    +0.000 C 
ATOM     29  C   UNL     1       7.694   4.714  16.931  0.00  0.00    +0.000 C 
ATOM     30  C   UNL     1       6.714   5.051  18.036  0.00  0.00    +0.000 C 
ATOM     31  C   UNL     1       5.636   4.021  18.307  0.00  0.00    +0.000 C 
ENDBRANCH  22  25
ENDBRANCH   6  22
TORSDOF 5
ENDMDL
MODEL 2
REMARK VINA RESULT:      -8.5      0.721      1.373
REMARK  Name = 
REMARK  5 active torsions:
REMARK  status: ('A' for Active; 'I' for Inactive)
REMARK    1  A    between atoms: C_2  and  C_14
REMARK    2  A    between atoms: N_3  and  C_4
REMARK    3  A    between atoms: C_4  and  C_5
REMARK    4  A    between atoms: C_19  and  S_20
REMARK    5  A    between atoms: S_20  and  N_23
REMARK                            x       y       z     vdW  Elec       q    Type
REMARK                         _______ _______ _______ _____ _____    ______ ____
ROOT
ATOM      1  C   UNL     1       2.225   6.457  19.466  0.00  0.00    +0.000 A 
ATOM      2  C   UNL     1       1.433   6.179  20.573  0.00  0.00    +0.000 A 
ATOM      3  C   UNL     1       1.544   4.953  21.189  0.00  0.00    +0.000 A 
ATOM      4  C   UNL     1       2.460   3.994  20.728  0.00  0.00    +0.000 A 
ATOM      5 CL   UNL     1       2.547   2.642  21.797  0.00  0.00    +0.000 Cl
ATOM      6  C   UNL     1       3.244   4.266  19.591  0.00  0.00    +0.000 A 
ATOM      7  C   UNL     1       3.091   5.502  18.942  0.00  0.00    +0.000 A 
ENDROOT
BRANCH   1   9
ATOM      8  O   UNL     1       2.858   8.134  17.994  0.00  0.00    +0.000 OA
ATOM      9  C   UNL     1       2.168   7.830  18.960  0.00  0.00    +0.000 C 
ATOM     10  N   UNL     1       1.344   8.699  19.621  0.00  0.00    +0.000 N 
ATOM     11  H   UNL     1       1.064   8.506  20.577  0.00  0.00    +0.000 HD
BRANCH  10  12
ATOM     12  C   UNL     1       1.338  10.063  19.169  0.00  0.00    +0.000 C 
BRANCH  12  13
ATOM     13  C   UNL     1      -0.029  10.450  18.751  0.00  0.00    +0.000 A 
ATOM     14  C   UNL     1      -0.923  11.295  19.383  0.00  0.00    +0.000 A 
ATOM     15  N   UNL     1      -2.064  11.257  18.626  0.00  0.00    +0.000 N 
ATOM     16  C   UNL     1      -3.284  11.899  18.821  0.00  0.00    +0.000 A 
ATOM     17  C   UNL     1      -4.282  11.686  17.946  0.00  0.00    +0.000 A 
ATOM     18  C   UNL     1      -4.052  10.791  16.820  0.00  0.00    +0.000 A 
ATOM     19  C   UNL     1      -2.865  10.182  16.634  0.00  0.00    +0.000 A 
ATOM     20  C   UNL     1      -1.808  10.403  17.559  0.00  0.00    +0.000 A 
ATOM     21  N   UNL     1      -0.585   9.921  17.607  0.00  0.00    +0.000 NA
ENDBRANCH  12  13
ENDBRANCH  10  12
ENDBRANCH   1   9
BRANCH   6  22
ATOM     22  S   UNL     1       4.341   3.135  18.752  0.00  0.00    +0.000 S 
ATOM     23  O   UNL     1       5.287   2.642  19.690  0.00  0.00    +0.000 OA
ATOM     24  O   UNL     1       3.477   2.206  18.012  0.00  0.00    +0.000 OA
BRANCH  22  25
ATOM     25  N   UNL     1       5.185   4.065  17.564  0.00  0.00    +0.000 NA
ATOM     26  C   UNL     1       6.448   4.690  18.009  0.00  0.00    +0.000 C 
ATOM     27  C   UNL     1       6.942   5.898  17.234  0.00  0.00    +0.000 C 
ATOM     28  C   UNL     1       7.478   5.595  15.848  0.00  0.00    +0.000 C 
ATOM     29  C   UNL     1       6.389   5.252  14.847  0.00  0.00    +0.000 C 
ATOM     30  C   UNL     1       5.842   3.853  15.048  0.00  0.00    +0.000 C 
ATOM     31  C   UNL     1       4.840   3.686  16.173  0.00  0.00    +0.000 C 
ENDBRANCH  22  25
ENDBRANCH   6  22
TORSDOF 5
ENDMDL
MODEL 3
REMARK VINA RESULT:      -8.2      2.306      3.059
REMARK  Name = 
REMARK  5 active torsions:
REMARK  status: ('A' for Active; 'I' for Inactive)
REMARK    1  A    between atoms: C_2  and  C_14
REMARK    2  A    between atoms: N_3  and  C_4
REMARK    3  A    between atoms: C_4  and  C_5
REMARK    4  A    between atoms: C_19  and  S_20
REMARK    5  A    between atoms: S_20  and  N_23
REMARK                            x       y       z     vdW  Elec       q    Type
REMARK                         _______ _______ _______ _____ _____    ______ ____
ROOT
ATOM      1  C   UNL     1       2.275   6.631  19.318  0.00  0.00    +0.000 A 
ATOM      2  C   UNL     1       1.440   6.413  20.406  0.00  0.00    +0.000 A 
ATOM      3  C   UNL     1       1.500   5.209  21.070  0.00  0.00    +0.000 A 
ATOM      4  C   UNL     1       2.408   4.212  20.677  0.00  0.00    +0.000 A 
ATOM      5 CL   UNL     1       2.426   2.900  21.797  0.00  0.00    +0.000 Cl
ATOM      6  C   UNL     1       3.236   4.424  19.559  0.00  0.00    +0.000 A 
ATOM      7  C   UNL     1       3.135   5.638  18.860  0.00  0.00    +0.000 A 
ENDROOT
BRANCH   1   9
ATOM      8  O   UNL     1       3.004   8.238  17.813  0.00  0.00    +0.000 OA
ATOM      9  C   UNL     1       2.269   7.985  18.760  0.00  0.00    +0.000 C 
ATOM     10  N   UNL     1       1.439   8.895  19.355  0.00  0.00    +0.000 N 
ATOM     11  H   UNL     1       1.116   8.743  20.305  0.00  0.00    +0.000 HD
BRANCH  10  12
ATOM     12  C   UNL     1       1.480  10.241  18.854  0.00  0.00    +0.000 C 
BRANCH  12  13
ATOM     13  C   UNL     1       0.859  11.163  19.832  0.00  0.00    +0.000 A 
ATOM     14  C   UNL     1       1.124  12.502  20.050  0.00  0.00    +0.000 A 
ATOM     15  N   UNL     1       0.332  12.867  21.107  0.00  0.00    +0.000 N 
ATOM     16  C   UNL     1       0.222  14.094  21.756  0.00  0.00    +0.000 A 
ATOM     17  C   UNL     1      -0.616  14.208  22.801  0.00  0.00    +0.000 A 
ATOM     18  C   UNL     1      -1.385  13.043  23.218  0.00  0.00    +0.000 A 
ATOM     19  C   UNL     1      -1.279  11.863  22.576  0.00  0.00    +0.000 A 
ATOM     20  C   UNL     1      -0.392  11.737  21.473  0.00  0.00    +0.000 A 
ATOM     21  N   UNL     1      -0.102  10.708  20.708  0.00  0.00    +0.000 NA
ENDBRANCH  12  13
ENDBRANCH  10  12
ENDBRANCH   1   9
BRANCH   6  22
ATOM     22  S   UNL     1       4.333   3.237  18.800  0.00  0.00    +0.000 S 
ATOM     23  O   UNL     1       5.274   2.804  19.774  0.00  0.00    +0.000 OA
ATOM     24  O   UNL     1       3.470   2.264  18.119  0.00  0.00    +0.000 OA
BRANCH  22  25
ATOM     25  N   UNL     1       5.186   4.085  17.559  0.00  0.00    +0.000 NA
ATOM     26  C   UNL     1       6.512   4.618  17.931  0.00  0.00    +0.000 C 
ATOM     27  C   UNL     1       7.057   5.774  17.114  0.00  0.00    +0.000 C 
ATOM     28  C   UNL     1       7.499   5.414  15.708  0.00  0.00    +0.000 C 
ATOM     29  C   UNL     1       6.340   5.142  14.767  0.00  0.00    +0.000 C 
ATOM     30  C   UNL     1       5.699   3.792  15.017  0.00  0.00    +0.000 C 
ATOM     31  C   UNL     1       4.744   3.716  16.192  0.00  0.00    +0.000 C 
ENDBRANCH  22  25
ENDBRANCH   6  22
TORSDOF 5
ENDMDL
MODEL 4
REMARK VINA RESULT:      -8.2      1.542      2.035
REMARK  Name = 
REMARK  5 active torsions:
REMARK  status: ('A' for Active; 'I' for Inactive)
REMARK    1  A    between atoms: C_2  and  C_14
REMARK    2  A    between atoms: N_3  and  C_4
REMARK    3  A    between atoms: C_4  and  C_5
REMARK    4  A    between atoms: C_19  and  S_20
REMARK    5  A    between atoms: S_20  and  N_23
REMARK                            x       y       z     vdW  Elec       q    Type
REMARK                         _______ _______ _______ _____ _____    ______ ____
ROOT
ATOM      1  C   UNL     1       1.955   7.213  18.994  0.00  0.00    +0.000 A 
ATOM      2  C   UNL     1       1.534   7.202  20.317  0.00  0.00    +0.000 A 
ATOM      3  C   UNL     1       1.578   6.025  21.029  0.00  0.00    +0.000 A 
ATOM      4  C   UNL     1       2.063   4.845  20.441  0.00  0.00    +0.000 A 
ATOM      5 CL   UNL     1       2.209   3.577  21.604  0.00  0.00    +0.000 Cl
ATOM      6  C   UNL     1       2.465   4.850  19.093  0.00  0.00    +0.000 A 
ATOM      7  C   UNL     1       2.373   6.046  18.363  0.00  0.00    +0.000 A 
ENDROOT
BRANCH   1   9
ATOM      8  O   UNL     1       2.611   8.628  17.277  0.00  0.00    +0.000 OA
ATOM      9  C   UNL     1       2.028   8.526  18.350  0.00  0.00    +0.000 C 
ATOM     10  N   UNL     1       1.442   9.571  19.010  0.00  0.00    +0.000 N 
ATOM     11  H   UNL     1       1.275   9.512  20.009  0.00  0.00    +0.000 HD
BRANCH  10  12
ATOM     12  C   UNL     1       1.571  10.873  18.414  0.00  0.00    +0.000 C 
BRANCH  12  13
ATOM     13  C   UNL     1       0.548  11.787  18.973  0.00  0.00    +0.000 A 
ATOM     14  C   UNL     1       0.710  13.064  19.477  0.00  0.00    +0.000 A 
ATOM     15  N   UNL     1      -0.527  13.441  19.928  0.00  0.00    +0.000 N 
ATOM     16  C   UNL     1      -0.926  14.620  20.553  0.00  0.00    +0.000 A 
ATOM     17  C   UNL     1      -2.208  14.755  20.936  0.00  0.00    +0.000 A 
ATOM     18  C   UNL     1      -3.138  13.663  20.681  0.00  0.00    +0.000 A 
ATOM     19  C   UNL     1      -2.744  12.531  20.067  0.00  0.00    +0.000 A 
ATOM     20  C   UNL     1      -1.389  12.383  19.663  0.00  0.00    +0.000 A 
ATOM     21  N   UNL     1      -0.766  11.386  19.074  0.00  0.00    +0.000 NA
ENDBRANCH  12  13
ENDBRANCH  10  12
ENDBRANCH   1   9
BRANCH   6  22
ATOM     22  S   UNL     1       2.954   3.438  18.117  0.00  0.00    +0.000 S 
ATOM     23  O   UNL     1       2.975   2.292  18.958  0.00  0.00    +0.000 OA
ATOM     24  O   UNL     1       2.108   3.461  16.917  0.00  0.00    +0.000 OA
BRANCH  22  25
ATOM     25  N   UNL     1       4.568   3.749  17.582  0.00  0.00    +0.000 NA
ATOM     26  C   UNL     1       4.726   4.064  16.147  0.00  0.00    +0.000 C 
ATOM     27  C   UNL     1       6.089   3.828  15.524  0.00  0.00    +0.000 C 
ATOM     28  C   UNL     1       7.166   4.808  15.947  0.00  0.00    +0.000 C 
ATOM     29  C   UNL     1       7.649   4.590  17.370  0.00  0.00    +0.000 C 
ATOM     30  C   UNL     1       6.654   5.088  18.398  0.00  0.00    +0.000 C 
ATOM     31  C   UNL     1       5.472   4.179  18.675  0.00  0.00    +0.000 C 
ENDBRANCH  22  25
ENDBRANCH   6  22
TORSDOF 5
ENDMDL
MODEL 5
REMARK VINA RESULT:      -8.1      0.735      1.377
REMARK  Name = 
REMARK  5 active torsions:
REMARK  status: ('A' for Active; 'I' for Inactive)
REMARK    1  A    between atoms: C_2  and  C_14
REMARK    2  A    between atoms: N_3  and  C_4
REMARK    3  A    between atoms: C_4  and  C_5
REMARK    4  A    between atoms: C_19  and  S_20
REMARK    5  A    between atoms: S_20  and  N_23
REMARK                            x       y       z     vdW  Elec       q    Type
REMARK                         _______ _______ _______ _____ _____    ______ ____
ROOT
ATOM      1  C   UNL     1       1.970   6.611  19.342  0.00  0.00    +0.000 A 
ATOM      2  C   UNL     1       1.708   6.374  20.685  0.00  0.00    +0.000 A 
ATOM      3  C   UNL     1       1.923   5.117  21.202  0.00  0.00    +0.000 A 
ATOM      4  C   UNL     1       2.423   4.081  20.395  0.00  0.00    +0.000 A 
ATOM      5 CL   UNL     1       2.798   2.680  21.331  0.00  0.00    +0.000 Cl
ATOM      6  C   UNL     1       2.663   4.314  19.028  0.00  0.00    +0.000 A 
ATOM      7  C   UNL     1       2.398   5.588  18.501  0.00  0.00    +0.000 A 
ENDROOT
BRANCH   1   9
ATOM      8  O   UNL     1       2.388   8.325  17.837  0.00  0.00    +0.000 OA
ATOM      9  C   UNL     1       1.869   8.003  18.899  0.00  0.00    +0.000 C 
ATOM     10  N   UNL     1       1.204   8.867  19.724  0.00  0.00    +0.000 N 
ATOM     11  H   UNL     1       1.090   8.644  20.708  0.00  0.00    +0.000 HD
BRANCH  10  12
ATOM     12  C   UNL     1       1.161  10.247  19.326  0.00  0.00    +0.000 C 
BRANCH  12  13
ATOM     13  C   UNL     1      -0.240  10.723  19.303  0.00  0.00    +0.000 A 
ATOM     14  C   UNL     1      -1.232  10.455  18.378  0.00  0.00    +0.000 A 
ATOM     15  N   UNL     1      -2.317  11.191  18.777  0.00  0.00    +0.000 N 
ATOM     16  C   UNL     1      -3.574  11.315  18.190  0.00  0.00    +0.000 A 
ATOM     17  C   UNL     1      -4.482  12.128  18.757  0.00  0.00    +0.000 A 
ATOM     18  C   UNL     1      -4.121  12.851  19.969  0.00  0.00    +0.000 A 
ATOM     19  C   UNL     1      -2.905  12.717  20.534  0.00  0.00    +0.000 A 
ATOM     20  C   UNL     1      -1.941  11.860  19.936  0.00  0.00    +0.000 A 
ATOM     21  N   UNL     1      -0.703  11.579  20.278  0.00  0.00    +0.000 NA
ENDBRANCH  12  13
ENDBRANCH  10  12
ENDBRANCH   1   9
BRANCH   6  22
ATOM     22  S   UNL     1       3.139   3.104  17.805  0.00  0.00    +0.000 S 
ATOM     23  O   UNL     1       3.260   1.840  18.442  0.00  0.00    +0.000 OA
ATOM     24  O   UNL     1       2.213   3.281  16.678  0.00  0.00    +0.000 OA
BRANCH  22  25
ATOM     25  N   UNL     1       4.699   3.577  17.232  0.00  0.00    +0.000 NA
ATOM     26  C   UNL     1       4.767   4.017  15.823  0.00  0.00    +0.000 C 
ATOM     27  C   UNL     1       6.112   3.934  15.127  0.00  0.00    +0.000 C 
ATOM     28  C   UNL     1       7.136   4.955  15.586  0.00  0.00    +0.000 C 
ATOM     29  C   UNL     1       7.700   4.659  16.965  0.00  0.00    +0.000 C 
ATOM     30  C   UNL     1       6.722   4.997  18.071  0.00  0.00    +0.000 C 
ATOM     31  C   UNL     1       5.621   3.983  18.320  0.00  0.00    +0.000 C 
ENDBRANCH  22  25
ENDBRANCH   6  22
TORSDOF 5
ENDMDL
MODEL 6
REMARK VINA RESULT:      -8.1      1.608      2.272
REMARK  Name = 
REMARK  5 active torsions:
REMARK  status: ('A' for Active; 'I' for Inactive)
REMARK    1  A    between atoms: C_2  and  C_14
REMARK    2  A    between atoms: N_3  and  C_4
REMARK    3  A    between atoms: C_4  and  C_5
REMARK    4  A    between atoms: C_19  and  S_20
REMARK    5  A    between atoms: S_20  and  N_23
REMARK                            x       y       z     vdW  Elec       q    Type
REMARK                         _______ _______ _______ _____ _____    ______ ____
ROOT
ATOM      1  C   UNL     1       1.993   6.608  19.395  0.00  0.00    +0.000 A 
ATOM      2  C   UNL     1       1.735   6.339  20.733  0.00  0.00    +0.000 A 
ATOM      3  C   UNL     1       1.933   5.064  21.214  0.00  0.00    +0.000 A 
ATOM      4  C   UNL     1       2.412   4.044  20.377  0.00  0.00    +0.000 A 
ATOM      5 CL   UNL     1       2.770   2.612  21.272  0.00  0.00    +0.000 Cl
ATOM      6  C   UNL     1       2.649   4.310  19.015  0.00  0.00    +0.000 A 
ATOM      7  C   UNL     1       2.400   5.602  18.524  0.00  0.00    +0.000 A 
ENDROOT
BRANCH   1   9
ATOM      8  O   UNL     1       2.429   8.356  17.935  0.00  0.00    +0.000 OA
ATOM      9  C   UNL     1       1.911   8.013  18.991  0.00  0.00    +0.000 C 
ATOM     10  N   UNL     1       1.263   8.864  19.843  0.00  0.00    +0.000 N 
ATOM     11  H   UNL     1       1.151   8.616  20.821  0.00  0.00    +0.000 HD
BRANCH  10  12
ATOM     12  C   UNL     1       1.240  10.255  19.483  0.00  0.00    +0.000 C 
BRANCH  12  13
ATOM     13  C   UNL     1       0.089  10.925  20.131  0.00  0.00    +0.000 A 
ATOM     14  C   UNL     1      -0.843  11.781  19.572  0.00  0.00    +0.000 A 
ATOM     15  N   UNL     1      -1.649  12.174  20.608  0.00  0.00    +0.000 N 
ATOM     16  C   UNL     1      -2.729  13.052  20.612  0.00  0.00    +0.000 A 
ATOM     17  C   UNL     1      -3.360  13.308  21.771  0.00  0.00    +0.000 A 
ATOM     18  C   UNL     1      -2.892  12.654  22.986  0.00  0.00    +0.000 A 
ATOM     19  C   UNL     1      -1.852  11.798  22.970  0.00  0.00    +0.000 A 
ATOM     20  C   UNL     1      -1.181  11.527  21.747  0.00  0.00    +0.000 A 
ATOM     21  N   UNL     1      -0.149  10.759  21.478  0.00  0.00    +0.000 NA
ENDBRANCH  12  13
ENDBRANCH  10  12
ENDBRANCH   1   9
BRANCH   6  22
ATOM     22  S   UNL     1       3.099   3.127  17.756  0.00  0.00    +0.000 S 
ATOM     23  O   UNL     1       3.185   1.841  18.355  0.00  0.00    +0.000 OA
ATOM     24  O   UNL     1       2.184   3.362  16.632  0.00  0.00    +0.000 OA
BRANCH  22  25
ATOM     25  N   UNL     1       4.674   3.577  17.205  0.00  0.00    +0.000 NA
ATOM     26  C   UNL     1       4.772   3.987  15.789  0.00  0.00    +0.000 C 
ATOM     27  C   UNL     1       6.131   3.881  15.122  0.00  0.00    +0.000 C 
ATOM     28  C   UNL     1       7.152   4.904  15.579  0.00  0.00    +0.000 C 
ATOM     29  C   UNL     1       7.687   4.634  16.975  0.00  0.00    +0.000 C 
ATOM     30  C   UNL     1       6.689   5.001  18.054  0.00  0.00    +0.000 C 
ATOM     31  C   UNL     1       5.577   4.001  18.302  0.00  0.00    +0.000 C 
ENDBRANCH  22  25
ENDBRANCH   6  22
TORSDOF 5
ENDMDL
MODEL 7
REMARK VINA RESULT:      -8.0      1.668      2.164
REMARK  Name = 
REMARK  5 active torsions:
REMARK  status: ('A' for Active; 'I' for Inactive)
REMARK    1  A    between atoms: C_2  and  C_14
REMARK    2  A    between atoms: N_3  and  C_4
REMARK    3  A    between atoms: C_4  and  C_5
REMARK    4  A    between atoms: C_19  and  S_20
REMARK    5  A    between atoms: S_20  and  N_23
REMARK                            x       y       z     vdW  Elec       q    Type
REMARK                         _______ _______ _______ _____ _____    ______ ____
ROOT
ATOM      1  C   UNL     1       1.959   6.624  19.409  0.00  0.00    +0.000 A 
ATOM      2  C   UNL     1       1.687   6.334  20.740  0.00  0.00    +0.000 A 
ATOM      3  C   UNL     1       1.877   5.051  21.202  0.00  0.00    +0.000 A 
ATOM      4  C   UNL     1       2.361   4.043  20.352  0.00  0.00    +0.000 A 
ATOM      5 CL   UNL     1       2.707   2.596  21.227  0.00  0.00    +0.000 Cl
ATOM      6  C   UNL     1       2.612   4.331  18.997  0.00  0.00    +0.000 A 
ATOM      7  C   UNL     1       2.372   5.632  18.526  0.00  0.00    +0.000 A 
ENDROOT
BRANCH   1   9
ATOM      8  O   UNL     1       2.534   8.424  18.064  0.00  0.00    +0.000 OA
ATOM      9  C   UNL     1       1.885   8.036  19.028  0.00  0.00    +0.000 C 
ATOM     10  N   UNL     1       1.093   8.844  19.797  0.00  0.00    +0.000 N 
ATOM     11  H   UNL     1       0.853   8.567  20.744  0.00  0.00    +0.000 HD
BRANCH  10  12
ATOM     12  C   UNL     1       1.072  10.242  19.467  0.00  0.00    +0.000 C 
BRANCH  12  13
ATOM     13  C   UNL     1       0.026  10.931  20.258  0.00  0.00    +0.000 A 
ATOM     14  C   UNL     1      -0.213  10.871  21.619  0.00  0.00    +0.000 A 
ATOM     15  N   UNL     1      -1.332  11.632  21.830  0.00  0.00    +0.000 N 
ATOM     16  C   UNL     1      -2.023  11.891  23.011  0.00  0.00    +0.000 A 
ATOM     17  C   UNL     1      -3.126  12.658  22.967  0.00  0.00    +0.000 A 
ATOM     18  C   UNL     1      -3.560  13.197  21.685  0.00  0.00    +0.000 A 
ATOM     19  C   UNL     1      -2.878  12.949  20.550  0.00  0.00    +0.000 A 
ATOM     20  C   UNL     1      -1.713  12.135  20.591  0.00  0.00    +0.000 A 
ATOM     21  N   UNL     1      -0.900  11.740  19.637  0.00  0.00    +0.000 NA
ENDBRANCH  12  13
ENDBRANCH  10  12
ENDBRANCH   1   9
BRANCH   6  22
ATOM     22  S   UNL     1       3.070   3.168  17.723  0.00  0.00    +0.000 S 
ATOM     23  O   UNL     1       3.125   1.869  18.296  0.00  0.00    +0.000 OA
ATOM     24  O   UNL     1       2.182   3.441  16.586  0.00  0.00    +0.000 OA
BRANCH  22  25
ATOM     25  N   UNL     1       4.663   3.606  17.213  0.00  0.00    +0.000 NA
ATOM     26  C   UNL     1       4.807   3.986  15.794  0.00  0.00    +0.000 C 
ATOM     27  C   UNL     1       6.186   3.865  15.173  0.00  0.00    +0.000 C 
ATOM     28  C   UNL     1       7.194   4.896  15.642  0.00  0.00    +0.000 C 
ATOM     29  C   UNL     1       7.683   4.654  17.059  0.00  0.00    +0.000 C 
ATOM     30  C   UNL     1       6.652   5.044  18.098  0.00  0.00    +0.000 C 
ATOM     31  C   UNL     1       5.531   4.050  18.330  0.00  0.00    +0.000 C 
ENDBRANCH  22  25
ENDBRANCH   6  22
TORSDOF 5
ENDMDL
MODEL 8
REMARK VINA RESULT:      -8.0      2.364      3.188
REMARK  Name = 
REMARK  5 active torsions:
REMARK  status: ('A' for Active; 'I' for Inactive)
REMARK    1  A    between atoms: C_2  and  C_14
REMARK    2  A    between atoms: N_3  and  C_4
REMARK    3  A    between atoms: C_4  and  C_5
REMARK    4  A    between atoms: C_19  and  S_20
REMARK    5  A    between atoms: S_20  and  N_23
REMARK                            x       y       z     vdW  Elec       q    Type
REMARK                         _______ _______ _______ _____ _____    ______ ____
ROOT
ATOM      1  C   UNL     1       2.041   7.172  18.946  0.00  0.00    +0.000 A 
ATOM      2  C   UNL     1       1.589   7.198  20.259  0.00  0.00    +0.000 A 
ATOM      3  C   UNL     1       1.604   6.038  21.000  0.00  0.00    +0.000 A 
ATOM      4  C   UNL     1       2.088   4.839  20.452  0.00  0.00    +0.000 A 
ATOM      5 CL   UNL     1       2.192   3.598  21.648  0.00  0.00    +0.000 Cl
ATOM      6  C   UNL     1       2.521   4.806  19.113  0.00  0.00    +0.000 A 
ATOM      7  C   UNL     1       2.460   5.985  18.353  0.00  0.00    +0.000 A 
ENDROOT
BRANCH   1   9
ATOM      8  O   UNL     1       2.779   8.543  17.227  0.00  0.00    +0.000 OA
ATOM      9  C   UNL     1       2.144   8.468  18.272  0.00  0.00    +0.000 C 
ATOM     10  N   UNL     1       1.525   9.528  18.875  0.00  0.00    +0.000 N 
ATOM     11  H   UNL     1       1.310   9.495  19.866  0.00  0.00    +0.000 HD
BRANCH  10  12
ATOM     12  C   UNL     1       1.682  10.814  18.252  0.00  0.00    +0.000 C 
BRANCH  12  13
ATOM     13  C   UNL     1       1.444  11.888  19.244  0.00  0.00    +0.000 A 
ATOM     14  C   UNL     1       0.576  11.897  20.320  0.00  0.00    +0.000 A 
ATOM     15  N   UNL     1       0.687  13.146  20.872  0.00  0.00    +0.000 N 
ATOM     16  C   UNL     1       0.018  13.702  21.959  0.00  0.00    +0.000 A 
ATOM     17  C   UNL     1       0.278  14.974  22.306  0.00  0.00    +0.000 A 
ATOM     18  C   UNL     1       1.256  15.729  21.533  0.00  0.00    +0.000 A 
ATOM     19  C   UNL     1       1.905  15.179  20.489  0.00  0.00    +0.000 A 
ATOM     20  C   UNL     1       1.631  13.834  20.118  0.00  0.00    +0.000 A 
ATOM     21  N   UNL     1       2.110  13.090  19.146  0.00  0.00    +0.000 NA
ENDBRANCH  12  13
ENDBRANCH  10  12
ENDBRANCH   1   9
BRANCH   6  22
ATOM     22  S   UNL     1       3.015   3.365  18.183  0.00  0.00    +0.000 S 
ATOM     23  O   UNL     1       3.097   2.259  19.073  0.00  0.00    +0.000 OA
ATOM     24  O   UNL     1       2.127   3.312  17.015  0.00  0.00    +0.000 OA
BRANCH  22  25
ATOM     25  N   UNL     1       4.600   3.695  17.578  0.00  0.00    +0.000 NA
ATOM     26  C   UNL     1       4.689   4.019  16.139  0.00  0.00    +0.000 C 
ATOM     27  C   UNL     1       6.024   3.800  15.454  0.00  0.00    +0.000 C 
ATOM     28  C   UNL     1       7.111   4.788  15.833  0.00  0.00    +0.000 C 
ATOM     29  C   UNL     1       7.660   4.566  17.231  0.00  0.00    +0.000 C 
ATOM     30  C   UNL     1       6.708   5.048  18.307  0.00  0.00    +0.000 C 
ATOM     31  C   UNL     1       5.549   4.127  18.632  0.00  0.00    +0.000 C 
ENDBRANCH  22  25
ENDBRANCH   6  22
TORSDOF 5
ENDMDL
MODEL 9
REMARK VINA RESULT:      -8.0      1.834      2.302
REMARK  Name = 
REMARK  5 active torsions:
REMARK  status: ('A' for Active; 'I' for Inactive)
REMARK    1  A    between atoms: C_2  and  C_14
REMARK    2  A    between atoms: N_3  and  C_4
REMARK    3  A    between atoms: C_4  and  C_5
REMARK    4  A    between atoms: C_19  and  S_20
REMARK    5  A    between atoms: S_20  and  N_23
REMARK                            x       y       z     vdW  Elec       q    Type
REMARK                         _______ _______ _______ _____ _____    ______ ____
ROOT
ATOM      1  C   UNL     1       1.954   7.230  19.040  0.00  0.00    +0.000 A 
ATOM      2  C   UNL     1       1.559   7.222  20.372  0.00  0.00    +0.000 A 
ATOM      3  C   UNL     1       1.619   6.047  21.085  0.00  0.00    +0.000 A 
ATOM      4  C   UNL     1       2.094   4.866  20.491  0.00  0.00    +0.000 A 
ATOM      5 CL   UNL     1       2.265   3.602  21.653  0.00  0.00    +0.000 Cl
ATOM      6  C   UNL     1       2.469   4.868  19.134  0.00  0.00    +0.000 A 
ATOM      7  C   UNL     1       2.361   6.062  18.403  0.00  0.00    +0.000 A 
ENDROOT
BRANCH   1   9
ATOM      8  O   UNL     1       2.602   8.648  17.323  0.00  0.00    +0.000 OA
ATOM      9  C   UNL     1       2.012   8.542  18.391  0.00  0.00    +0.000 C 
ATOM     10  N   UNL     1       1.405   9.581  19.042  0.00  0.00    +0.000 N 
ATOM     11  H   UNL     1       1.231   9.523  20.040  0.00  0.00    +0.000 HD
BRANCH  10  12
ATOM     12  C   UNL     1       1.519  10.882  18.442  0.00  0.00    +0.000 C 
BRANCH  12  13
ATOM     13  C   UNL     1       0.592  11.826  19.106  0.00  0.00    +0.000 A 
ATOM     14  C   UNL     1      -0.510  11.550  19.895  0.00  0.00    +0.000 A 
ATOM     15  N   UNL     1      -1.059  12.768  20.199  0.00  0.00    +0.000 N 
ATOM     16  C   UNL     1      -2.197  13.070  20.943  0.00  0.00    +0.000 A 
ATOM     17  C   UNL     1      -2.561  14.356  21.086  0.00  0.00    +0.000 A 
ATOM     18  C   UNL     1      -1.749  15.392  20.460  0.00  0.00    +0.000 A 
ATOM     19  C   UNL     1      -0.645  15.090  19.751  0.00  0.00    +0.000 A 
ATOM     20  C   UNL     1      -0.258  13.730  19.595  0.00  0.00    +0.000 A 
ATOM     21  N   UNL     1       0.748  13.186  18.948  0.00  0.00    +0.000 NA
ENDBRANCH  12  13
ENDBRANCH  10  12
ENDBRANCH   1   9
BRANCH   6  22
ATOM     22  S   UNL     1       2.940   3.454  18.153  0.00  0.00    +0.000 S 
ATOM     23  O   UNL     1       2.954   2.306  18.991  0.00  0.00    +0.000 OA
ATOM     24  O   UNL     1       2.089   3.488  16.957  0.00  0.00    +0.000 OA
BRANCH  22  25
ATOM     25  N   UNL     1       4.554   3.752  17.611  0.00  0.00    +0.000 NA
ATOM     26  C   UNL     1       4.708   4.067  16.176  0.00  0.00    +0.000 C 
ATOM     27  C   UNL     1       6.066   3.820  15.546  0.00  0.00    +0.000 C 
ATOM     28  C   UNL     1       7.154   4.791  15.965  0.00  0.00    +0.000 C 
ATOM     29  C   UNL     1       7.642   4.566  17.386  0.00  0.00    +0.000 C 
ATOM     30  C   UNL     1       6.656   5.071  18.420  0.00  0.00    +0.000 C 
ATOM     31  C   UNL     1       5.467   4.172  18.701  0.00  0.00    +0.000 C 
ENDBRANCH  22  25
ENDBRANCH   6  22
TORSDOF 5
ENDMDL
