MODEL 1
REMARK VINA RESULT:      -8.0      0.000      0.000
REMARK  Name = 
REMARK  3 active torsions:
REMARK  status: ('A' for Active; 'I' for Inactive)
REMARK    1  A    between atoms: C_8  and  N_9
REMARK    2  A    between atoms: C_10  and  C_12
REMARK    3  A    between atoms: C_17  and  C_18
REMARK                            x       y       z     vdW  Elec       q    Type
REMARK                         _______ _______ _______ _____ _____    ______ ____
ROOT
ATOM      1  O   UNL     1      -2.998  11.751  23.472  0.00  0.00    +0.000 OA
ATOM      2  C   UNL     1      -2.074  12.023  22.699  0.00  0.00    +0.000 C 
ATOM      3  C   UNL     1      -0.845  11.108  22.555  0.00  0.00    +0.000 C 
ATOM      4  N   UNL     1       0.082  11.488  21.473  0.00  0.00    +0.000 N 
ATOM      5  C   UNL     1       0.644  10.539  20.645  0.00  0.00    +0.000 A 
ATOM      6  C   UNL     1       0.886   9.248  21.106  0.00  0.00    +0.000 A 
ATOM      7  C   UNL     1       1.464   8.289  20.275  0.00  0.00    +0.000 A 
ATOM      8  C   UNL     1       1.814   8.612  18.974  0.00  0.00    +0.000 A 
ATOM      9  C   UNL     1       1.538   9.917  18.581  0.00  0.00    +0.000 A 
ATOM     10  N   UNL     1       0.982  10.872  19.379  0.00  0.00    +0.000 NA
ATOM     11  C   UNL     1       0.175  12.905  21.140  0.00  0.00    +0.000 C 
ATOM     12  C   UNL     1      -1.226  13.454  20.879  0.00  0.00    +0.000 C 
ATOM     13  N   UNL     1      -2.123  13.194  21.987  0.00  0.00    +0.000 N 
ATOM     14  H   UNL     1      -2.997  13.696  22.065  0.00  0.00    +0.000 HD
ENDROOT
BRANCH   8  15
ATOM     15  N   UNL     1       2.418   7.694  18.073  0.00  0.00    +0.000 N 
ATOM     16  C   UNL     1       3.294   6.687  18.440  0.00  0.00    +0.000 C 
ATOM     17  O   UNL     1       3.721   6.464  19.568  0.00  0.00    +0.000 OA
ATOM     18  H   UNL     1       2.215   7.829  17.092  0.00  0.00    +0.000 HD
BRANCH  16  19
ATOM     19  C   UNL     1       3.869   5.837  17.367  0.00  0.00    +0.000 A 
ATOM     20  C   UNL     1       4.938   6.335  16.604  0.00  0.00    +0.000 A 
ATOM     21  C   UNL     1       5.692   5.474  15.805  0.00  0.00    +0.000 A 
ATOM     22  C   UNL     1       5.406   4.113  15.781  0.00  0.00    +0.000 A 
ATOM     23  C   UNL     1       4.317   3.621  16.499  0.00  0.00    +0.000 A 
ATOM     24  C   UNL     1       3.508   4.477  17.272  0.00  0.00    +0.000 A 
BRANCH  24  25
ATOM     25  C   UNL     1       2.299   3.871  17.949  0.00  0.00    +0.000 C 
ATOM     26  F   UNL     1       1.119   4.517  17.763  0.00  0.00    +0.000 F 
ATOM     27  F   UNL     1       2.064   2.609  17.465  0.00  0.00    +0.000 F 
ATOM     28  F   UNL     1       2.464   3.705  19.290  0.00  0.00    +0.000 F 
ENDBRANCH  24  25
ENDBRANCH  16  19
ENDBRANCH   8  15
TORSDOF 3
ENDMDL
MODEL 2
REMARK VINA RESULT:      -8.0      2.374      3.372
REMARK  Name = 
REMARK  3 active torsions:
REMARK  status: ('A' for Active; 'I' for Inactive)
REMARK    1  A    between atoms: C_8  and  N_9
REMARK    2  A    between atoms: C_10  and  C_12
REMARK    3  A    between atoms: C_17  and  C_18
REMARK                            x       y       z     vdW  Elec       q    Type
REMARK                         _______ _______ _______ _____ _____    ______ ____
ROOT
ATOM      1  O   UNL     1      -0.491  12.768  22.046  0.00  0.00    +0.000 OA
ATOM      2  C   UNL     1      -0.386  11.540  21.956  0.00  0.00    +0.000 C 
ATOM      3  C   UNL     1      -0.216  10.841  20.596  0.00  0.00    +0.000 C 
ATOM      4  N   UNL     1       0.062   9.395  20.676  0.00  0.00    +0.000 N 
ATOM      5  C   UNL     1       1.007   8.801  19.865  0.00  0.00    +0.000 A 
ATOM      6  C   UNL     1       1.278   9.312  18.599  0.00  0.00    +0.000 A 
ATOM      7  C   UNL     1       2.224   8.708  17.773  0.00  0.00    +0.000 A 
ATOM      8  C   UNL     1       2.907   7.580  18.200  0.00  0.00    +0.000 A 
ATOM      9  C   UNL     1       2.588   7.130  19.477  0.00  0.00    +0.000 A 
ATOM     10  N   UNL     1       1.661   7.700  20.297  0.00  0.00    +0.000 NA
ATOM     11  C   UNL     1      -0.495   8.670  21.813  0.00  0.00    +0.000 C 
ATOM     12  C   UNL     1      -0.096   9.378  23.106  0.00  0.00    +0.000 C 
ATOM     13  N   UNL     1      -0.471  10.778  23.093  0.00  0.00    +0.000 N 
ATOM     14  H   UNL     1      -0.491  11.309  23.954  0.00  0.00    +0.000 HD
ENDROOT
BRANCH   8  15
ATOM     15  N   UNL     1       3.873   6.902  17.411  0.00  0.00    +0.000 N 
ATOM     16  C   UNL     1       4.018   5.526  17.347  0.00  0.00    +0.000 C 
ATOM     17  O   UNL     1       3.385   4.694  17.988  0.00  0.00    +0.000 OA
ATOM     18  H   UNL     1       4.522   7.483  16.898  0.00  0.00    +0.000 HD
BRANCH  16  19
ATOM     19  C   UNL     1       5.108   4.978  16.501  0.00  0.00    +0.000 A 
ATOM     20  C   UNL     1       4.801   4.527  15.206  0.00  0.00    +0.000 A 
ATOM     21  C   UNL     1       5.822   4.290  14.284  0.00  0.00    +0.000 A 
ATOM     22  C   UNL     1       7.147   4.527  14.634  0.00  0.00    +0.000 A 
ATOM     23  C   UNL     1       7.461   4.929  15.931  0.00  0.00    +0.000 A 
ATOM     24  C   UNL     1       6.453   5.125  16.896  0.00  0.00    +0.000 A 
BRANCH  24  25
ATOM     25  C   UNL     1       6.891   5.479  18.300  0.00  0.00    +0.000 C 
ATOM     26  F   UNL     1       8.160   5.136  18.639  0.00  0.00    +0.000 F 
ATOM     27  F   UNL     1       6.857   6.838  18.481  0.00  0.00    +0.000 F 
ATOM     28  F   UNL     1       6.065   4.979  19.259  0.00  0.00    +0.000 F 
ENDBRANCH  24  25
ENDBRANCH  16  19
ENDBRANCH   8  15
TORSDOF 3
ENDMDL
MODEL 3
REMARK VINA RESULT:      -7.7      3.647      8.523
REMARK  Name = 
REMARK  3 active torsions:
REMARK  status: ('A' for Active; 'I' for Inactive)
REMARK    1  A    between atoms: C_8  and  N_9
REMARK    2  A    between atoms: C_10  and  C_12
REMARK    3  A    between atoms: C_17  and  C_18
REMARK                            x       y       z     vdW  Elec       q    Type
REMARK                         _______ _______ _______ _____ _____    ______ ____
ROOT
ATOM      1  O   UNL     1       5.039   1.641  20.672  0.00  0.00    +0.000 OA
ATOM      2  C   UNL     1       4.277   2.188  19.867  0.00  0.00    +0.000 C 
ATOM      3  C   UNL     1       3.240   3.232  20.317  0.00  0.00    +0.000 C 
ATOM      4  N   UNL     1       2.528   3.908  19.217  0.00  0.00    +0.000 N 
ATOM      5  C   UNL     1       2.290   5.266  19.246  0.00  0.00    +0.000 A 
ATOM      6  C   UNL     1       2.126   5.934  20.457  0.00  0.00    +0.000 A 
ATOM      7  C   UNL     1       1.875   7.304  20.488  0.00  0.00    +0.000 A 
ATOM      8  C   UNL     1       1.776   8.024  19.309  0.00  0.00    +0.000 A 
ATOM      9  C   UNL     1       1.956   7.293  18.139  0.00  0.00    +0.000 A 
ATOM     10  N   UNL     1       2.195   5.953  18.085  0.00  0.00    +0.000 NA
ATOM     11  C   UNL     1       2.324   3.149  17.989  0.00  0.00    +0.000 C 
ATOM     12  C   UNL     1       3.663   2.590  17.513  0.00  0.00    +0.000 C 
ATOM     13  N   UNL     1       4.324   1.820  18.547  0.00  0.00    +0.000 N 
ATOM     14  H   UNL     1       5.087   1.198  18.312  0.00  0.00    +0.000 HD
ENDROOT
BRANCH   8  15
ATOM     15  N   UNL     1       1.508   9.418  19.260  0.00  0.00    +0.000 N 
ATOM     16  C   UNL     1       0.470  10.048  19.926  0.00  0.00    +0.000 C 
ATOM     17  O   UNL     1      -0.396   9.508  20.606  0.00  0.00    +0.000 OA
ATOM     18  H   UNL     1       2.103   9.969  18.656  0.00  0.00    +0.000 HD
BRANCH  16  19
ATOM     19  C   UNL     1       0.306  11.511  19.737  0.00  0.00    +0.000 A 
ATOM     20  C   UNL     1       1.140  12.387  20.453  0.00  0.00    +0.000 A 
ATOM     21  C   UNL     1       1.225  13.731  20.089  0.00  0.00    +0.000 A 
ATOM     22  C   UNL     1       0.506  14.205  18.996  0.00  0.00    +0.000 A 
ATOM     23  C   UNL     1      -0.358  13.353  18.311  0.00  0.00    +0.000 A 
ATOM     24  C   UNL     1      -0.502  12.004  18.692  0.00  0.00    +0.000 A 
BRANCH  24  25
ATOM     25  C   UNL     1      -1.524  11.173  17.947  0.00  0.00    +0.000 C 
ATOM     26  F   UNL     1      -2.599  10.758  18.664  0.00  0.00    +0.000 F 
ATOM     27  F   UNL     1      -2.073  11.902  16.922  0.00  0.00    +0.000 F 
ATOM     28  F   UNL     1      -0.987  10.076  17.347  0.00  0.00    +0.000 F 
ENDBRANCH  24  25
ENDBRANCH  16  19
ENDBRANCH   8  15
TORSDOF 3
ENDMDL
MODEL 4
REMARK VINA RESULT:      -7.6      3.504      9.001
REMARK  Name = 
REMARK  3 active torsions:
REMARK  status: ('A' for Active; 'I' for Inactive)
REMARK    1  A    between atoms: C_8  and  N_9
REMARK    2  A    between atoms: C_10  and  C_12
REMARK    3  A    between atoms: C_17  and  C_18
REMARK                            x       y       z     vdW  Elec       q    Type
REMARK                         _______ _______ _______ _____ _____    ______ ____
ROOT
ATOM      1  O   UNL     1       5.196   4.296  14.949  0.00  0.00    +0.000 OA
ATOM      2  C   UNL     1       5.098   4.601  16.142  0.00  0.00    +0.000 C 
ATOM      3  C   UNL     1       4.754   6.035  16.584  0.00  0.00    +0.000 C 
ATOM      4  N   UNL     1       4.510   6.193  18.029  0.00  0.00    +0.000 N 
ATOM      5  C   UNL     1       3.471   6.970  18.500  0.00  0.00    +0.000 A 
ATOM      6  C   UNL     1       3.022   8.070  17.775  0.00  0.00    +0.000 A 
ATOM      7  C   UNL     1       1.981   8.863  18.253  0.00  0.00    +0.000 A 
ATOM      8  C   UNL     1       1.379   8.571  19.466  0.00  0.00    +0.000 A 
ATOM      9  C   UNL     1       1.876   7.455  20.132  0.00  0.00    +0.000 A 
ATOM     10  N   UNL     1       2.898   6.671  19.687  0.00  0.00    +0.000 NA
ATOM     11  C   UNL     1       5.227   5.297  18.929  0.00  0.00    +0.000 C 
ATOM     12  C   UNL     1       4.999   3.853  18.490  0.00  0.00    +0.000 C 
ATOM     13  N   UNL     1       5.348   3.651  17.098  0.00  0.00    +0.000 N 
ATOM     14  H   UNL     1       5.479   2.715  16.735  0.00  0.00    +0.000 HD
ENDROOT
BRANCH   8  15
ATOM     15  N   UNL     1       0.324   9.339  20.024  0.00  0.00    +0.000 N 
ATOM     16  C   UNL     1       0.327  10.719  20.145  0.00  0.00    +0.000 C 
ATOM     17  O   UNL     1       1.245  11.476  19.845  0.00  0.00    +0.000 OA
ATOM     18  H   UNL     1      -0.461   8.821  20.395  0.00  0.00    +0.000 HD
BRANCH  16  19
ATOM     19  C   UNL     1      -0.843  11.366  20.790  0.00  0.00    +0.000 A 
ATOM     20  C   UNL     1      -0.797  11.636  22.168  0.00  0.00    +0.000 A 
ATOM     21  C   UNL     1      -1.729  12.498  22.746  0.00  0.00    +0.000 A 
ATOM     22  C   UNL     1      -2.691  13.119  21.956  0.00  0.00    +0.000 A 
ATOM     23  C   UNL     1      -2.771  12.820  20.597  0.00  0.00    +0.000 A 
ATOM     24  C   UNL     1      -1.875  11.911  19.998  0.00  0.00    +0.000 A 
BRANCH  24  25
ATOM     25  C   UNL     1      -2.088  11.581  18.538  0.00  0.00    +0.000 C 
ATOM     26  F   UNL     1      -2.030  10.266  18.203  0.00  0.00    +0.000 F 
ATOM     27  F   UNL     1      -3.343  11.967  18.140  0.00  0.00    +0.000 F 
ATOM     28  F   UNL     1      -1.238  12.249  17.710  0.00  0.00    +0.000 F 
ENDBRANCH  24  25
ENDBRANCH  16  19
ENDBRANCH   8  15
TORSDOF 3
ENDMDL
MODEL 5
REMARK VINA RESULT:      -7.6      3.633      8.911
REMARK  Name = 
REMARK  3 active torsions:
REMARK  status: ('A' for Active; 'I' for Inactive)
REMARK    1  A    between atoms: C_8  and  N_9
REMARK    2  A    between atoms: C_10  and  C_12
REMARK    3  A    between atoms: C_17  and  C_18
REMARK                            x       y       z     vdW  Elec       q    Type
REMARK                         _______ _______ _______ _____ _____    ______ ____
ROOT
ATOM      1  O   UNL     1       4.906   2.018  20.142  0.00  0.00    +0.000 OA
ATOM      2  C   UNL     1       4.395   2.891  19.432  0.00  0.00    +0.000 C 
ATOM      3  C   UNL     1       3.123   3.642  19.863  0.00  0.00    +0.000 C 
ATOM      4  N   UNL     1       2.742   4.763  18.985  0.00  0.00    +0.000 N 
ATOM      5  C   UNL     1       2.307   5.964  19.506  0.00  0.00    +0.000 A 
ATOM      6  C   UNL     1       1.638   6.010  20.725  0.00  0.00    +0.000 A 
ATOM      7  C   UNL     1       1.188   7.221  21.248  0.00  0.00    +0.000 A 
ATOM      8  C   UNL     1       1.396   8.402  20.554  0.00  0.00    +0.000 A 
ATOM      9  C   UNL     1       2.076   8.281  19.347  0.00  0.00    +0.000 A 
ATOM     10  N   UNL     1       2.516   7.107  18.814  0.00  0.00    +0.000 NA
ATOM     11  C   UNL     1       3.090   4.653  17.573  0.00  0.00    +0.000 C 
ATOM     12  C   UNL     1       4.578   4.338  17.444  0.00  0.00    +0.000 C 
ATOM     13  N   UNL     1       4.950   3.164  18.209  0.00  0.00    +0.000 N 
ATOM     14  H   UNL     1       5.831   2.699  18.033  0.00  0.00    +0.000 HD
ENDROOT
BRANCH   8  15
ATOM     15  N   UNL     1       0.955   9.671  21.016  0.00  0.00    +0.000 N 
ATOM     16  C   UNL     1      -0.170  10.333  20.555  0.00  0.00    +0.000 C 
ATOM     17  O   UNL     1      -0.920   9.963  19.658  0.00  0.00    +0.000 OA
ATOM     18  H   UNL     1       1.542  10.129  21.699  0.00  0.00    +0.000 HD
BRANCH  16  19
ATOM     19  C   UNL     1      -0.470  11.675  21.117  0.00  0.00    +0.000 A 
ATOM     20  C   UNL     1      -1.194  11.763  22.317  0.00  0.00    +0.000 A 
ATOM     21  C   UNL     1      -1.237  12.965  23.025  0.00  0.00    +0.000 A 
ATOM     22  C   UNL     1      -0.536  14.074  22.561  0.00  0.00    +0.000 A 
ATOM     23  C   UNL     1       0.146  14.006  21.348  0.00  0.00    +0.000 A 
ATOM     24  C   UNL     1       0.160  12.820  20.587  0.00  0.00    +0.000 A 
BRANCH  24  25
ATOM     25  C   UNL     1       0.853  12.861  19.243  0.00  0.00    +0.000 C 
ATOM     26  F   UNL     1       0.092  12.547  18.163  0.00  0.00    +0.000 F 
ATOM     27  F   UNL     1       1.297  14.132  18.975  0.00  0.00    +0.000 F 
ATOM     28  F   UNL     1       1.969  12.084  19.193  0.00  0.00    +0.000 F 
ENDBRANCH  24  25
ENDBRANCH  16  19
ENDBRANCH   8  15
TORSDOF 3
ENDMDL
MODEL 6
REMARK VINA RESULT:      -7.5      3.780      8.813
REMARK  Name = 
REMARK  3 active torsions:
REMARK  status: ('A' for Active; 'I' for Inactive)
REMARK    1  A    between atoms: C_8  and  N_9
REMARK    2  A    between atoms: C_10  and  C_12
REMARK    3  A    between atoms: C_17  and  C_18
REMARK                            x       y       z     vdW  Elec       q    Type
REMARK                         _______ _______ _______ _____ _____    ______ ____
ROOT
ATOM      1  O   UNL     1       4.804   2.106  20.468  0.00  0.00    +0.000 OA
ATOM      2  C   UNL     1       4.203   2.793  19.635  0.00  0.00    +0.000 C 
ATOM      3  C   UNL     1       3.064   3.745  20.042  0.00  0.00    +0.000 C 
ATOM      4  N   UNL     1       2.567   4.611  18.958  0.00  0.00    +0.000 N 
ATOM      5  C   UNL     1       2.285   5.944  19.178  0.00  0.00    +0.000 A 
ATOM      6  C   UNL     1       1.860   6.383  20.429  0.00  0.00    +0.000 A 
ATOM      7  C   UNL     1       1.564   7.726  20.652  0.00  0.00    +0.000 A 
ATOM      8  C   UNL     1       1.682   8.648  19.624  0.00  0.00    +0.000 A 
ATOM      9  C   UNL     1       2.117   8.138  18.405  0.00  0.00    +0.000 A 
ATOM     10  N   UNL     1       2.404   6.828  18.163  0.00  0.00    +0.000 NA
ATOM     11  C   UNL     1       2.638   4.087  17.599  0.00  0.00    +0.000 C 
ATOM     12  C   UNL     1       4.062   3.616  17.314  0.00  0.00    +0.000 C 
ATOM     13  N   UNL     1       4.526   2.668  18.308  0.00  0.00    +0.000 N 
ATOM     14  H   UNL     1       5.339   2.095  18.126  0.00  0.00    +0.000 HD
ENDROOT
BRANCH   8  15
ATOM     15  N   UNL     1       1.386  10.029  19.770  0.00  0.00    +0.000 N 
ATOM     16  C   UNL     1       0.119  10.580  19.677  0.00  0.00    +0.000 C 
ATOM     17  O   UNL     1      -0.919   9.985  19.406  0.00  0.00    +0.000 OA
ATOM     18  H   UNL     1       2.175  10.645  19.909  0.00  0.00    +0.000 HD
BRANCH  16  19
ATOM     19  C   UNL     1      -0.013  12.053  19.816  0.00  0.00    +0.000 A 
ATOM     20  C   UNL     1       0.277  12.869  18.711  0.00  0.00    +0.000 A 
ATOM     21  C   UNL     1      -0.115  14.208  18.703  0.00  0.00    +0.000 A 
ATOM     22  C   UNL     1      -0.824  14.734  19.779  0.00  0.00    +0.000 A 
ATOM     23  C   UNL     1      -1.074  13.942  20.898  0.00  0.00    +0.000 A 
ATOM     24  C   UNL     1      -0.642  12.602  20.953  0.00  0.00    +0.000 A 
BRANCH  24  25
ATOM     25  C   UNL     1      -0.882  11.843  22.239  0.00  0.00    +0.000 C 
ATOM     26  F   UNL     1       0.036  10.894  22.558  0.00  0.00    +0.000 F 
ATOM     27  F   UNL     1      -0.855  12.700  23.310  0.00  0.00    +0.000 F 
ATOM     28  F   UNL     1      -2.109  11.256  22.292  0.00  0.00    +0.000 F 
ENDBRANCH  24  25
ENDBRANCH  16  19
ENDBRANCH   8  15
TORSDOF 3
ENDMDL
MODEL 7
REMARK VINA RESULT:      -7.5      2.811      3.601
REMARK  Name = 
REMARK  3 active torsions:
REMARK  status: ('A' for Active; 'I' for Inactive)
REMARK    1  A    between atoms: C_8  and  N_9
REMARK    2  A    between atoms: C_10  and  C_12
REMARK    3  A    between atoms: C_17  and  C_18
REMARK                            x       y       z     vdW  Elec       q    Type
REMARK                         _______ _______ _______ _____ _____    ______ ____
ROOT
ATOM      1  O   UNL     1       3.745  14.999  19.255  0.00  0.00    +0.000 OA
ATOM      2  C   UNL     1       2.832  14.212  19.526  0.00  0.00    +0.000 C 
ATOM      3  C   UNL     1       2.449  13.062  18.578  0.00  0.00    +0.000 C 
ATOM      4  N   UNL     1       1.457  12.118  19.124  0.00  0.00    +0.000 N 
ATOM      5  C   UNL     1       1.593  10.756  18.950  0.00  0.00    +0.000 A 
ATOM      6  C   UNL     1       2.232  10.244  17.824  0.00  0.00    +0.000 A 
ATOM      7  C   UNL     1       2.361   8.868  17.640  0.00  0.00    +0.000 A 
ATOM      8  C   UNL     1       1.846   7.987  18.577  0.00  0.00    +0.000 A 
ATOM      9  C   UNL     1       1.226   8.570  19.677  0.00  0.00    +0.000 A 
ATOM     10  N   UNL     1       1.082   9.911  19.872  0.00  0.00    +0.000 NA
ATOM     11  C   UNL     1       0.483  12.647  20.071  0.00  0.00    +0.000 C 
ATOM     12  C   UNL     1       1.217  13.379  21.192  0.00  0.00    +0.000 C 
ATOM     13  N   UNL     1       2.111  14.396  20.677  0.00  0.00    +0.000 N 
ATOM     14  H   UNL     1       2.476  15.113  21.291  0.00  0.00    +0.000 HD
ENDROOT
BRANCH   8  15
ATOM     15  N   UNL     1       1.926   6.574  18.452  0.00  0.00    +0.000 N 
ATOM     16  C   UNL     1       2.978   5.798  18.910  0.00  0.00    +0.000 C 
ATOM     17  O   UNL     1       4.009   6.202  19.437  0.00  0.00    +0.000 OA
ATOM     18  H   UNL     1       1.172   6.124  17.952  0.00  0.00    +0.000 HD
BRANCH  16  19
ATOM     19  C   UNL     1       2.924   4.335  18.665  0.00  0.00    +0.000 A 
ATOM     20  C   UNL     1       3.555   3.813  17.523  0.00  0.00    +0.000 A 
ATOM     21  C   UNL     1       3.785   2.441  17.412  0.00  0.00    +0.000 A 
ATOM     22  C   UNL     1       3.417   1.586  18.445  0.00  0.00    +0.000 A 
ATOM     23  C   UNL     1       2.749   2.091  19.559  0.00  0.00    +0.000 A 
ATOM     24  C   UNL     1       2.457   3.465  19.672  0.00  0.00    +0.000 A 
BRANCH  24  25
ATOM     25  C   UNL     1       1.655   3.912  20.874  0.00  0.00    +0.000 C 
ATOM     26  F   UNL     1       1.242   2.933  21.719  0.00  0.00    +0.000 F 
ATOM     27  F   UNL     1       2.409   4.737  21.669  0.00  0.00    +0.000 F 
ATOM     28  F   UNL     1       0.562   4.651  20.542  0.00  0.00    +0.000 F 
ENDBRANCH  24  25
ENDBRANCH  16  19
ENDBRANCH   8  15
TORSDOF 3
ENDMDL
MODEL 8
REMARK VINA RESULT:      -7.5      2.788      3.485
REMARK  Name = 
REMARK  3 active torsions:
REMARK  status: ('A' for Active; 'I' for Inactive)
REMARK    1  A    between atoms: C_8  and  N_9
REMARK    2  A    between atoms: C_10  and  C_12
REMARK    3  A    between atoms: C_17  and  C_18
REMARK                            x       y       z     vdW  Elec       q    Type
REMARK                         _______ _______ _______ _____ _____    ______ ____
ROOT
ATOM      1  O   UNL     1       2.350  14.941  18.626  0.00  0.00    +0.000 OA
ATOM      2  C   UNL     1       1.678  14.013  19.089  0.00  0.00    +0.000 C 
ATOM      3  C   UNL     1       1.512  12.682  18.335  0.00  0.00    +0.000 C 
ATOM      4  N   UNL     1       0.823  11.624  19.097  0.00  0.00    +0.000 N 
ATOM      5  C   UNL     1       1.271  10.319  19.076  0.00  0.00    +0.000 A 
ATOM      6  C   UNL     1       1.924   9.811  17.957  0.00  0.00    +0.000 A 
ATOM      7  C   UNL     1       2.368   8.490  17.928  0.00  0.00    +0.000 A 
ATOM      8  C   UNL     1       2.156   7.657  19.015  0.00  0.00    +0.000 A 
ATOM      9  C   UNL     1       1.502   8.235  20.098  0.00  0.00    +0.000 A 
ATOM     10  N   UNL     1       1.053   9.521  20.144  0.00  0.00    +0.000 NA
ATOM     11  C   UNL     1      -0.173  12.046  20.075  0.00  0.00    +0.000 C 
ATOM     12  C   UNL     1       0.448  13.081  21.012  0.00  0.00    +0.000 C 
ATOM     13  N   UNL     1       1.026  14.191  20.282  0.00  0.00    +0.000 N 
ATOM     14  H   UNL     1       1.254  15.053  20.760  0.00  0.00    +0.000 HD
ENDROOT
BRANCH   8  15
ATOM     15  N   UNL     1       2.566   6.298  19.055  0.00  0.00    +0.000 N 
ATOM     16  C   UNL     1       1.986   5.275  18.323  0.00  0.00    +0.000 C 
ATOM     17  O   UNL     1       1.013   5.368  17.582  0.00  0.00    +0.000 OA
ATOM     18  H   UNL     1       3.309   6.072  19.701  0.00  0.00    +0.000 HD
BRANCH  16  19
ATOM     19  C   UNL     1       2.510   3.899  18.510  0.00  0.00    +0.000 A 
ATOM     20  C   UNL     1       3.250   3.307  17.473  0.00  0.00    +0.000 A 
ATOM     21  C   UNL     1       4.004   2.158  17.715  0.00  0.00    +0.000 A 
ATOM     22  C   UNL     1       4.050   1.609  18.993  0.00  0.00    +0.000 A 
ATOM     23  C   UNL     1       3.282   2.164  20.014  0.00  0.00    +0.000 A 
ATOM     24  C   UNL     1       2.470   3.293  19.783  0.00  0.00    +0.000 A 
BRANCH  24  25
ATOM     25  C   UNL     1       1.606   3.778  20.926  0.00  0.00    +0.000 C 
ATOM     26  F   UNL     1       0.471   4.440  20.583  0.00  0.00    +0.000 F 
ATOM     27  F   UNL     1       1.156   2.714  21.666  0.00  0.00    +0.000 F 
ATOM     28  F   UNL     1       2.280   4.559  21.812  0.00  0.00    +0.000 F 
ENDBRANCH  24  25
ENDBRANCH  16  19
ENDBRANCH   8  15
TORSDOF 3
ENDMDL
MODEL 9
REMARK VINA RESULT:      -7.5      1.332      1.936
REMARK  Name = 
REMARK  3 active torsions:
REMARK  status: ('A' for Active; 'I' for Inactive)
REMARK    1  A    between atoms: C_8  and  N_9
REMARK    2  A    between atoms: C_10  and  C_12
REMARK    3  A    between atoms: C_17  and  C_18
REMARK                            x       y       z     vdW  Elec       q    Type
REMARK                         _______ _______ _______ _____ _____    ______ ____
ROOT
ATOM      1  O   UNL     1       0.377  14.984  22.727  0.00  0.00    +0.000 OA
ATOM      2  C   UNL     1      -0.156  13.985  22.233  0.00  0.00    +0.000 C 
ATOM      3  C   UNL     1       0.191  13.502  20.813  0.00  0.00    +0.000 C 
ATOM      4  N   UNL     1      -0.404  12.206  20.440  0.00  0.00    +0.000 N 
ATOM      5  C   UNL     1       0.325  11.253  19.759  0.00  0.00    +0.000 A 
ATOM      6  C   UNL     1       1.343  11.626  18.887  0.00  0.00    +0.000 A 
ATOM      7  C   UNL     1       2.074  10.666  18.189  0.00  0.00    +0.000 A 
ATOM      8  C   UNL     1       1.790   9.319  18.350  0.00  0.00    +0.000 A 
ATOM      9  C   UNL     1       0.764   9.021  19.240  0.00  0.00    +0.000 A 
ATOM     10  N   UNL     1       0.032   9.944  19.926  0.00  0.00    +0.000 NA
ATOM     11  C   UNL     1      -1.687  11.863  21.041  0.00  0.00    +0.000 C 
ATOM     12  C   UNL     1      -1.586  12.003  22.559  0.00  0.00    +0.000 C 
ATOM     13  N   UNL     1      -1.114  13.316  22.949  0.00  0.00    +0.000 N 
ATOM     14  H   UNL     1      -1.224  13.635  23.903  0.00  0.00    +0.000 HD
ENDROOT
BRANCH   8  15
ATOM     15  N   UNL     1       2.481   8.284  17.664  0.00  0.00    +0.000 N 
ATOM     16  C   UNL     1       3.026   7.163  18.266  0.00  0.00    +0.000 C 
ATOM     17  O   UNL     1       3.046   6.916  19.467  0.00  0.00    +0.000 OA
ATOM     18  H   UNL     1       2.611   8.414  16.670  0.00  0.00    +0.000 HD
BRANCH  16  19
ATOM     19  C   UNL     1       3.751   6.193  17.408  0.00  0.00    +0.000 A 
ATOM     20  C   UNL     1       4.956   6.589  16.803  0.00  0.00    +0.000 A 
ATOM     21  C   UNL     1       5.809   5.635  16.246  0.00  0.00    +0.000 A 
ATOM     22  C   UNL     1       5.485   4.284  16.313  0.00  0.00    +0.000 A 
ATOM     23  C   UNL     1       4.270   3.889  16.870  0.00  0.00    +0.000 A 
ATOM     24  C   UNL     1       3.366   4.837  17.391  0.00  0.00    +0.000 A 
BRANCH  24  25
ATOM     25  C   UNL     1       2.036   4.327  17.899  0.00  0.00    +0.000 C 
ATOM     26  F   UNL     1       1.825   4.423  19.237  0.00  0.00    +0.000 F 
ATOM     27  F   UNL     1       1.008   5.051  17.350  0.00  0.00    +0.000 F 
ATOM     28  F   UNL     1       1.785   3.038  17.540  0.00  0.00    +0.000 F 
ENDBRANCH  24  25
ENDBRANCH  16  19
ENDBRANCH   8  15
TORSDOF 3
ENDMDL
