MODEL 1
REMARK VINA RESULT:      -9.1      0.000      0.000
REMARK  Name = 
REMARK  10 active torsions:
REMARK  status: ('A' for Active; 'I' for Inactive)
REMARK    1  A    between atoms: C_1  and  N_2
REMARK    2  A    between atoms: N_2  and  C_3
REMARK    3  A    between atoms: N_2  and  C_4
REMARK    4  A    between atoms: C_5  and  N_6
REMARK    5  A    between atoms: N_6  and  C_7
REMARK    6  A    between atoms: C_7  and  C_8
REMARK    7  A    between atoms: C_12  and  C_13
REMARK    8  A    between atoms: N_19  and  C_20
REMARK    9  A    between atoms: C_24  and  C_25
REMARK   10  A    between atoms: N_29  and  C_30
REMARK                            x       y       z     vdW  Elec       q    Type
REMARK                         _______ _______ _______ _____ _____    ______ ____
ROOT
ATOM      1  C   UNL     1       0.248  11.707  19.403  0.00  0.00    +0.000 A 
ATOM      2  C   UNL     1       1.004  10.818  18.637  0.00  0.00    +0.000 A 
ATOM      3  C   UNL     1       1.313   9.596  19.195  0.00  0.00    +0.000 A 
ATOM      4  C   UNL     1       0.925   9.212  20.475  0.00  0.00    +0.000 A 
ATOM      5  C   UNL     1       0.204  10.091  21.276  0.00  0.00    +0.000 A 
ATOM      6  C   UNL     1      -0.136  11.342  20.716  0.00  0.00    +0.000 A 
ATOM      7  C   UNL     1       1.392   7.814  20.731  0.00  0.00    +0.000 C 
ATOM      8  N   UNL     1       2.106   7.464  19.507  0.00  0.00    +0.000 N 
ATOM      9  C   UNL     1       2.066   8.504  18.577  0.00  0.00    +0.000 C 
ATOM     10  O   UNL     1       2.519   8.600  17.451  0.00  0.00    +0.000 OA
ENDROOT
BRANCH   8  11
ATOM     11  C   UNL     1       2.770   6.222  19.339  0.00  0.00    +0.000 A 
ATOM     12  C   UNL     1       2.435   5.112  20.123  0.00  0.00    +0.000 A 
ATOM     13  C   UNL     1       3.080   3.888  19.958  0.00  0.00    +0.000 A 
ATOM     14  C   UNL     1       4.063   3.747  18.987  0.00  0.00    +0.000 A 
ATOM     15  C   UNL     1       4.384   4.818  18.147  0.00  0.00    +0.000 A 
ATOM     16  C   UNL     1       3.761   6.059  18.358  0.00  0.00    +0.000 A 
BRANCH  15  17
ATOM     17  C   UNL     1       5.325   4.672  17.038  0.00  0.00    +0.000 A 
ATOM     18  N   UNL     1       5.109   4.000  15.919  0.00  0.00    +0.000 NA
ATOM     19  N   UNL     1       6.254   4.029  15.158  0.00  0.00    +0.000 NA
ATOM     20  C   UNL     1       7.158   4.697  15.832  0.00  0.00    +0.000 A 
ATOM     21  N   UNL     1       6.630   5.111  17.014  0.00  0.00    +0.000 N 
ATOM     22  C   UNL     1       7.360   5.782  18.059  0.00  0.00    +0.000 C 
ENDBRANCH  15  17
ENDBRANCH   8  11
BRANCH   5  23
ATOM     23  C   UNL     1      -0.213   9.761  22.685  0.00  0.00    +0.000 C 
ATOM     24  F   UNL     1       0.835   9.518  23.519  0.00  0.00    +0.000 F 
ATOM     25  F   UNL     1      -0.920  10.771  23.263  0.00  0.00    +0.000 F 
ATOM     26  F   UNL     1      -1.006   8.659  22.749  0.00  0.00    +0.000 F 
ENDBRANCH   5  23
BRANCH   1  27
ATOM     27  C   UNL     1      -0.183  13.021  18.803  0.00  0.00    +0.000 C 
BRANCH  27  28
ATOM     28  N   UNL     1      -1.035  12.806  17.658  0.00  0.00    +0.000 N 
ATOM     29  H   UNL     1      -0.868  13.356  16.822  0.00  0.00    +0.000 HD
BRANCH  28  31
ATOM     30  C   UNL     1      -3.187  11.759  18.060  0.00  0.00    +0.000 C 
ATOM     31  C   UNL     1      -1.948  11.791  17.558  0.00  0.00    +0.000 C 
BRANCH  30  33
ATOM     32  C   UNL     1      -3.708   9.370  17.688  0.00  0.00    +0.000 C 
ATOM     33  N   UNL     1      -4.122  10.739  17.979  0.00  0.00    +0.000 N 
ATOM     34  C   UNL     1      -5.552  10.973  18.162  0.00  0.00    +0.000 C 
ENDBRANCH  30  33
ENDBRANCH  28  31
ENDBRANCH  27  28
ENDBRANCH   1  27
TORSDOF 7
ENDMDL
MODEL 2
REMARK VINA RESULT:      -9.1      0.859      1.243
REMARK  Name = 
REMARK  10 active torsions:
REMARK  status: ('A' for Active; 'I' for Inactive)
REMARK    1  A    between atoms: C_1  and  N_2
REMARK    2  A    between atoms: N_2  and  C_3
REMARK    3  A    between atoms: N_2  and  C_4
REMARK    4  A    between atoms: C_5  and  N_6
REMARK    5  A    between atoms: N_6  and  C_7
REMARK    6  A    between atoms: C_7  and  C_8
REMARK    7  A    between atoms: C_12  and  C_13
REMARK    8  A    between atoms: N_19  and  C_20
REMARK    9  A    between atoms: C_24  and  C_25
REMARK   10  A    between atoms: N_29  and  C_30
REMARK                            x       y       z     vdW  Elec       q    Type
REMARK                         _______ _______ _______ _____ _____    ______ ____
ROOT
ATOM      1  C   UNL     1       0.303  11.476  19.560  0.00  0.00    +0.000 A 
ATOM      2  C   UNL     1       1.037  10.540  18.830  0.00  0.00    +0.000 A 
ATOM      3  C   UNL     1       1.310   9.330  19.430  0.00  0.00    +0.000 A 
ATOM      4  C   UNL     1       0.906   9.001  20.721  0.00  0.00    +0.000 A 
ATOM      5  C   UNL     1       0.207   9.927  21.488  0.00  0.00    +0.000 A 
ATOM      6  C   UNL     1      -0.096  11.167  20.883  0.00  0.00    +0.000 A 
ATOM      7  C   UNL     1       1.334   7.601  21.028  0.00  0.00    +0.000 C 
ATOM      8  N   UNL     1       2.042   7.189  19.820  0.00  0.00    +0.000 N 
ATOM      9  C   UNL     1       2.034   8.197  18.854  0.00  0.00    +0.000 C 
ATOM     10  O   UNL     1       2.494   8.242  17.727  0.00  0.00    +0.000 OA
ENDROOT
BRANCH   8  11
ATOM     11  C   UNL     1       2.672   5.924  19.698  0.00  0.00    +0.000 A 
ATOM     12  C   UNL     1       2.023   4.752  20.101  0.00  0.00    +0.000 A 
ATOM     13  C   UNL     1       2.634   3.506  19.979  0.00  0.00    +0.000 A 
ATOM     14  C   UNL     1       3.906   3.409  19.429  0.00  0.00    +0.000 A 
ATOM     15  C   UNL     1       4.562   4.552  18.962  0.00  0.00    +0.000 A 
ATOM     16  C   UNL     1       3.954   5.806  19.138  0.00  0.00    +0.000 A 
BRANCH  15  17
ATOM     17  C   UNL     1       5.847   4.474  18.268  0.00  0.00    +0.000 A 
ATOM     18  N   UNL     1       7.040   4.592  18.827  0.00  0.00    +0.000 NA
ATOM     19  N   UNL     1       7.997   4.539  17.841  0.00  0.00    +0.000 NA
ATOM     20  C   UNL     1       7.374   4.414  16.695  0.00  0.00    +0.000 A 
ATOM     21  N   UNL     1       6.033   4.377  16.907  0.00  0.00    +0.000 N 
ATOM     22  C   UNL     1       5.029   4.350  15.874  0.00  0.00    +0.000 C 
ENDBRANCH  15  17
ENDBRANCH   8  11
BRANCH   5  23
ATOM     23  C   UNL     1      -0.224   9.658  22.906  0.00  0.00    +0.000 C 
ATOM     24  F   UNL     1       0.811   9.380  23.745  0.00  0.00    +0.000 F 
ATOM     25  F   UNL     1      -0.873  10.720  23.458  0.00  0.00    +0.000 F 
ATOM     26  F   UNL     1      -1.076   8.604  23.000  0.00  0.00    +0.000 F 
ENDBRANCH   5  23
BRANCH   1  27
ATOM     27  C   UNL     1      -0.089  12.779  18.914  0.00  0.00    +0.000 C 
BRANCH  27  28
ATOM     28  N   UNL     1      -1.522  12.950  18.934  0.00  0.00    +0.000 N 
ATOM     29  H   UNL     1      -1.904  13.776  19.383  0.00  0.00    +0.000 HD
BRANCH  28  31
ATOM     30  C   UNL     1      -3.702  11.982  18.488  0.00  0.00    +0.000 C 
ATOM     31  C   UNL     1      -2.401  12.163  18.240  0.00  0.00    +0.000 C 
BRANCH  30  33
ATOM     32  C   UNL     1      -4.348  10.774  16.429  0.00  0.00    +0.000 C 
ATOM     33  N   UNL     1      -4.606  11.183  17.805  0.00  0.00    +0.000 N 
ATOM     34  C   UNL     1      -5.855  10.725  18.408  0.00  0.00    +0.000 C 
ENDBRANCH  30  33
ENDBRANCH  28  31
ENDBRANCH  27  28
ENDBRANCH   1  27
TORSDOF 7
ENDMDL
MODEL 3
REMARK VINA RESULT:      -9.1      0.635      1.036
REMARK  Name = 
REMARK  10 active torsions:
REMARK  status: ('A' for Active; 'I' for Inactive)
REMARK    1  A    between atoms: C_1  and  N_2
REMARK    2  A    between atoms: N_2  and  C_3
REMARK    3  A    between atoms: N_2  and  C_4
REMARK    4  A    between atoms: C_5  and  N_6
REMARK    5  A    between atoms: N_6  and  C_7
REMARK    6  A    between atoms: C_7  and  C_8
REMARK    7  A    between atoms: C_12  and  C_13
REMARK    8  A    between atoms: N_19  and  C_20
REMARK    9  A    between atoms: C_24  and  C_25
REMARK   10  A    between atoms: N_29  and  C_30
REMARK                            x       y       z     vdW  Elec       q    Type
REMARK                         _______ _______ _______ _____ _____    ______ ____
ROOT
ATOM      1  C   UNL     1       0.273  11.735  19.494  0.00  0.00    +0.000 A 
ATOM      2  C   UNL     1       1.014  10.851  18.708  0.00  0.00    +0.000 A 
ATOM      3  C   UNL     1       1.311   9.615  19.240  0.00  0.00    +0.000 A 
ATOM      4  C   UNL     1       0.924   9.211  20.514  0.00  0.00    +0.000 A 
ATOM      5  C   UNL     1       0.218  10.083  21.336  0.00  0.00    +0.000 A 
ATOM      6  C   UNL     1      -0.109  11.349  20.802  0.00  0.00    +0.000 A 
ATOM      7  C   UNL     1       1.375   7.803  20.741  0.00  0.00    +0.000 C 
ATOM      8  N   UNL     1       2.079   7.468  19.507  0.00  0.00    +0.000 N 
ATOM      9  C   UNL     1       2.047   8.525  18.597  0.00  0.00    +0.000 C 
ATOM     10  O   UNL     1       2.495   8.639  17.471  0.00  0.00    +0.000 OA
ENDROOT
BRANCH   8  11
ATOM     11  C   UNL     1       2.726   6.221  19.311  0.00  0.00    +0.000 A 
ATOM     12  C   UNL     1       2.361   5.092  20.054  0.00  0.00    +0.000 A 
ATOM     13  C   UNL     1       2.989   3.864  19.862  0.00  0.00    +0.000 A 
ATOM     14  C   UNL     1       3.987   3.738  18.904  0.00  0.00    +0.000 A 
ATOM     15  C   UNL     1       4.339   4.829  18.103  0.00  0.00    +0.000 A 
ATOM     16  C   UNL     1       3.731   6.073  18.343  0.00  0.00    +0.000 A 
BRANCH  15  17
ATOM     17  C   UNL     1       5.296   4.702  17.006  0.00  0.00    +0.000 A 
ATOM     18  N   UNL     1       5.056   4.162  15.823  0.00  0.00    +0.000 NA
ATOM     19  N   UNL     1       6.221   4.157  15.093  0.00  0.00    +0.000 NA
ATOM     20  C   UNL     1       7.160   4.672  15.849  0.00  0.00    +0.000 A 
ATOM     21  N   UNL     1       6.635   5.019  17.054  0.00  0.00    +0.000 N 
ATOM     22  C   UNL     1       7.390   5.518  18.175  0.00  0.00    +0.000 C 
ENDBRANCH  15  17
ENDBRANCH   8  11
BRANCH   5  23
ATOM     23  C   UNL     1      -0.197   9.731  22.740  0.00  0.00    +0.000 C 
ATOM     24  F   UNL     1      -0.877  10.727  23.371  0.00  0.00    +0.000 F 
ATOM     25  F   UNL     1      -1.013   8.642  22.780  0.00  0.00    +0.000 F 
ATOM     26  F   UNL     1       0.863   9.438  23.538  0.00  0.00    +0.000 F 
ENDBRANCH   5  23
BRANCH   1  27
ATOM     27  C   UNL     1      -0.144  13.065  18.922  0.00  0.00    +0.000 C 
BRANCH  27  28
ATOM     28  N   UNL     1      -0.963  12.883  17.747  0.00  0.00    +0.000 N 
ATOM     29  H   UNL     1      -0.750  13.433  16.922  0.00  0.00    +0.000 HD
BRANCH  28  31
ATOM     30  C   UNL     1      -2.254  11.262  16.486  0.00  0.00    +0.000 C 
ATOM     31  C   UNL     1      -1.902  11.898  17.609  0.00  0.00    +0.000 C 
BRANCH  30  33
ATOM     32  C   UNL     1      -3.783   9.999  15.009  0.00  0.00    +0.000 C 
ATOM     33  N   UNL     1      -3.208  10.270  16.322  0.00  0.00    +0.000 N 
ATOM     34  C   UNL     1      -3.697   9.464  17.438  0.00  0.00    +0.000 C 
ENDBRANCH  30  33
ENDBRANCH  28  31
ENDBRANCH  27  28
ENDBRANCH   1  27
TORSDOF 7
ENDMDL
MODEL 4
REMARK VINA RESULT:      -9.0      0.983      1.512
REMARK  Name = 
REMARK  10 active torsions:
REMARK  status: ('A' for Active; 'I' for Inactive)
REMARK    1  A    between atoms: C_1  and  N_2
REMARK    2  A    between atoms: N_2  and  C_3
REMARK    3  A    between atoms: N_2  and  C_4
REMARK    4  A    between atoms: C_5  and  N_6
REMARK    5  A    between atoms: N_6  and  C_7
REMARK    6  A    between atoms: C_7  and  C_8
REMARK    7  A    between atoms: C_12  and  C_13
REMARK    8  A    between atoms: N_19  and  C_20
REMARK    9  A    between atoms: C_24  and  C_25
REMARK   10  A    between atoms: N_29  and  C_30
REMARK                            x       y       z     vdW  Elec       q    Type
REMARK                         _______ _______ _______ _____ _____    ______ ____
ROOT
ATOM      1  C   UNL     1       0.269  11.477  19.695  0.00  0.00    +0.000 A 
ATOM      2  C   UNL     1       1.011  10.552  18.960  0.00  0.00    +0.000 A 
ATOM      3  C   UNL     1       1.277   9.334  19.546  0.00  0.00    +0.000 A 
ATOM      4  C   UNL     1       0.857   8.986  20.827  0.00  0.00    +0.000 A 
ATOM      5  C   UNL     1       0.149   9.901  21.599  0.00  0.00    +0.000 A 
ATOM      6  C   UNL     1      -0.146  11.150  21.009  0.00  0.00    +0.000 A 
ATOM      7  C   UNL     1       1.281   7.582  21.118  0.00  0.00    +0.000 C 
ATOM      8  N   UNL     1       2.004   7.187  19.913  0.00  0.00    +0.000 N 
ATOM      9  C   UNL     1       2.008   8.208  18.963  0.00  0.00    +0.000 C 
ATOM     10  O   UNL     1       2.481   8.270  17.842  0.00  0.00    +0.000 OA
ENDROOT
BRANCH   8  11
ATOM     11  C   UNL     1       2.635   5.924  19.780  0.00  0.00    +0.000 A 
ATOM     12  C   UNL     1       1.988   4.747  20.176  0.00  0.00    +0.000 A 
ATOM     13  C   UNL     1       2.601   3.504  20.044  0.00  0.00    +0.000 A 
ATOM     14  C   UNL     1       3.871   3.412  19.490  0.00  0.00    +0.000 A 
ATOM     15  C   UNL     1       4.525   4.559  19.030  0.00  0.00    +0.000 A 
ATOM     16  C   UNL     1       3.915   5.811  19.216  0.00  0.00    +0.000 A 
BRANCH  15  17
ATOM     17  C   UNL     1       5.808   4.488  18.333  0.00  0.00    +0.000 A 
ATOM     18  N   UNL     1       7.002   4.620  18.886  0.00  0.00    +0.000 NA
ATOM     19  N   UNL     1       7.956   4.569  17.898  0.00  0.00    +0.000 NA
ATOM     20  C   UNL     1       7.331   4.430  16.754  0.00  0.00    +0.000 A 
ATOM     21  N   UNL     1       5.990   4.382  16.972  0.00  0.00    +0.000 N 
ATOM     22  C   UNL     1       4.984   4.340  15.942  0.00  0.00    +0.000 C 
ENDBRANCH  15  17
ENDBRANCH   8  11
BRANCH   5  23
ATOM     23  C   UNL     1      -0.299   9.611  23.007  0.00  0.00    +0.000 C 
ATOM     24  F   UNL     1      -1.092   8.510  23.109  0.00  0.00    +0.000 F 
ATOM     25  F   UNL     1       0.750   9.392  23.847  0.00  0.00    +0.000 F 
ATOM     26  F   UNL     1      -1.009  10.635  23.548  0.00  0.00    +0.000 F 
ENDBRANCH   5  23
BRANCH   1  27
ATOM     27  C   UNL     1      -0.115  12.790  19.063  0.00  0.00    +0.000 C 
BRANCH  27  28
ATOM     28  N   UNL     1      -0.505  12.601  17.686  0.00  0.00    +0.000 N 
ATOM     29  H   UNL     1       0.220  12.592  16.976  0.00  0.00    +0.000 HD
BRANCH  28  31
ATOM     30  C   UNL     1      -2.178  11.083  16.801  0.00  0.00    +0.000 C 
ATOM     31  C   UNL     1      -1.768  12.261  17.284  0.00  0.00    +0.000 C 
BRANCH  30  33
ATOM     32  C   UNL     1      -3.662  10.182  15.039  0.00  0.00    +0.000 C 
ATOM     33  N   UNL     1      -3.448  10.721  16.378  0.00  0.00    +0.000 N 
ATOM     34  C   UNL     1      -4.626  10.872  17.227  0.00  0.00    +0.000 C 
ENDBRANCH  30  33
ENDBRANCH  28  31
ENDBRANCH  27  28
ENDBRANCH   1  27
TORSDOF 7
ENDMDL
MODEL 5
REMARK VINA RESULT:      -8.9      1.851      3.472
REMARK  Name = 
REMARK  10 active torsions:
REMARK  status: ('A' for Active; 'I' for Inactive)
REMARK    1  A    between atoms: C_1  and  N_2
REMARK    2  A    between atoms: N_2  and  C_3
REMARK    3  A    between atoms: N_2  and  C_4
REMARK    4  A    between atoms: C_5  and  N_6
REMARK    5  A    between atoms: N_6  and  C_7
REMARK    6  A    between atoms: C_7  and  C_8
REMARK    7  A    between atoms: C_12  and  C_13
REMARK    8  A    between atoms: N_19  and  C_20
REMARK    9  A    between atoms: C_24  and  C_25
REMARK   10  A    between atoms: N_29  and  C_30
REMARK                            x       y       z     vdW  Elec       q    Type
REMARK                         _______ _______ _______ _____ _____    ______ ____
ROOT
ATOM      1  C   UNL     1       0.063  11.462  19.319  0.00  0.00    +0.000 A 
ATOM      2  C   UNL     1       0.802  10.495  18.636  0.00  0.00    +0.000 A 
ATOM      3  C   UNL     1       1.138   9.345  19.317  0.00  0.00    +0.000 A 
ATOM      4  C   UNL     1       0.791   9.105  20.643  0.00  0.00    +0.000 A 
ATOM      5  C   UNL     1       0.088  10.066  21.363  0.00  0.00    +0.000 A 
ATOM      6  C   UNL     1      -0.278  11.245  20.677  0.00  0.00    +0.000 A 
ATOM      7  C   UNL     1       1.276   7.747  21.041  0.00  0.00    +0.000 C 
ATOM      8  N   UNL     1       1.955   7.265  19.842  0.00  0.00    +0.000 N 
ATOM      9  C   UNL     1       1.879   8.193  18.803  0.00  0.00    +0.000 C 
ATOM     10  O   UNL     1       2.297   8.164  17.659  0.00  0.00    +0.000 OA
ENDROOT
BRANCH   8  11
ATOM     11  C   UNL     1       2.623   6.014  19.794  0.00  0.00    +0.000 A 
ATOM     12  C   UNL     1       2.014   4.851  20.277  0.00  0.00    +0.000 A 
ATOM     13  C   UNL     1       2.662   3.619  20.228  0.00  0.00    +0.000 A 
ATOM     14  C   UNL     1       3.932   3.526  19.672  0.00  0.00    +0.000 A 
ATOM     15  C   UNL     1       4.548   4.656  19.127  0.00  0.00    +0.000 A 
ATOM     16  C   UNL     1       3.903   5.900  19.229  0.00  0.00    +0.000 A 
BRANCH  15  17
ATOM     17  C   UNL     1       5.829   4.573  18.427  0.00  0.00    +0.000 A 
ATOM     18  N   UNL     1       7.022   4.767  18.963  0.00  0.00    +0.000 NA
ATOM     19  N   UNL     1       7.973   4.679  17.973  0.00  0.00    +0.000 NA
ATOM     20  C   UNL     1       7.345   4.456  16.845  0.00  0.00    +0.000 A 
ATOM     21  N   UNL     1       6.007   4.390  17.074  0.00  0.00    +0.000 N 
ATOM     22  C   UNL     1       4.996   4.262  16.055  0.00  0.00    +0.000 C 
ENDBRANCH  15  17
ENDBRANCH   8  11
BRANCH   5  23
ATOM     23  C   UNL     1      -0.283   9.895  22.812  0.00  0.00    +0.000 C 
ATOM     24  F   UNL     1      -1.165   8.882  23.031  0.00  0.00    +0.000 F 
ATOM     25  F   UNL     1       0.798   9.621  23.593  0.00  0.00    +0.000 F 
ATOM     26  F   UNL     1      -0.856  11.010  23.338  0.00  0.00    +0.000 F 
ENDBRANCH   5  23
BRANCH   1  27
ATOM     27  C   UNL     1      -0.395  12.698  18.590  0.00  0.00    +0.000 C 
BRANCH  27  28
ATOM     28  N   UNL     1      -0.301  13.859  19.441  0.00  0.00    +0.000 N 
ATOM     29  H   UNL     1      -0.873  13.891  20.279  0.00  0.00    +0.000 HD
BRANCH  28  31
ATOM     30  C   UNL     1       1.874  14.731  18.813  0.00  0.00    +0.000 C 
ATOM     31  C   UNL     1       0.631  14.850  19.292  0.00  0.00    +0.000 C 
BRANCH  30  33
ATOM     32  C   UNL     1       3.809  15.652  17.578  0.00  0.00    +0.000 C 
ATOM     33  N   UNL     1       2.836  15.718  18.663  0.00  0.00    +0.000 N 
ATOM     34  C   UNL     1       2.941  16.852  19.578  0.00  0.00    +0.000 C 
ENDBRANCH  30  33
ENDBRANCH  28  31
ENDBRANCH  27  28
ENDBRANCH   1  27
TORSDOF 7
ENDMDL
MODEL 6
REMARK VINA RESULT:      -8.8      1.937      3.479
REMARK  Name = 
REMARK  10 active torsions:
REMARK  status: ('A' for Active; 'I' for Inactive)
REMARK    1  A    between atoms: C_1  and  N_2
REMARK    2  A    between atoms: N_2  and  C_3
REMARK    3  A    between atoms: N_2  and  C_4
REMARK    4  A    between atoms: C_5  and  N_6
REMARK    5  A    between atoms: N_6  and  C_7
REMARK    6  A    between atoms: C_7  and  C_8
REMARK    7  A    between atoms: C_12  and  C_13
REMARK    8  A    between atoms: N_19  and  C_20
REMARK    9  A    between atoms: C_24  and  C_25
REMARK   10  A    between atoms: N_29  and  C_30
REMARK                            x       y       z     vdW  Elec       q    Type
REMARK                         _______ _______ _______ _____ _____    ______ ____
ROOT
ATOM      1  C   UNL     1       0.296  11.417  19.340  0.00  0.00    +0.000 A 
ATOM      2  C   UNL     1       1.065  10.480  18.648  0.00  0.00    +0.000 A 
ATOM      3  C   UNL     1       1.363   9.297  19.289  0.00  0.00    +0.000 A 
ATOM      4  C   UNL     1       0.951   8.996  20.583  0.00  0.00    +0.000 A 
ATOM      5  C   UNL     1       0.217   9.925  21.313  0.00  0.00    +0.000 A 
ATOM      6  C   UNL     1      -0.112  11.137  20.667  0.00  0.00    +0.000 A 
ATOM      7  C   UNL     1       1.412   7.618  20.938  0.00  0.00    +0.000 C 
ATOM      8  N   UNL     1       2.148   7.190  19.752  0.00  0.00    +0.000 N 
ATOM      9  C   UNL     1       2.126   8.167  18.757  0.00  0.00    +0.000 C 
ATOM     10  O   UNL     1       2.599   8.191  17.635  0.00  0.00    +0.000 OA
ENDROOT
BRANCH   8  11
ATOM     11  C   UNL     1       2.813   5.939  19.677  0.00  0.00    +0.000 A 
ATOM     12  C   UNL     1       2.248   4.785  20.231  0.00  0.00    +0.000 A 
ATOM     13  C   UNL     1       2.894   3.554  20.155  0.00  0.00    +0.000 A 
ATOM     14  C   UNL     1       4.116   3.451  19.502  0.00  0.00    +0.000 A 
ATOM     15  C   UNL     1       4.684   4.570  18.886  0.00  0.00    +0.000 A 
ATOM     16  C   UNL     1       4.045   5.815  19.014  0.00  0.00    +0.000 A 
BRANCH  15  17
ATOM     17  C   UNL     1       5.905   4.475  18.088  0.00  0.00    +0.000 A 
ATOM     18  N   UNL     1       7.142   4.566  18.547  0.00  0.00    +0.000 NA
ATOM     19  N   UNL     1       8.013   4.504  17.485  0.00  0.00    +0.000 NA
ATOM     20  C   UNL     1       7.296   4.400  16.393  0.00  0.00    +0.000 A 
ATOM     21  N   UNL     1       5.976   4.386  16.716  0.00  0.00    +0.000 N 
ATOM     22  C   UNL     1       4.890   4.387  15.769  0.00  0.00    +0.000 C 
ENDBRANCH  15  17
ENDBRANCH   8  11
BRANCH   5  23
ATOM     23  C   UNL     1      -0.226   9.687  22.732  0.00  0.00    +0.000 C 
ATOM     24  F   UNL     1      -0.938  10.720  23.260  0.00  0.00    +0.000 F 
ATOM     25  F   UNL     1      -1.026   8.591  22.846  0.00  0.00    +0.000 F 
ATOM     26  F   UNL     1       0.818   9.482  23.577  0.00  0.00    +0.000 F 
ENDBRANCH   5  23
BRANCH   1  27
ATOM     27  C   UNL     1      -0.122  12.689  18.649  0.00  0.00    +0.000 C 
BRANCH  27  28
ATOM     28  N   UNL     1       1.020  13.358  18.074  0.00  0.00    +0.000 N 
ATOM     29  H   UNL     1       1.250  13.171  17.103  0.00  0.00    +0.000 HD
BRANCH  28  31
ATOM     30  C   UNL     1       1.377  15.649  18.789  0.00  0.00    +0.000 C 
ATOM     31  C   UNL     1       1.718  14.359  18.692  0.00  0.00    +0.000 C 
BRANCH  30  33
ATOM     32  C   UNL     1       3.496  16.547  19.692  0.00  0.00    +0.000 C 
ATOM     33  N   UNL     1       2.073  16.679  19.400  0.00  0.00    +0.000 N 
ATOM     34  C   UNL     1       1.430  17.930  19.797  0.00  0.00    +0.000 C 
ENDBRANCH  30  33
ENDBRANCH  28  31
ENDBRANCH  27  28
ENDBRANCH   1  27
TORSDOF 7
ENDMDL
MODEL 7
REMARK VINA RESULT:      -8.8      1.893      3.501
REMARK  Name = 
REMARK  10 active torsions:
REMARK  status: ('A' for Active; 'I' for Inactive)
REMARK    1  A    between atoms: C_1  and  N_2
REMARK    2  A    between atoms: N_2  and  C_3
REMARK    3  A    between atoms: N_2  and  C_4
REMARK    4  A    between atoms: C_5  and  N_6
REMARK    5  A    between atoms: N_6  and  C_7
REMARK    6  A    between atoms: C_7  and  C_8
REMARK    7  A    between atoms: C_12  and  C_13
REMARK    8  A    between atoms: N_19  and  C_20
REMARK    9  A    between atoms: C_24  and  C_25
REMARK   10  A    between atoms: N_29  and  C_30
REMARK                            x       y       z     vdW  Elec       q    Type
REMARK                         _______ _______ _______ _____ _____    ______ ____
ROOT
ATOM      1  C   UNL     1       0.211  11.603  19.413  0.00  0.00    +0.000 A 
ATOM      2  C   UNL     1       0.968  10.718  18.644  0.00  0.00    +0.000 A 
ATOM      3  C   UNL     1       1.295   9.501  19.202  0.00  0.00    +0.000 A 
ATOM      4  C   UNL     1       0.922   9.118  20.487  0.00  0.00    +0.000 A 
ATOM      5  C   UNL     1       0.200   9.992  21.292  0.00  0.00    +0.000 A 
ATOM      6  C   UNL     1      -0.158  11.239  20.731  0.00  0.00    +0.000 A 
ATOM      7  C   UNL     1       1.405   7.726  20.744  0.00  0.00    +0.000 C 
ATOM      8  N   UNL     1       2.111   7.379  19.515  0.00  0.00    +0.000 N 
ATOM      9  C   UNL     1       2.052   8.414  18.582  0.00  0.00    +0.000 C 
ATOM     10  O   UNL     1       2.494   8.511  17.451  0.00  0.00    +0.000 OA
ENDROOT
BRANCH   8  11
ATOM     11  C   UNL     1       2.786   6.142  19.345  0.00  0.00    +0.000 A 
ATOM     12  C   UNL     1       2.477   5.035  20.143  0.00  0.00    +0.000 A 
ATOM     13  C   UNL     1       3.133   3.817  19.977  0.00  0.00    +0.000 A 
ATOM     14  C   UNL     1       4.100   3.679  18.990  0.00  0.00    +0.000 A 
ATOM     15  C   UNL     1       4.393   4.746  18.135  0.00  0.00    +0.000 A 
ATOM     16  C   UNL     1       3.760   5.982  18.347  0.00  0.00    +0.000 A 
BRANCH  15  17
ATOM     17  C   UNL     1       5.315   4.601  17.010  0.00  0.00    +0.000 A 
ATOM     18  N   UNL     1       5.008   4.147  15.807  0.00  0.00    +0.000 NA
ATOM     19  N   UNL     1       6.155   4.086  15.050  0.00  0.00    +0.000 NA
ATOM     20  C   UNL     1       7.148   4.481  15.809  0.00  0.00    +0.000 A 
ATOM     21  N   UNL     1       6.677   4.804  17.042  0.00  0.00    +0.000 N 
ATOM     22  C   UNL     1       7.492   5.178  18.169  0.00  0.00    +0.000 C 
ENDBRANCH  15  17
ENDBRANCH   8  11
BRANCH   5  23
ATOM     23  C   UNL     1      -0.201   9.664  22.706  0.00  0.00    +0.000 C 
ATOM     24  F   UNL     1      -0.993   8.561  22.804  0.00  0.00    +0.000 F 
ATOM     25  F   UNL     1       0.875   9.419  23.503  0.00  0.00    +0.000 F 
ATOM     26  F   UNL     1      -0.890  10.673  23.300  0.00  0.00    +0.000 F 
ENDBRANCH   5  23
BRANCH   1  27
ATOM     27  C   UNL     1      -0.238  12.910  18.813  0.00  0.00    +0.000 C 
BRANCH  27  28
ATOM     28  N   UNL     1       0.806  13.486  18.001  0.00  0.00    +0.000 N 
ATOM     29  H   UNL     1       0.686  13.492  16.993  0.00  0.00    +0.000 HD
BRANCH  28  31
ATOM     30  C   UNL     1       3.168  14.002  18.212  0.00  0.00    +0.000 C 
ATOM     31  C   UNL     1       1.874  14.181  18.500  0.00  0.00    +0.000 C 
BRANCH  30  33
ATOM     32  C   UNL     1       5.509  14.756  17.957  0.00  0.00    +0.000 C 
ATOM     33  N   UNL     1       4.263  14.687  18.713  0.00  0.00    +0.000 N 
ATOM     34  C   UNL     1       4.241  15.353  20.013  0.00  0.00    +0.000 C 
ENDBRANCH  30  33
ENDBRANCH  28  31
ENDBRANCH  27  28
ENDBRANCH   1  27
TORSDOF 7
ENDMDL
MODEL 8
REMARK VINA RESULT:      -8.7      0.885      1.133
REMARK  Name = 
REMARK  10 active torsions:
REMARK  status: ('A' for Active; 'I' for Inactive)
REMARK    1  A    between atoms: C_1  and  N_2
REMARK    2  A    between atoms: N_2  and  C_3
REMARK    3  A    between atoms: N_2  and  C_4
REMARK    4  A    between atoms: C_5  and  N_6
REMARK    5  A    between atoms: N_6  and  C_7
REMARK    6  A    between atoms: C_7  and  C_8
REMARK    7  A    between atoms: C_12  and  C_13
REMARK    8  A    between atoms: N_19  and  C_20
REMARK    9  A    between atoms: C_24  and  C_25
REMARK   10  A    between atoms: N_29  and  C_30
REMARK                            x       y       z     vdW  Elec       q    Type
REMARK                         _______ _______ _______ _____ _____    ______ ____
ROOT
ATOM      1  C   UNL     1      -0.135  11.511  19.401  0.00  0.00    +0.000 A 
ATOM      2  C   UNL     1       0.649  10.685  18.594  0.00  0.00    +0.000 A 
ATOM      3  C   UNL     1       1.123   9.514  19.145  0.00  0.00    +0.000 A 
ATOM      4  C   UNL     1       0.873   9.123  20.457  0.00  0.00    +0.000 A 
ATOM      5  C   UNL     1       0.127   9.943  21.297  0.00  0.00    +0.000 A 
ATOM      6  C   UNL     1      -0.381  11.140  20.745  0.00  0.00    +0.000 A 
ATOM      7  C   UNL     1       1.499   7.786  20.699  0.00  0.00    +0.000 C 
ATOM      8  N   UNL     1       2.152   7.482  19.430  0.00  0.00    +0.000 N 
ATOM      9  C   UNL     1       1.935   8.489  18.489  0.00  0.00    +0.000 C 
ATOM     10  O   UNL     1       2.290   8.605  17.330  0.00  0.00    +0.000 OA
ENDROOT
BRANCH   8  11
ATOM     11  C   UNL     1       2.925   6.309  19.231  0.00  0.00    +0.000 A 
ATOM     12  C   UNL     1       2.814   5.215  20.096  0.00  0.00    +0.000 A 
ATOM     13  C   UNL     1       3.568   4.059  19.902  0.00  0.00    +0.000 A 
ATOM     14  C   UNL     1       4.435   3.970  18.821  0.00  0.00    +0.000 A 
ATOM     15  C   UNL     1       4.530   5.020  17.904  0.00  0.00    +0.000 A 
ATOM     16  C   UNL     1       3.802   6.199  18.140  0.00  0.00    +0.000 A 
BRANCH  15  17
ATOM     17  C   UNL     1       5.339   4.914  16.691  0.00  0.00    +0.000 A 
ATOM     18  N   UNL     1       5.096   4.120  15.661  0.00  0.00    +0.000 NA
ATOM     19  N   UNL     1       6.121   4.247  14.753  0.00  0.00    +0.000 NA
ATOM     20  C   UNL     1       6.985   5.097  15.252  0.00  0.00    +0.000 A 
ATOM     21  N   UNL     1       6.547   5.534  16.461  0.00  0.00    +0.000 N 
ATOM     22  C   UNL     1       7.285   6.395  17.349  0.00  0.00    +0.000 C 
ENDBRANCH  15  17
ENDBRANCH   8  11
BRANCH   5  23
ATOM     23  C   UNL     1      -0.147   9.606  22.739  0.00  0.00    +0.000 C 
ATOM     24  F   UNL     1       0.980   9.380  23.469  0.00  0.00    +0.000 F 
ATOM     25  F   UNL     1      -0.811  10.604  23.385  0.00  0.00    +0.000 F 
ATOM     26  F   UNL     1      -0.912   8.492  22.878  0.00  0.00    +0.000 F 
ENDBRANCH   5  23
BRANCH   1  27
ATOM     27  C   UNL     1      -0.743  12.759  18.815  0.00  0.00    +0.000 C 
BRANCH  27  28
ATOM     28  N   UNL     1      -2.041  13.016  19.391  0.00  0.00    +0.000 N 
ATOM     29  H   UNL     1      -2.166  13.859  19.943  0.00  0.00    +0.000 HD
BRANCH  28  31
ATOM     30  C   UNL     1      -4.388  12.449  19.625  0.00  0.00    +0.000 C 
ATOM     31  C   UNL     1      -3.166  12.291  19.107  0.00  0.00    +0.000 C 
BRANCH  30  33
ATOM     32  C   UNL     1      -6.592  11.601  20.360  0.00  0.00    +0.000 C 
ATOM     33  N   UNL     1      -5.537  11.719  19.360  0.00  0.00    +0.000 N 
ATOM     34  C   UNL     1      -5.745  11.025  18.092  0.00  0.00    +0.000 C 
ENDBRANCH  30  33
ENDBRANCH  28  31
ENDBRANCH  27  28
ENDBRANCH   1  27
TORSDOF 7
ENDMDL
MODEL 9
REMARK VINA RESULT:      -8.7      1.031      1.337
REMARK  Name = 
REMARK  10 active torsions:
REMARK  status: ('A' for Active; 'I' for Inactive)
REMARK    1  A    between atoms: C_1  and  N_2
REMARK    2  A    between atoms: N_2  and  C_3
REMARK    3  A    between atoms: N_2  and  C_4
REMARK    4  A    between atoms: C_5  and  N_6
REMARK    5  A    between atoms: N_6  and  C_7
REMARK    6  A    between atoms: C_7  and  C_8
REMARK    7  A    between atoms: C_12  and  C_13
REMARK    8  A    between atoms: N_19  and  C_20
REMARK    9  A    between atoms: C_24  and  C_25
REMARK   10  A    between atoms: N_29  and  C_30
REMARK                            x       y       z     vdW  Elec       q    Type
REMARK                         _______ _______ _______ _____ _____    ______ ____
ROOT
ATOM      1  C   UNL     1      -0.242  11.631  19.524  0.00  0.00    +0.000 A 
ATOM      2  C   UNL     1       0.542  10.838  18.684  0.00  0.00    +0.000 A 
ATOM      3  C   UNL     1       1.033   9.656  19.195  0.00  0.00    +0.000 A 
ATOM      4  C   UNL     1       0.800   9.222  20.497  0.00  0.00    +0.000 A 
ATOM      5  C   UNL     1       0.056  10.009  21.369  0.00  0.00    +0.000 A 
ATOM      6  C   UNL     1      -0.469  11.217  20.859  0.00  0.00    +0.000 A 
ATOM      7  C   UNL     1       1.442   7.885  20.692  0.00  0.00    +0.000 C 
ATOM      8  N   UNL     1       2.084   7.626  19.407  0.00  0.00    +0.000 N 
ATOM      9  C   UNL     1       1.848   8.659  18.500  0.00  0.00    +0.000 C 
ATOM     10  O   UNL     1       2.190   8.813  17.341  0.00  0.00    +0.000 OA
ENDROOT
BRANCH   8  11
ATOM     11  C   UNL     1       2.867   6.468  19.164  0.00  0.00    +0.000 A 
ATOM     12  C   UNL     1       2.679   5.299  19.912  0.00  0.00    +0.000 A 
ATOM     13  C   UNL     1       3.441   4.158  19.675  0.00  0.00    +0.000 A 
ATOM     14  C   UNL     1       4.396   4.158  18.666  0.00  0.00    +0.000 A 
ATOM     15  C   UNL     1       4.571   5.288  17.861  0.00  0.00    +0.000 A 
ATOM     16  C   UNL     1       3.831   6.448  18.145  0.00  0.00    +0.000 A 
BRANCH  15  17
ATOM     17  C   UNL     1       5.479   5.284  16.715  0.00  0.00    +0.000 A 
ATOM     18  N   UNL     1       5.132   5.430  15.447  0.00  0.00    +0.000 NA
ATOM     19  N   UNL     1       6.253   5.293  14.662  0.00  0.00    +0.000 NA
ATOM     20  C   UNL     1       7.262   5.042  15.460  0.00  0.00    +0.000 A 
ATOM     21  N   UNL     1       6.830   5.018  16.748  0.00  0.00    +0.000 N 
ATOM     22  C   UNL     1       7.639   4.669  17.888  0.00  0.00    +0.000 C 
ENDBRANCH  15  17
ENDBRANCH   8  11
BRANCH   5  23
ATOM     23  C   UNL     1      -0.200   9.626  22.803  0.00  0.00    +0.000 C 
ATOM     24  F   UNL     1      -0.877  10.575  23.506  0.00  0.00    +0.000 F 
ATOM     25  F   UNL     1      -0.940   8.489  22.909  0.00  0.00    +0.000 F 
ATOM     26  F   UNL     1       0.947   9.396  23.494  0.00  0.00    +0.000 F 
ENDBRANCH   5  23
BRANCH   1  27
ATOM     27  C   UNL     1      -0.867  12.891  18.983  0.00  0.00    +0.000 C 
BRANCH  27  28
ATOM     28  N   UNL     1      -2.155  13.124  19.591  0.00  0.00    +0.000 N 
ATOM     29  H   UNL     1      -2.319  14.017  20.045  0.00  0.00    +0.000 HD
BRANCH  28  31
ATOM     30  C   UNL     1      -4.528  12.632  19.468  0.00  0.00    +0.000 C 
ATOM     31  C   UNL     1      -3.234  12.295  19.450  0.00  0.00    +0.000 C 
BRANCH  30  33
ATOM     32  C   UNL     1      -5.936  11.159  18.067  0.00  0.00    +0.000 C 
ATOM     33  N   UNL     1      -5.634  11.808  19.339  0.00  0.00    +0.000 N 
ATOM     34  C   UNL     1      -6.555  11.557  20.445  0.00  0.00    +0.000 C 
ENDBRANCH  30  33
ENDBRANCH  28  31
ENDBRANCH  27  28
ENDBRANCH   1  27
TORSDOF 7
ENDMDL
