MODEL 1
REMARK VINA RESULT:     -10.3      0.000      0.000
REMARK  Name = 
REMARK  3 active torsions:
REMARK  status: ('A' for Active; 'I' for Inactive)
REMARK    1  A    between atoms: C_1  and  C_2
REMARK    2  A    between atoms: C_5  and  C_6
REMARK    3  A    between atoms: C_13  and  C_14
REMARK                            x       y       z     vdW  Elec       q    Type
REMARK                         _______ _______ _______ _____ _____    ______ ____
ROOT
ATOM      1  C   UNL     1       1.662   7.627  20.235  0.00  0.00    +0.000 C 
ATOM      2  O   UNL     1       2.183   7.827  19.140  0.00  0.00    +0.000 OA
ATOM      3  N   UNL     1       1.667   6.439  20.934  0.00  0.00    +0.000 N 
ATOM      4  C   UNL     1       2.363   5.288  20.544  0.00  0.00    +0.000 A 
ATOM      5  C   UNL     1       2.095   4.105  21.219  0.00  0.00    +0.000 A 
ATOM      6  C   UNL     1       2.757   2.946  20.828  0.00  0.00    +0.000 A 
ATOM      7  C   UNL     1       3.691   3.009  19.801  0.00  0.00    +0.000 A 
ATOM      8  C   UNL     1       3.945   4.235  19.192  0.00  0.00    +0.000 A 
ATOM      9  N   UNL     1       3.267   5.351  19.551  0.00  0.00    +0.000 NA
ATOM     10  H   UNL     1       1.123   6.384  21.790  0.00  0.00    +0.000 HD
ENDROOT
BRANCH   1  15
ATOM     11  C   UNL     1      -1.285  11.857  22.945  0.00  0.00    +0.000 C 
ATOM     12  C   UNL     1      -0.532  10.747  22.282  0.00  0.00    +0.000 A 
ATOM     13  C   UNL     1       0.051   9.740  22.949  0.00  0.00    +0.000 A 
ATOM     14  C   UNL     1       0.769   8.713  22.232  0.00  0.00    +0.000 A 
ATOM     15  C   UNL     1       0.888   8.730  20.889  0.00  0.00    +0.000 A 
ATOM     16  C   UNL     1       0.243   9.854  20.151  0.00  0.00    +0.000 A 
ATOM     17  O   UNL     1       0.321   9.959  18.928  0.00  0.00    +0.000 OA
ATOM     18  N   UNL     1      -0.433  10.783  20.909  0.00  0.00    +0.000 N 
ATOM     19  H   UNL     1      -0.870  11.539  20.393  0.00  0.00    +0.000 HD
ENDBRANCH   1  15
BRANCH   8  20
ATOM     20  C   UNL     1       4.956   4.420  18.128  0.00  0.00    +0.000 A 
ATOM     21  C   UNL     1       6.295   4.778  18.432  0.00  0.00    +0.000 A 
ATOM     22  C   UNL     1       7.260   4.954  17.434  0.00  0.00    +0.000 A 
ATOM     23  C   UNL     1       6.875   4.763  16.127  0.00  0.00    +0.000 A 
ATOM     24  C   UNL     1       5.574   4.434  15.790  0.00  0.00    +0.000 A 
ATOM     25  C   UNL     1       4.605   4.273  16.767  0.00  0.00    +0.000 A 
ATOM     26  C   UNL     1       5.454   4.387  14.316  0.00  0.00    +0.000 C 
ATOM     27  C   UNL     1       6.941   4.321  13.964  0.00  0.00    +0.000 C 
ATOM     28  O   UNL     1       7.708   4.899  15.047  0.00  0.00    +0.000 OA
ENDBRANCH   8  20
TORSDOF 2
ENDMDL
MODEL 2
REMARK VINA RESULT:      -9.8      1.150      1.435
REMARK  Name = 
REMARK  3 active torsions:
REMARK  status: ('A' for Active; 'I' for Inactive)
REMARK    1  A    between atoms: C_1  and  C_2
REMARK    2  A    between atoms: C_5  and  C_6
REMARK    3  A    between atoms: C_13  and  C_14
REMARK                            x       y       z     vdW  Elec       q    Type
REMARK                         _______ _______ _______ _____ _____    ______ ____
ROOT
ATOM      1  C   UNL     1       1.501   8.298  19.922  0.00  0.00    +0.000 C 
ATOM      2  O   UNL     1       2.028   8.464  18.824  0.00  0.00    +0.000 OA
ATOM      3  N   UNL     1       1.522   7.139  20.668  0.00  0.00    +0.000 N 
ATOM      4  C   UNL     1       2.242   5.986  20.330  0.00  0.00    +0.000 A 
ATOM      5  C   UNL     1       1.990   4.827  21.049  0.00  0.00    +0.000 A 
ATOM      6  C   UNL     1       2.677   3.665  20.711  0.00  0.00    +0.000 A 
ATOM      7  C   UNL     1       3.620   3.705  19.690  0.00  0.00    +0.000 A 
ATOM      8  C   UNL     1       3.856   4.911  19.034  0.00  0.00    +0.000 A 
ATOM      9  N   UNL     1       3.154   6.027  19.343  0.00  0.00    +0.000 NA
ATOM     10  H   UNL     1       0.971   7.108  21.520  0.00  0.00    +0.000 HD
ENDROOT
BRANCH   1  15
ATOM     11  C   UNL     1      -1.716  12.634  22.107  0.00  0.00    +0.000 C 
ATOM     12  C   UNL     1      -0.896  11.534  21.508  0.00  0.00    +0.000 A 
ATOM     13  C   UNL     1      -0.991  11.148  20.227  0.00  0.00    +0.000 A 
ATOM     14  C   UNL     1      -0.170  10.069  19.731  0.00  0.00    +0.000 A 
ATOM     15  C   UNL     1       0.701   9.411  20.524  0.00  0.00    +0.000 A 
ATOM     16  C   UNL     1       0.798   9.839  21.949  0.00  0.00    +0.000 A 
ATOM     17  O   UNL     1       1.550   9.279  22.746  0.00  0.00    +0.000 OA
ATOM     18  N   UNL     1      -0.009  10.885  22.337  0.00  0.00    +0.000 N 
ATOM     19  H   UNL     1       0.072  11.167  23.307  0.00  0.00    +0.000 HD
ENDBRANCH   1  15
BRANCH   8  20
ATOM     20  C   UNL     1       4.874   5.073  17.973  0.00  0.00    +0.000 A 
ATOM     21  C   UNL     1       6.101   5.742  18.218  0.00  0.00    +0.000 A 
ATOM     22  C   UNL     1       7.071   5.899  17.222  0.00  0.00    +0.000 A 
ATOM     23  C   UNL     1       6.805   5.375  15.978  0.00  0.00    +0.000 A 
ATOM     24  C   UNL     1       5.612   4.734  15.695  0.00  0.00    +0.000 A 
ATOM     25  C   UNL     1       4.636   4.587  16.668  0.00  0.00    +0.000 A 
ATOM     26  C   UNL     1       5.588   4.367  14.262  0.00  0.00    +0.000 C 
ATOM     27  C   UNL     1       7.079   4.526  13.957  0.00  0.00    +0.000 C 
ATOM     28  O   UNL     1       7.658   5.452  14.908  0.00  0.00    +0.000 OA
ENDBRANCH   8  20
TORSDOF 2
ENDMDL
MODEL 3
REMARK VINA RESULT:      -9.2      2.125      2.662
REMARK  Name = 
REMARK  3 active torsions:
REMARK  status: ('A' for Active; 'I' for Inactive)
REMARK    1  A    between atoms: C_1  and  C_2
REMARK    2  A    between atoms: C_5  and  C_6
REMARK    3  A    between atoms: C_13  and  C_14
REMARK                            x       y       z     vdW  Elec       q    Type
REMARK                         _______ _______ _______ _____ _____    ______ ____
ROOT
ATOM      1  C   UNL     1       1.727   9.645  18.611  0.00  0.00    +0.000 C 
ATOM      2  O   UNL     1       2.411   9.379  17.625  0.00  0.00    +0.000 OA
ATOM      3  N   UNL     1       1.423   8.789  19.647  0.00  0.00    +0.000 N 
ATOM      4  C   UNL     1       1.937   7.493  19.787  0.00  0.00    +0.000 A 
ATOM      5  C   UNL     1       1.371   6.669  20.750  0.00  0.00    +0.000 A 
ATOM      6  C   UNL     1       1.851   5.370  20.886  0.00  0.00    +0.000 A 
ATOM      7  C   UNL     1       2.904   4.946  20.083  0.00  0.00    +0.000 A 
ATOM      8  C   UNL     1       3.456   5.836  19.165  0.00  0.00    +0.000 A 
ATOM      9  N   UNL     1       2.957   7.085  19.011  0.00  0.00    +0.000 NA
ATOM     10  H   UNL     1       0.773   9.109  20.359  0.00  0.00    +0.000 HD
ENDROOT
BRANCH   1  15
ATOM     11  C   UNL     1      -0.571  14.985  18.963  0.00  0.00    +0.000 C 
ATOM     12  C   UNL     1       0.056  13.629  18.881  0.00  0.00    +0.000 A 
ATOM     13  C   UNL     1       1.366  13.426  18.677  0.00  0.00    +0.000 A 
ATOM     14  C   UNL     1       1.888  12.082  18.599  0.00  0.00    +0.000 A 
ATOM     15  C   UNL     1       1.094  10.999  18.716  0.00  0.00    +0.000 A 
ATOM     16  C   UNL     1      -0.363  11.229  18.937  0.00  0.00    +0.000 A 
ATOM     17  O   UNL     1      -1.161  10.298  19.033  0.00  0.00    +0.000 OA
ATOM     18  N   UNL     1      -0.776  12.540  19.013  0.00  0.00    +0.000 N 
ATOM     19  H   UNL     1      -1.768  12.680  19.168  0.00  0.00    +0.000 HD
ENDBRANCH   1  15
BRANCH   8  20
ATOM     20  C   UNL     1       4.611   5.503  18.304  0.00  0.00    +0.000 A 
ATOM     21  C   UNL     1       5.875   5.168  18.855  0.00  0.00    +0.000 A 
ATOM     22  C   UNL     1       6.974   4.849  18.050  0.00  0.00    +0.000 A 
ATOM     23  C   UNL     1       6.796   4.863  16.685  0.00  0.00    +0.000 A 
ATOM     24  C   UNL     1       5.585   5.205  16.110  0.00  0.00    +0.000 A 
ATOM     25  C   UNL     1       4.493   5.538  16.896  0.00  0.00    +0.000 A 
ATOM     26  C   UNL     1       5.734   5.215  14.638  0.00  0.00    +0.000 C 
ATOM     27  C   UNL     1       7.046   4.434  14.533  0.00  0.00    +0.000 C 
ATOM     28  O   UNL     1       7.778   4.573  15.774  0.00  0.00    +0.000 OA
ENDBRANCH   8  20
TORSDOF 2
ENDMDL
MODEL 4
REMARK VINA RESULT:      -9.1      1.869      8.586
REMARK  Name = 
REMARK  3 active torsions:
REMARK  status: ('A' for Active; 'I' for Inactive)
REMARK    1  A    between atoms: C_1  and  C_2
REMARK    2  A    between atoms: C_5  and  C_6
REMARK    3  A    between atoms: C_13  and  C_14
REMARK                            x       y       z     vdW  Elec       q    Type
REMARK                         _______ _______ _______ _____ _____    ______ ____
ROOT
ATOM      1  C   UNL     1       4.694   5.687  16.863  0.00  0.00    +0.000 C 
ATOM      2  O   UNL     1       4.611   6.888  17.108  0.00  0.00    +0.000 OA
ATOM      3  N   UNL     1       4.181   4.662  17.629  0.00  0.00    +0.000 N 
ATOM      4  C   UNL     1       3.388   4.839  18.770  0.00  0.00    +0.000 A 
ATOM      5  C   UNL     1       3.135   3.730  19.566  0.00  0.00    +0.000 A 
ATOM      6  C   UNL     1       2.373   3.892  20.718  0.00  0.00    +0.000 A 
ATOM      7  C   UNL     1       1.856   5.147  21.021  0.00  0.00    +0.000 A 
ATOM      8  C   UNL     1       2.112   6.210  20.159  0.00  0.00    +0.000 A 
ATOM      9  N   UNL     1       2.889   6.053  19.062  0.00  0.00    +0.000 NA
ATOM     10  H   UNL     1       4.396   3.707  17.358  0.00  0.00    +0.000 HD
ENDROOT
BRANCH   1  15
ATOM     11  C   UNL     1       7.522   3.883  12.101  0.00  0.00    +0.000 C 
ATOM     12  C   UNL     1       6.767   4.317  13.319  0.00  0.00    +0.000 A 
ATOM     13  C   UNL     1       5.482   4.009  13.548  0.00  0.00    +0.000 A 
ATOM     14  C   UNL     1       4.825   4.478  14.745  0.00  0.00    +0.000 A 
ATOM     15  C   UNL     1       5.462   5.239  15.658  0.00  0.00    +0.000 A 
ATOM     16  C   UNL     1       6.889   5.584  15.397  0.00  0.00    +0.000 A 
ATOM     17  O   UNL     1       7.539   6.290  16.167  0.00  0.00    +0.000 OA
ATOM     18  N   UNL     1       7.444   5.085  14.241  0.00  0.00    +0.000 N 
ATOM     19  H   UNL     1       8.416   5.324  14.079  0.00  0.00    +0.000 HD
ENDBRANCH   1  15
BRANCH   8  20
ATOM     20  C   UNL     1       1.565   7.570  20.362  0.00  0.00    +0.000 A 
ATOM     21  C   UNL     1       1.637   8.557  19.345  0.00  0.00    +0.000 A 
ATOM     22  C   UNL     1       1.122   9.845  19.526  0.00  0.00    +0.000 A 
ATOM     23  C   UNL     1       0.527  10.137  20.732  0.00  0.00    +0.000 A 
ATOM     24  C   UNL     1       0.456   9.207  21.754  0.00  0.00    +0.000 A 
ATOM     25  C   UNL     1       0.978   7.933  21.594  0.00  0.00    +0.000 A 
ATOM     26  C   UNL     1      -0.152   9.842  22.943  0.00  0.00    +0.000 C 
ATOM     27  C   UNL     1      -0.757  11.072  22.265  0.00  0.00    +0.000 C 
ATOM     28  O   UNL     1      -0.020  11.352  21.051  0.00  0.00    +0.000 OA
ENDBRANCH   8  20
TORSDOF 2
ENDMDL
MODEL 5
REMARK VINA RESULT:      -9.0      1.831      2.163
REMARK  Name = 
REMARK  3 active torsions:
REMARK  status: ('A' for Active; 'I' for Inactive)
REMARK    1  A    between atoms: C_1  and  C_2
REMARK    2  A    between atoms: C_5  and  C_6
REMARK    3  A    between atoms: C_13  and  C_14
REMARK                            x       y       z     vdW  Elec       q    Type
REMARK                         _______ _______ _______ _____ _____    ______ ____
ROOT
ATOM      1  C   UNL     1       1.576   9.275  18.734  0.00  0.00    +0.000 C 
ATOM      2  O   UNL     1       2.126   9.178  17.639  0.00  0.00    +0.000 OA
ATOM      3  N   UNL     1       1.534   8.305  19.712  0.00  0.00    +0.000 N 
ATOM      4  C   UNL     1       2.208   7.078  19.648  0.00  0.00    +0.000 A 
ATOM      5  C   UNL     1       1.895   6.113  20.595  0.00  0.00    +0.000 A 
ATOM      6  C   UNL     1       2.534   4.879  20.531  0.00  0.00    +0.000 A 
ATOM      7  C   UNL     1       3.492   4.660  19.548  0.00  0.00    +0.000 A 
ATOM      8  C   UNL     1       3.791   5.685  18.654  0.00  0.00    +0.000 A 
ATOM      9  N   UNL     1       3.135   6.868  18.698  0.00  0.00    +0.000 NA
ATOM     10  H   UNL     1       0.970   8.481  20.538  0.00  0.00    +0.000 HD
ENDROOT
BRANCH   1  15
ATOM     11  C   UNL     1      -1.500  14.025  20.109  0.00  0.00    +0.000 C 
ATOM     12  C   UNL     1      -0.744  12.783  19.757  0.00  0.00    +0.000 A 
ATOM     13  C   UNL     1      -1.202  11.543  19.986  0.00  0.00    +0.000 A 
ATOM     14  C   UNL     1      -0.402  10.396  19.625  0.00  0.00    +0.000 A 
ATOM     15  C   UNL     1       0.817  10.523  19.063  0.00  0.00    +0.000 A 
ATOM     16  C   UNL     1       1.324  11.903  18.816  0.00  0.00    +0.000 A 
ATOM     17  O   UNL     1       2.434  12.110  18.328  0.00  0.00    +0.000 OA
ATOM     18  N   UNL     1       0.494  12.941  19.176  0.00  0.00    +0.000 N 
ATOM     19  H   UNL     1       0.851  13.872  18.998  0.00  0.00    +0.000 HD
ENDBRANCH   1  15
BRANCH   8  20
ATOM     20  C   UNL     1       4.831   5.572  17.607  0.00  0.00    +0.000 A 
ATOM     21  C   UNL     1       6.124   6.128  17.784  0.00  0.00    +0.000 A 
ATOM     22  C   UNL     1       7.115   6.027  16.801  0.00  0.00    +0.000 A 
ATOM     23  C   UNL     1       6.802   5.357  15.640  0.00  0.00    +0.000 A 
ATOM     24  C   UNL     1       5.546   4.819  15.423  0.00  0.00    +0.000 A 
ATOM     25  C   UNL     1       4.551   4.927  16.382  0.00  0.00    +0.000 A 
ATOM     26  C   UNL     1       5.494   4.248  14.059  0.00  0.00    +0.000 C 
ATOM     27  C   UNL     1       6.996   4.192  13.774  0.00  0.00    +0.000 C 
ATOM     28  O   UNL     1       7.668   5.177  14.593  0.00  0.00    +0.000 OA
ENDBRANCH   8  20
TORSDOF 2
ENDMDL
MODEL 6
REMARK VINA RESULT:      -9.0      1.405      1.599
REMARK  Name = 
REMARK  3 active torsions:
REMARK  status: ('A' for Active; 'I' for Inactive)
REMARK    1  A    between atoms: C_1  and  C_2
REMARK    2  A    between atoms: C_5  and  C_6
REMARK    3  A    between atoms: C_13  and  C_14
REMARK                            x       y       z     vdW  Elec       q    Type
REMARK                         _______ _______ _______ _____ _____    ______ ____
ROOT
ATOM      1  C   UNL     1       1.403   8.914  19.205  0.00  0.00    +0.000 C 
ATOM      2  O   UNL     1       1.965   8.920  18.112  0.00  0.00    +0.000 OA
ATOM      3  N   UNL     1       1.391   7.874  20.110  0.00  0.00    +0.000 N 
ATOM      4  C   UNL     1       2.112   6.682  19.963  0.00  0.00    +0.000 A 
ATOM      5  C   UNL     1       1.829   5.638  20.832  0.00  0.00    +0.000 A 
ATOM      6  C   UNL     1       2.516   4.438  20.686  0.00  0.00    +0.000 A 
ATOM      7  C   UNL     1       3.490   4.328  19.699  0.00  0.00    +0.000 A 
ATOM      8  C   UNL     1       3.756   5.426  18.887  0.00  0.00    +0.000 A 
ATOM      9  N   UNL     1       3.055   6.578  19.010  0.00  0.00    +0.000 NA
ATOM     10  H   UNL     1       0.813   7.967  20.940  0.00  0.00    +0.000 HD
ENDROOT
BRANCH   1  15
ATOM     11  C   UNL     1      -1.613  13.587  20.935  0.00  0.00    +0.000 C 
ATOM     12  C   UNL     1      -0.823  12.382  20.528  0.00  0.00    +0.000 A 
ATOM     13  C   UNL     1       0.238  11.923  21.209  0.00  0.00    +0.000 A 
ATOM     14  C   UNL     1       0.952  10.759  20.740  0.00  0.00    +0.000 A 
ATOM     15  C   UNL     1       0.593  10.105  19.617  0.00  0.00    +0.000 A 
ATOM     16  C   UNL     1      -0.583  10.622  18.860  0.00  0.00    +0.000 A 
ATOM     17  O   UNL     1      -0.964  10.100  17.814  0.00  0.00    +0.000 OA
ATOM     18  N   UNL     1      -1.216  11.728  19.382  0.00  0.00    +0.000 N 
ATOM     19  H   UNL     1      -2.016  12.065  18.860  0.00  0.00    +0.000 HD
ENDBRANCH   1  15
BRANCH   8  20
ATOM     20  C   UNL     1       4.808   5.431  17.846  0.00  0.00    +0.000 A 
ATOM     21  C   UNL     1       6.071   6.036  18.071  0.00  0.00    +0.000 A 
ATOM     22  C   UNL     1       7.073   6.045  17.094  0.00  0.00    +0.000 A 
ATOM     23  C   UNL     1       6.802   5.436  15.890  0.00  0.00    +0.000 A 
ATOM     24  C   UNL     1       5.575   4.854  15.626  0.00  0.00    +0.000 A 
ATOM     25  C   UNL     1       4.569   4.853  16.579  0.00  0.00    +0.000 A 
ATOM     26  C   UNL     1       5.561   4.370  14.228  0.00  0.00    +0.000 C 
ATOM     27  C   UNL     1       7.066   4.404  13.956  0.00  0.00    +0.000 C 
ATOM     28  O   UNL     1       7.684   5.366  14.843  0.00  0.00    +0.000 OA
ENDBRANCH   8  20
TORSDOF 2
ENDMDL
MODEL 7
REMARK VINA RESULT:      -8.8      2.020      8.343
REMARK  Name = 
REMARK  3 active torsions:
REMARK  status: ('A' for Active; 'I' for Inactive)
REMARK    1  A    between atoms: C_1  and  C_2
REMARK    2  A    between atoms: C_5  and  C_6
REMARK    3  A    between atoms: C_13  and  C_14
REMARK                            x       y       z     vdW  Elec       q    Type
REMARK                         _______ _______ _______ _____ _____    ______ ____
ROOT
ATOM      1  C   UNL     1       4.685   5.774  16.911  0.00  0.00    +0.000 C 
ATOM      2  O   UNL     1       4.716   6.970  17.195  0.00  0.00    +0.000 OA
ATOM      3  N   UNL     1       4.041   4.785  17.622  0.00  0.00    +0.000 N 
ATOM      4  C   UNL     1       3.226   5.008  18.739  0.00  0.00    +0.000 A 
ATOM      5  C   UNL     1       2.830   3.907  19.486  0.00  0.00    +0.000 A 
ATOM      6  C   UNL     1       2.043   4.111  20.615  0.00  0.00    +0.000 A 
ATOM      7  C   UNL     1       1.645   5.402  20.943  0.00  0.00    +0.000 A 
ATOM      8  C   UNL     1       2.042   6.459  20.128  0.00  0.00    +0.000 A 
ATOM      9  N   UNL     1       2.841   6.257  19.055  0.00  0.00    +0.000 NA
ATOM     10  H   UNL     1       4.168   3.822  17.326  0.00  0.00    +0.000 HD
ENDROOT
BRANCH   1  15
ATOM     11  C   UNL     1       7.502   3.816  12.204  0.00  0.00    +0.000 C 
ATOM     12  C   UNL     1       6.750   4.290  13.409  0.00  0.00    +0.000 A 
ATOM     13  C   UNL     1       5.462   3.999  13.645  0.00  0.00    +0.000 A 
ATOM     14  C   UNL     1       4.808   4.507  14.828  0.00  0.00    +0.000 A 
ATOM     15  C   UNL     1       5.451   5.287  15.720  0.00  0.00    +0.000 A 
ATOM     16  C   UNL     1       6.881   5.613  15.451  0.00  0.00    +0.000 A 
ATOM     17  O   UNL     1       7.535   6.336  16.201  0.00  0.00    +0.000 OA
ATOM     18  N   UNL     1       7.433   5.078  14.309  0.00  0.00    +0.000 N 
ATOM     19  H   UNL     1       8.406   5.305  14.142  0.00  0.00    +0.000 HD
ENDBRANCH   1  15
BRANCH   8  20
ATOM     20  C   UNL     1       1.629   7.861  20.358  0.00  0.00    +0.000 A 
ATOM     21  C   UNL     1       1.248   8.321  21.645  0.00  0.00    +0.000 A 
ATOM     22  C   UNL     1       0.857   9.645  21.874  0.00  0.00    +0.000 A 
ATOM     23  C   UNL     1       0.857  10.509  20.803  0.00  0.00    +0.000 A 
ATOM     24  C   UNL     1       1.202  10.093  19.529  0.00  0.00    +0.000 A 
ATOM     25  C   UNL     1       1.575   8.780  19.286  0.00  0.00    +0.000 A 
ATOM     26  C   UNL     1       1.018  11.218  18.587  0.00  0.00    +0.000 C 
ATOM     27  C   UNL     1       0.939  12.360  19.602  0.00  0.00    +0.000 C 
ATOM     28  O   UNL     1       0.500  11.830  20.875  0.00  0.00    +0.000 OA
ENDBRANCH   8  20
TORSDOF 2
ENDMDL
MODEL 8
REMARK VINA RESULT:      -8.7      2.277      8.807
REMARK  Name = 
REMARK  3 active torsions:
REMARK  status: ('A' for Active; 'I' for Inactive)
REMARK    1  A    between atoms: C_1  and  C_2
REMARK    2  A    between atoms: C_5  and  C_6
REMARK    3  A    between atoms: C_13  and  C_14
REMARK                            x       y       z     vdW  Elec       q    Type
REMARK                         _______ _______ _______ _____ _____    ______ ____
ROOT
ATOM      1  C   UNL     1       5.011   5.257  15.750  0.00  0.00    +0.000 C 
ATOM      2  O   UNL     1       4.887   6.477  15.830  0.00  0.00    +0.000 OA
ATOM      3  N   UNL     1       4.636   4.336  16.704  0.00  0.00    +0.000 N 
ATOM      4  C   UNL     1       3.954   4.648  17.888  0.00  0.00    +0.000 A 
ATOM      5  C   UNL     1       3.844   3.659  18.856  0.00  0.00    +0.000 A 
ATOM      6  C   UNL     1       3.194   3.957  20.048  0.00  0.00    +0.000 A 
ATOM      7  C   UNL     1       2.642   5.221  20.224  0.00  0.00    +0.000 A 
ATOM      8  C   UNL     1       2.750   6.155  19.198  0.00  0.00    +0.000 A 
ATOM      9  N   UNL     1       3.420   5.870  18.056  0.00  0.00    +0.000 NA
ATOM     10  H   UNL     1       4.875   3.361  16.550  0.00  0.00    +0.000 HD
ENDROOT
BRANCH   1  15
ATOM     11  C   UNL     1       7.435   2.906  11.004  0.00  0.00    +0.000 C 
ATOM     12  C   UNL     1       6.783   3.482  12.223  0.00  0.00    +0.000 A 
ATOM     13  C   UNL     1       5.504   3.258  12.558  0.00  0.00    +0.000 A 
ATOM     14  C   UNL     1       4.949   3.862  13.747  0.00  0.00    +0.000 A 
ATOM     15  C   UNL     1       5.678   4.668  14.545  0.00  0.00    +0.000 A 
ATOM     16  C   UNL     1       7.098   4.919  14.165  0.00  0.00    +0.000 A 
ATOM     17  O   UNL     1       7.827   5.658  14.825  0.00  0.00    +0.000 OA
ATOM     18  N   UNL     1       7.552   4.293  13.026  0.00  0.00    +0.000 N 
ATOM     19  H   UNL     1       8.520   4.470  12.783  0.00  0.00    +0.000 HD
ENDBRANCH   1  15
BRANCH   8  20
ATOM     20  C   UNL     1       2.153   7.507  19.263  0.00  0.00    +0.000 A 
ATOM     21  C   UNL     1       2.165   8.378  18.143  0.00  0.00    +0.000 A 
ATOM     22  C   UNL     1       1.602   9.658  18.193  0.00  0.00    +0.000 A 
ATOM     23  C   UNL     1       1.018  10.057  19.374  0.00  0.00    +0.000 A 
ATOM     24  C   UNL     1       1.004   9.244  20.493  0.00  0.00    +0.000 A 
ATOM     25  C   UNL     1       1.574   7.981  20.462  0.00  0.00    +0.000 A 
ATOM     26  C   UNL     1       0.393   9.983  21.620  0.00  0.00    +0.000 C 
ATOM     27  C   UNL     1      -0.274  11.107  20.825  0.00  0.00    +0.000 C 
ATOM     28  O   UNL     1       0.428  11.279  19.571  0.00  0.00    +0.000 OA
ENDBRANCH   8  20
TORSDOF 2
ENDMDL
MODEL 9
REMARK VINA RESULT:      -8.6      2.321      8.510
REMARK  Name = 
REMARK  3 active torsions:
REMARK  status: ('A' for Active; 'I' for Inactive)
REMARK    1  A    between atoms: C_1  and  C_2
REMARK    2  A    between atoms: C_5  and  C_6
REMARK    3  A    between atoms: C_13  and  C_14
REMARK                            x       y       z     vdW  Elec       q    Type
REMARK                         _______ _______ _______ _____ _____    ______ ____
ROOT
ATOM      1  C   UNL     1       5.016   5.029  15.956  0.00  0.00    +0.000 C 
ATOM      2  O   UNL     1       4.880   6.232  16.169  0.00  0.00    +0.000 OA
ATOM      3  N   UNL     1       4.660   4.006  16.808  0.00  0.00    +0.000 N 
ATOM      4  C   UNL     1       3.988   4.179  18.025  0.00  0.00    +0.000 A 
ATOM      5  C   UNL     1       3.899   3.090  18.881  0.00  0.00    +0.000 A 
ATOM      6  C   UNL     1       3.259   3.249  20.105  0.00  0.00    +0.000 A 
ATOM      7  C   UNL     1       2.695   4.480  20.423  0.00  0.00    +0.000 A 
ATOM      8  C   UNL     1       2.783   5.521  19.502  0.00  0.00    +0.000 A 
ATOM      9  N   UNL     1       3.443   5.370  18.330  0.00  0.00    +0.000 NA
ATOM     10  H   UNL     1       4.908   3.056  16.547  0.00  0.00    +0.000 HD
ENDROOT
BRANCH   1  15
ATOM     11  C   UNL     1       7.416   3.224  10.966  0.00  0.00    +0.000 C 
ATOM     12  C   UNL     1       6.772   3.658  12.246  0.00  0.00    +0.000 A 
ATOM     13  C   UNL     1       5.524   3.319  12.603  0.00  0.00    +0.000 A 
ATOM     14  C   UNL     1       4.974   3.791  13.852  0.00  0.00    +0.000 A 
ATOM     15  C   UNL     1       5.676   4.582  14.688  0.00  0.00    +0.000 A 
ATOM     16  C   UNL     1       7.060   4.961  14.284  0.00  0.00    +0.000 A 
ATOM     17  O   UNL     1       7.761   5.697  14.977  0.00  0.00    +0.000 OA
ATOM     18  N   UNL     1       7.514   4.458  13.086  0.00  0.00    +0.000 N 
ATOM     19  H   UNL     1       8.457   4.721  12.827  0.00  0.00    +0.000 HD
ENDBRANCH   1  15
BRANCH   8  20
ATOM     20  C   UNL     1       2.171   6.851  19.720  0.00  0.00    +0.000 A 
ATOM     21  C   UNL     1       1.476   7.160  20.917  0.00  0.00    +0.000 A 
ATOM     22  C   UNL     1       0.895   8.415  21.134  0.00  0.00    +0.000 A 
ATOM     23  C   UNL     1       1.022   9.361  20.143  0.00  0.00    +0.000 A 
ATOM     24  C   UNL     1       1.675   9.091  18.953  0.00  0.00    +0.000 A 
ATOM     25  C   UNL     1       2.240   7.847  18.720  0.00  0.00    +0.000 A 
ATOM     26  C   UNL     1       1.565  10.267  18.063  0.00  0.00    +0.000 C 
ATOM     27  C   UNL     1       1.142  11.306  19.103  0.00  0.00    +0.000 C 
ATOM     28  O   UNL     1       0.507  10.630  20.214  0.00  0.00    +0.000 OA
ENDBRANCH   8  20
TORSDOF 2
ENDMDL
