MODEL 1
REMARK VINA RESULT:      -8.6      0.000      0.000
REMARK  Name = 
REMARK  3 active torsions:
REMARK  status: ('A' for Active; 'I' for Inactive)
REMARK    1  A    between atoms: C_2  and  C_15
REMARK    2  A    between atoms: N_3  and  C_4
REMARK    3  A    between atoms: C_9  and  N_10
REMARK                            x       y       z     vdW  Elec       q    Type
REMARK                         _______ _______ _______ _____ _____    ______ ____
ROOT
ATOM      1  O   UNL     1       2.011   8.811  17.390  0.00  0.00    +0.000 OA
ATOM      2  C   UNL     1       2.166   8.253  18.472  0.00  0.00    +0.000 C 
ATOM      3  N   UNL     1       2.848   7.081  18.711  0.00  0.00    +0.000 N 
ATOM      4  H   UNL     1       2.755   6.712  19.667  0.00  0.00    +0.000 HD
ENDROOT
BRANCH   2   5
ATOM      5  C   UNL     1       1.548   8.847  19.702  0.00  0.00    +0.000 A 
ATOM      6  C   UNL     1       1.518   8.103  20.869  0.00  0.00    +0.000 A 
ATOM      7  C   UNL     1       0.841   8.631  21.961  0.00  0.00    +0.000 A 
ATOM      8  C   UNL     1       0.158   9.845  21.827  0.00  0.00    +0.000 A 
ATOM      9  C   UNL     1      -0.676  10.324  22.847  0.00  0.00    +0.000 A 
ATOM     10  C   UNL     1      -1.404  11.498  22.667  0.00  0.00    +0.000 A 
ATOM     11  C   UNL     1      -1.247  12.229  21.494  0.00  0.00    +0.000 A 
ATOM     12  C   UNL     1      -0.394  11.762  20.489  0.00  0.00    +0.000 A 
ATOM     13  C   UNL     1       0.287  10.557  20.612  0.00  0.00    +0.000 A 
ATOM     14  N   UNL     1       0.996  10.083  19.574  0.00  0.00    +0.000 NA
ENDBRANCH   2   5
BRANCH   3  15
ATOM     15  C   UNL     1       3.571   6.266  17.812  0.00  0.00    +0.000 A 
ATOM     16  C   UNL     1       4.462   6.831  16.891  0.00  0.00    +0.000 A 
ATOM     17  C   UNL     1       5.215   6.033  16.023  0.00  0.00    +0.000 A 
ATOM     18  C   UNL     1       5.093   4.653  16.077  0.00  0.00    +0.000 A 
ATOM     19  C   UNL     1       4.208   4.064  16.978  0.00  0.00    +0.000 A 
ATOM     20  C   UNL     1       3.428   4.856  17.846  0.00  0.00    +0.000 A 
BRANCH  20  21
ATOM     21  N   UNL     1       2.477   4.209  18.704  0.00  0.00    +0.000 N 
ATOM     22  C   UNL     1       1.472   3.327  18.350  0.00  0.00    +0.000 A 
ATOM     23  C   UNL     1       0.753   3.040  19.486  0.00  0.00    +0.000 A 
ATOM     24  C   UNL     1       1.394   3.763  20.497  0.00  0.00    +0.000 A 
ATOM     25  N   UNL     1       2.440   4.453  20.044  0.00  0.00    +0.000 NA
ENDBRANCH  20  21
ENDBRANCH   3  15
TORSDOF 3
ENDMDL
MODEL 2
REMARK VINA RESULT:      -8.3      0.847      1.588
REMARK  Name = 
REMARK  3 active torsions:
REMARK  status: ('A' for Active; 'I' for Inactive)
REMARK    1  A    between atoms: C_2  and  C_15
REMARK    2  A    between atoms: N_3  and  C_4
REMARK    3  A    between atoms: C_9  and  N_10
REMARK                            x       y       z     vdW  Elec       q    Type
REMARK                         _______ _______ _______ _____ _____    ______ ____
ROOT
ATOM      1  O   UNL     1       2.730   8.978  17.017  0.00  0.00    +0.000 OA
ATOM      2  C   UNL     1       2.327   8.369  18.003  0.00  0.00    +0.000 C 
ATOM      3  N   UNL     1       2.681   7.097  18.394  0.00  0.00    +0.000 N 
ATOM      4  H   UNL     1       2.136   6.717  19.179  0.00  0.00    +0.000 HD
ENDROOT
BRANCH   2   5
ATOM      5  C   UNL     1       1.318   9.013  18.904  0.00  0.00    +0.000 A 
ATOM      6  C   UNL     1       0.522  10.031  18.408  0.00  0.00    +0.000 A 
ATOM      7  C   UNL     1      -0.325  10.686  19.293  0.00  0.00    +0.000 A 
ATOM      8  C   UNL     1      -0.294  10.352  20.651  0.00  0.00    +0.000 A 
ATOM      9  C   UNL     1      -1.004  11.103  21.600  0.00  0.00    +0.000 A 
ATOM     10  C   UNL     1      -0.904  10.800  22.955  0.00  0.00    +0.000 A 
ATOM     11  C   UNL     1      -0.148   9.703  23.358  0.00  0.00    +0.000 A 
ATOM     12  C   UNL     1       0.537   8.940  22.408  0.00  0.00    +0.000 A 
ATOM     13  C   UNL     1       0.515   9.265  21.057  0.00  0.00    +0.000 A 
ATOM     14  N   UNL     1       1.286   8.583  20.195  0.00  0.00    +0.000 NA
ENDBRANCH   2   5
BRANCH   3  15
ATOM     15  C   UNL     1       3.611   6.208  17.813  0.00  0.00    +0.000 A 
ATOM     16  C   UNL     1       4.590   6.672  16.925  0.00  0.00    +0.000 A 
ATOM     17  C   UNL     1       5.543   5.809  16.375  0.00  0.00    +0.000 A 
ATOM     18  C   UNL     1       5.535   4.466  16.718  0.00  0.00    +0.000 A 
ATOM     19  C   UNL     1       4.567   3.974  17.592  0.00  0.00    +0.000 A 
ATOM     20  C   UNL     1       3.588   4.828  18.140  0.00  0.00    +0.000 A 
BRANCH  20  21
ATOM     21  N   UNL     1       2.568   4.263  18.976  0.00  0.00    +0.000 N 
ATOM     22  C   UNL     1       1.639   3.291  18.649  0.00  0.00    +0.000 A 
ATOM     23  C   UNL     1       0.807   3.132  19.731  0.00  0.00    +0.000 A 
ATOM     24  C   UNL     1       1.305   4.021  20.688  0.00  0.00    +0.000 A 
ATOM     25  N   UNL     1       2.371   4.692  20.254  0.00  0.00    +0.000 NA
ENDBRANCH  20  21
ENDBRANCH   3  15
TORSDOF 3
ENDMDL
MODEL 3
REMARK VINA RESULT:      -8.1      1.535      2.266
REMARK  Name = 
REMARK  3 active torsions:
REMARK  status: ('A' for Active; 'I' for Inactive)
REMARK    1  A    between atoms: C_2  and  C_15
REMARK    2  A    between atoms: N_3  and  C_4
REMARK    3  A    between atoms: C_9  and  N_10
REMARK                            x       y       z     vdW  Elec       q    Type
REMARK                         _______ _______ _______ _____ _____    ______ ____
ROOT
ATOM      1  O   UNL     1       3.914   6.057  19.729  0.00  0.00    +0.000 OA
ATOM      2  C   UNL     1       3.314   6.629  18.824  0.00  0.00    +0.000 C 
ATOM      3  N   UNL     1       3.497   6.461  17.470  0.00  0.00    +0.000 N 
ATOM      4  H   UNL     1       2.985   7.127  16.877  0.00  0.00    +0.000 HD
ENDROOT
BRANCH   2   5
ATOM      5  C   UNL     1       2.276   7.656  19.165  0.00  0.00    +0.000 A 
ATOM      6  C   UNL     1       1.880   8.562  18.196  0.00  0.00    +0.000 A 
ATOM      7  C   UNL     1       1.001   9.571  18.568  0.00  0.00    +0.000 A 
ATOM      8  C   UNL     1       0.608   9.683  19.907  0.00  0.00    +0.000 A 
ATOM      9  C   UNL     1      -0.136  10.785  20.355  0.00  0.00    +0.000 A 
ATOM     10  C   UNL     1      -0.456  10.916  21.704  0.00  0.00    +0.000 A 
ATOM     11  C   UNL     1      -0.091   9.911  22.595  0.00  0.00    +0.000 A 
ATOM     12  C   UNL     1       0.628   8.801  22.142  0.00  0.00    +0.000 A 
ATOM     13  C   UNL     1       1.025   8.682  20.815  0.00  0.00    +0.000 A 
ATOM     14  N   UNL     1       1.821   7.665  20.447  0.00  0.00    +0.000 NA
ENDBRANCH   2   5
BRANCH   3  15
ATOM     15  C   UNL     1       4.357   5.573  16.787  0.00  0.00    +0.000 A 
ATOM     16  C   UNL     1       5.367   6.058  15.946  0.00  0.00    +0.000 A 
ATOM     17  C   UNL     1       6.251   5.192  15.295  0.00  0.00    +0.000 A 
ATOM     18  C   UNL     1       6.142   3.823  15.488  0.00  0.00    +0.000 A 
ATOM     19  C   UNL     1       5.141   3.312  16.313  0.00  0.00    +0.000 A 
ATOM     20  C   UNL     1       4.229   4.172  16.960  0.00  0.00    +0.000 A 
BRANCH  20  21
ATOM     21  N   UNL     1       3.171   3.596  17.739  0.00  0.00    +0.000 N 
ATOM     22  C   UNL     1       3.278   2.752  18.831  0.00  0.00    +0.000 A 
ATOM     23  C   UNL     1       2.006   2.380  19.194  0.00  0.00    +0.000 A 
ATOM     24  C   UNL     1       1.175   3.055  18.295  0.00  0.00    +0.000 A 
ATOM     25  N   UNL     1       1.860   3.801  17.430  0.00  0.00    +0.000 NA
ENDBRANCH  20  21
ENDBRANCH   3  15
TORSDOF 3
ENDMDL
MODEL 4
REMARK VINA RESULT:      -8.0      4.901      6.515
REMARK  Name = 
REMARK  3 active torsions:
REMARK  status: ('A' for Active; 'I' for Inactive)
REMARK    1  A    between atoms: C_2  and  C_15
REMARK    2  A    between atoms: N_3  and  C_4
REMARK    3  A    between atoms: C_9  and  N_10
REMARK                            x       y       z     vdW  Elec       q    Type
REMARK                         _______ _______ _______ _____ _____    ______ ____
ROOT
ATOM      1  O   UNL     1       4.282   6.165  16.479  0.00  0.00    +0.000 OA
ATOM      2  C   UNL     1       4.215   4.941  16.554  0.00  0.00    +0.000 C 
ATOM      3  N   UNL     1       4.892   4.025  15.781  0.00  0.00    +0.000 N 
ATOM      4  H   UNL     1       4.601   3.047  15.914  0.00  0.00    +0.000 HD
ENDROOT
BRANCH   2   5
ATOM      5  C   UNL     1       3.293   4.315  17.556  0.00  0.00    +0.000 A 
ATOM      6  C   UNL     1       1.930   4.526  17.444  0.00  0.00    +0.000 A 
ATOM      7  C   UNL     1       1.109   4.028  18.448  0.00  0.00    +0.000 A 
ATOM      8  C   UNL     1       1.682   3.403  19.561  0.00  0.00    +0.000 A 
ATOM      9  C   UNL     1       0.905   3.042  20.671  0.00  0.00    +0.000 A 
ATOM     10  C   UNL     1       1.505   2.487  21.799  0.00  0.00    +0.000 A 
ATOM     11  C   UNL     1       2.872   2.229  21.791  0.00  0.00    +0.000 A 
ATOM     12  C   UNL     1       3.640   2.565  20.672  0.00  0.00    +0.000 A 
ATOM     13  C   UNL     1       3.080   3.188  19.564  0.00  0.00    +0.000 A 
ATOM     14  N   UNL     1       3.873   3.608  18.564  0.00  0.00    +0.000 NA
ENDBRANCH   2   5
BRANCH   3  15
ATOM     15  C   UNL     1       5.851   4.242  14.768  0.00  0.00    +0.000 A 
ATOM     16  C   UNL     1       5.639   3.774  13.466  0.00  0.00    +0.000 A 
ATOM     17  C   UNL     1       6.562   4.018  12.444  0.00  0.00    +0.000 A 
ATOM     18  C   UNL     1       7.709   4.748  12.713  0.00  0.00    +0.000 A 
ATOM     19  C   UNL     1       7.951   5.219  14.002  0.00  0.00    +0.000 A 
ATOM     20  C   UNL     1       7.039   4.965  15.047  0.00  0.00    +0.000 A 
BRANCH  20  21
ATOM     21  N   UNL     1       7.367   5.407  16.372  0.00  0.00    +0.000 N 
ATOM     22  C   UNL     1       7.586   4.634  17.499  0.00  0.00    +0.000 A 
ATOM     23  C   UNL     1       7.774   5.488  18.558  0.00  0.00    +0.000 A 
ATOM     24  C   UNL     1       7.682   6.766  17.997  0.00  0.00    +0.000 A 
ATOM     25  N   UNL     1       7.455   6.730  16.685  0.00  0.00    +0.000 NA
ENDBRANCH  20  21
ENDBRANCH   3  15
TORSDOF 3
ENDMDL
MODEL 5
REMARK VINA RESULT:      -7.8      3.252      8.227
REMARK  Name = 
REMARK  3 active torsions:
REMARK  status: ('A' for Active; 'I' for Inactive)
REMARK    1  A    between atoms: C_2  and  C_15
REMARK    2  A    between atoms: N_3  and  C_4
REMARK    3  A    between atoms: C_9  and  N_10
REMARK                            x       y       z     vdW  Elec       q    Type
REMARK                         _______ _______ _______ _____ _____    ______ ____
ROOT
ATOM      1  O   UNL     1       5.898   4.403  19.287  0.00  0.00    +0.000 OA
ATOM      2  C   UNL     1       5.306   4.256  18.222  0.00  0.00    +0.000 C 
ATOM      3  N   UNL     1       3.987   3.902  18.048  0.00  0.00    +0.000 N 
ATOM      4  H   UNL     1       3.716   3.706  17.075  0.00  0.00    +0.000 HD
ENDROOT
BRANCH   2   5
ATOM      5  C   UNL     1       6.051   4.441  16.935  0.00  0.00    +0.000 A 
ATOM      6  C   UNL     1       7.022   5.424  16.852  0.00  0.00    +0.000 A 
ATOM      7  C   UNL     1       7.619   5.649  15.618  0.00  0.00    +0.000 A 
ATOM      8  C   UNL     1       7.174   4.937  14.498  0.00  0.00    +0.000 A 
ATOM      9  C   UNL     1       7.627   5.256  13.209  0.00  0.00    +0.000 A 
ATOM     10  C   UNL     1       7.118   4.586  12.100  0.00  0.00    +0.000 A 
ATOM     11  C   UNL     1       6.207   3.550  12.283  0.00  0.00    +0.000 A 
ATOM     12  C   UNL     1       5.777   3.217  13.571  0.00  0.00    +0.000 A 
ATOM     13  C   UNL     1       6.212   3.919  14.689  0.00  0.00    +0.000 A 
ATOM     14  N   UNL     1       5.680   3.650  15.892  0.00  0.00    +0.000 NA
ENDBRANCH   2   5
BRANCH   3  15
ATOM     15  C   UNL     1       2.986   3.674  19.017  0.00  0.00    +0.000 A 
ATOM     16  C   UNL     1       2.735   2.384  19.502  0.00  0.00    +0.000 A 
ATOM     17  C   UNL     1       1.775   2.151  20.491  0.00  0.00    +0.000 A 
ATOM     18  C   UNL     1       1.057   3.214  21.018  0.00  0.00    +0.000 A 
ATOM     19  C   UNL     1       1.279   4.508  20.548  0.00  0.00    +0.000 A 
ATOM     20  C   UNL     1       2.230   4.756  19.537  0.00  0.00    +0.000 A 
BRANCH  20  21
ATOM     21  N   UNL     1       2.371   6.093  19.035  0.00  0.00    +0.000 N 
ATOM     22  C   UNL     1       2.202   7.283  19.720  0.00  0.00    +0.000 A 
ATOM     23  C   UNL     1       2.345   8.306  18.814  0.00  0.00    +0.000 A 
ATOM     24  C   UNL     1       2.626   7.665  17.604  0.00  0.00    +0.000 A 
ATOM     25  N   UNL     1       2.662   6.339  17.726  0.00  0.00    +0.000 NA
ENDBRANCH  20  21
ENDBRANCH   3  15
TORSDOF 3
ENDMDL
MODEL 6
REMARK VINA RESULT:      -7.7      2.634      4.321
REMARK  Name = 
REMARK  3 active torsions:
REMARK  status: ('A' for Active; 'I' for Inactive)
REMARK    1  A    between atoms: C_2  and  C_15
REMARK    2  A    between atoms: N_3  and  C_4
REMARK    3  A    between atoms: C_9  and  N_10
REMARK                            x       y       z     vdW  Elec       q    Type
REMARK                         _______ _______ _______ _____ _____    ______ ____
ROOT
ATOM      1  O   UNL     1       3.614   4.338  18.307  0.00  0.00    +0.000 OA
ATOM      2  C   UNL     1       3.678   5.516  17.967  0.00  0.00    +0.000 C 
ATOM      3  N   UNL     1       4.409   6.040  16.926  0.00  0.00    +0.000 N 
ATOM      4  H   UNL     1       4.430   7.068  16.884  0.00  0.00    +0.000 HD
ENDROOT
BRANCH   2   5
ATOM      5  C   UNL     1       2.923   6.549  18.748  0.00  0.00    +0.000 A 
ATOM      6  C   UNL     1       2.429   6.222  19.999  0.00  0.00    +0.000 A 
ATOM      7  C   UNL     1       1.638   7.159  20.653  0.00  0.00    +0.000 A 
ATOM      8  C   UNL     1       1.310   8.355  20.005  0.00  0.00    +0.000 A 
ATOM      9  C   UNL     1       0.378   9.247  20.557  0.00  0.00    +0.000 A 
ATOM     10  C   UNL     1       0.010  10.397  19.864  0.00  0.00    +0.000 A 
ATOM     11  C   UNL     1       0.623  10.691  18.650  0.00  0.00    +0.000 A 
ATOM     12  C   UNL     1       1.570   9.814  18.114  0.00  0.00    +0.000 A 
ATOM     13  C   UNL     1       1.901   8.623  18.749  0.00  0.00    +0.000 A 
ATOM     14  N   UNL     1       2.721   7.749  18.141  0.00  0.00    +0.000 NA
ENDBRANCH   2   5
BRANCH   3  15
ATOM     15  C   UNL     1       5.210   5.376  15.970  0.00  0.00    +0.000 A 
ATOM     16  C   UNL     1       4.627   4.607  14.955  0.00  0.00    +0.000 A 
ATOM     17  C   UNL     1       5.406   3.979  13.979  0.00  0.00    +0.000 A 
ATOM     18  C   UNL     1       6.785   4.122  14.000  0.00  0.00    +0.000 A 
ATOM     19  C   UNL     1       7.393   4.875  15.004  0.00  0.00    +0.000 A 
ATOM     20  C   UNL     1       6.622   5.499  16.007  0.00  0.00    +0.000 A 
BRANCH  20  21
ATOM     21  N   UNL     1       7.298   6.201  17.060  0.00  0.00    +0.000 N 
ATOM     22  C   UNL     1       7.725   5.704  18.278  0.00  0.00    +0.000 A 
ATOM     23  C   UNL     1       8.233   6.756  19.001  0.00  0.00    +0.000 A 
ATOM     24  C   UNL     1       8.105   7.858  18.149  0.00  0.00    +0.000 A 
ATOM     25  N   UNL     1       7.563   7.535  16.977  0.00  0.00    +0.000 NA
ENDBRANCH  20  21
ENDBRANCH   3  15
TORSDOF 3
ENDMDL
MODEL 7
REMARK VINA RESULT:      -7.7      1.802      2.225
REMARK  Name = 
REMARK  3 active torsions:
REMARK  status: ('A' for Active; 'I' for Inactive)
REMARK    1  A    between atoms: C_2  and  C_15
REMARK    2  A    between atoms: N_3  and  C_4
REMARK    3  A    between atoms: C_9  and  N_10
REMARK                            x       y       z     vdW  Elec       q    Type
REMARK                         _______ _______ _______ _____ _____    ______ ____
ROOT
ATOM      1  O   UNL     1       1.871   5.183  17.569  0.00  0.00    +0.000 OA
ATOM      2  C   UNL     1       2.655   6.012  18.023  0.00  0.00    +0.000 C 
ATOM      3  N   UNL     1       3.982   6.165  17.693  0.00  0.00    +0.000 N 
ATOM      4  H   UNL     1       4.500   6.834  18.279  0.00  0.00    +0.000 HD
ENDROOT
BRANCH   2   5
ATOM      5  C   UNL     1       2.184   6.970  19.075  0.00  0.00    +0.000 A 
ATOM      6  C   UNL     1       1.939   6.501  20.354  0.00  0.00    +0.000 A 
ATOM      7  C   UNL     1       1.399   7.384  21.280  0.00  0.00    +0.000 A 
ATOM      8  C   UNL     1       1.055   8.680  20.877  0.00  0.00    +0.000 A 
ATOM      9  C   UNL     1       0.351   9.543  21.730  0.00  0.00    +0.000 A 
ATOM     10  C   UNL     1      -0.045  10.801  21.286  0.00  0.00    +0.000 A 
ATOM     11  C   UNL     1       0.321  11.225  20.012  0.00  0.00    +0.000 A 
ATOM     12  C   UNL     1       1.045  10.373  19.173  0.00  0.00    +0.000 A 
ATOM     13  C   UNL     1       1.389   9.084  19.563  0.00  0.00    +0.000 A 
ATOM     14  N   UNL     1       1.973   8.255  18.683  0.00  0.00    +0.000 NA
ENDBRANCH   2   5
BRANCH   3  15
ATOM     15  C   UNL     1       4.754   5.470  16.737  0.00  0.00    +0.000 A 
ATOM     16  C   UNL     1       5.236   6.120  15.593  0.00  0.00    +0.000 A 
ATOM     17  C   UNL     1       6.035   5.453  14.659  0.00  0.00    +0.000 A 
ATOM     18  C   UNL     1       6.373   4.125  14.865  0.00  0.00    +0.000 A 
ATOM     19  C   UNL     1       5.900   3.450  15.989  0.00  0.00    +0.000 A 
ATOM     20  C   UNL     1       5.077   4.103  16.930  0.00  0.00    +0.000 A 
BRANCH  20  21
ATOM     21  N   UNL     1       4.555   3.347  18.032  0.00  0.00    +0.000 N 
ATOM     22  C   UNL     1       3.591   2.354  18.005  0.00  0.00    +0.000 A 
ATOM     23  C   UNL     1       3.341   1.983  19.304  0.00  0.00    +0.000 A 
ATOM     24  C   UNL     1       4.207   2.773  20.066  0.00  0.00    +0.000 A 
ATOM     25  N   UNL     1       4.952   3.582  19.315  0.00  0.00    +0.000 NA
ENDBRANCH  20  21
ENDBRANCH   3  15
TORSDOF 3
ENDMDL
MODEL 8
REMARK VINA RESULT:      -7.6      1.904      3.693
REMARK  Name = 
REMARK  3 active torsions:
REMARK  status: ('A' for Active; 'I' for Inactive)
REMARK    1  A    between atoms: C_2  and  C_15
REMARK    2  A    between atoms: N_3  and  C_4
REMARK    3  A    between atoms: C_9  and  N_10
REMARK                            x       y       z     vdW  Elec       q    Type
REMARK                         _______ _______ _______ _____ _____    ______ ____
ROOT
ATOM      1  O   UNL     1       2.085   6.418  20.635  0.00  0.00    +0.000 OA
ATOM      2  C   UNL     1       2.046   6.818  19.475  0.00  0.00    +0.000 C 
ATOM      3  N   UNL     1       2.280   6.080  18.336  0.00  0.00    +0.000 N 
ATOM      4  H   UNL     1       2.324   6.628  17.466  0.00  0.00    +0.000 HD
ENDROOT
BRANCH   2   5
ATOM      5  C   UNL     1       1.745   8.260  19.203  0.00  0.00    +0.000 A 
ATOM      6  C   UNL     1       2.158   8.822  18.007  0.00  0.00    +0.000 A 
ATOM      7  C   UNL     1       1.966  10.186  17.827  0.00  0.00    +0.000 A 
ATOM      8  C   UNL     1       1.437  10.951  18.873  0.00  0.00    +0.000 A 
ATOM      9  C   UNL     1       1.389  12.351  18.795  0.00  0.00    +0.000 A 
ATOM     10  C   UNL     1       0.927  13.099  19.875  0.00  0.00    +0.000 A 
ATOM     11  C   UNL     1       0.449  12.446  21.007  0.00  0.00    +0.000 A 
ATOM     12  C   UNL     1       0.474  11.050  21.071  0.00  0.00    +0.000 A 
ATOM     13  C   UNL     1       0.999  10.282  20.039  0.00  0.00    +0.000 A 
ATOM     14  N   UNL     1       1.120   8.953  20.193  0.00  0.00    +0.000 NA
ENDBRANCH   2   5
BRANCH   3  15
ATOM     15  C   UNL     1       2.562   4.703  18.202  0.00  0.00    +0.000 A 
ATOM     16  C   UNL     1       1.560   3.743  18.391  0.00  0.00    +0.000 A 
ATOM     17  C   UNL     1       1.817   2.379  18.221  0.00  0.00    +0.000 A 
ATOM     18  C   UNL     1       3.083   1.958  17.848  0.00  0.00    +0.000 A 
ATOM     19  C   UNL     1       4.103   2.890  17.662  0.00  0.00    +0.000 A 
ATOM     20  C   UNL     1       3.865   4.268  17.848  0.00  0.00    +0.000 A 
BRANCH  20  21
ATOM     21  N   UNL     1       4.962   5.182  17.717  0.00  0.00    +0.000 N 
ATOM     22  C   UNL     1       6.176   5.158  18.382  0.00  0.00    +0.000 A 
ATOM     23  C   UNL     1       6.875   6.281  18.009  0.00  0.00    +0.000 A 
ATOM     24  C   UNL     1       6.037   6.927  17.096  0.00  0.00    +0.000 A 
ATOM     25  N   UNL     1       4.895   6.270  16.899  0.00  0.00    +0.000 NA
ENDBRANCH  20  21
ENDBRANCH   3  15
TORSDOF 3
ENDMDL
MODEL 9
REMARK VINA RESULT:      -7.6      1.296      1.953
REMARK  Name = 
REMARK  3 active torsions:
REMARK  status: ('A' for Active; 'I' for Inactive)
REMARK    1  A    between atoms: C_2  and  C_15
REMARK    2  A    between atoms: N_3  and  C_4
REMARK    3  A    between atoms: C_9  and  N_10
REMARK                            x       y       z     vdW  Elec       q    Type
REMARK                         _______ _______ _______ _____ _____    ______ ____
ROOT
ATOM      1  O   UNL     1       2.996   8.294  16.606  0.00  0.00    +0.000 OA
ATOM      2  C   UNL     1       2.884   7.951  17.779  0.00  0.00    +0.000 C 
ATOM      3  N   UNL     1       3.623   6.994  18.437  0.00  0.00    +0.000 N 
ATOM      4  H   UNL     1       3.290   6.763  19.382  0.00  0.00    +0.000 HD
ENDROOT
BRANCH   2   5
ATOM      5  C   UNL     1       1.828   8.584  18.633  0.00  0.00    +0.000 A 
ATOM      6  C   UNL     1       0.949   9.488  18.062  0.00  0.00    +0.000 A 
ATOM      7  C   UNL     1       0.054  10.144  18.897  0.00  0.00    +0.000 A 
ATOM      8  C   UNL     1       0.116   9.928  20.279  0.00  0.00    +0.000 A 
ATOM      9  C   UNL     1      -0.650  10.696  21.168  0.00  0.00    +0.000 A 
ATOM     10  C   UNL     1      -0.520  10.518  22.543  0.00  0.00    +0.000 A 
ATOM     11  C   UNL     1       0.324   9.524  23.028  0.00  0.00    +0.000 A 
ATOM     12  C   UNL     1       1.067   8.742  22.139  0.00  0.00    +0.000 A 
ATOM     13  C   UNL     1       1.014   8.950  20.765  0.00  0.00    +0.000 A 
ATOM     14  N   UNL     1       1.836   8.263  19.955  0.00  0.00    +0.000 NA
ENDBRANCH   2   5
BRANCH   3  15
ATOM     15  C   UNL     1       4.706   6.219  17.967  0.00  0.00    +0.000 A 
ATOM     16  C   UNL     1       5.894   6.828  17.542  0.00  0.00    +0.000 A 
ATOM     17  C   UNL     1       6.988   6.070  17.113  0.00  0.00    +0.000 A 
ATOM     18  C   UNL     1       6.911   4.686  17.116  0.00  0.00    +0.000 A 
ATOM     19  C   UNL     1       5.739   4.053  17.526  0.00  0.00    +0.000 A 
ATOM     20  C   UNL     1       4.620   4.803  17.942  0.00  0.00    +0.000 A 
BRANCH  20  21
ATOM     21  N   UNL     1       3.411   4.110  18.284  0.00  0.00    +0.000 N 
ATOM     22  C   UNL     1       2.559   3.417  17.443  0.00  0.00    +0.000 A 
ATOM     23  C   UNL     1       1.485   3.000  18.192  0.00  0.00    +0.000 A 
ATOM     24  C   UNL     1       1.765   3.452  19.485  0.00  0.00    +0.000 A 
ATOM     25  N   UNL     1       2.924   4.104  19.557  0.00  0.00    +0.000 NA
ENDBRANCH  20  21
ENDBRANCH   3  15
TORSDOF 3
ENDMDL
