MODEL 1
REMARK VINA RESULT:      -9.4      0.000      0.000
REMARK  Name = 
REMARK  5 active torsions:
REMARK  status: ('A' for Active; 'I' for Inactive)
REMARK    1  A    between atoms: C_2  and  C_20
REMARK    2  A    between atoms: N_3  and  C_4
REMARK    3  A    between atoms: C_6  and  S_7
REMARK    4  A    between atoms: S_7  and  N_10
REMARK    5  A    between atoms: C_18  and  O_19
REMARK                            x       y       z     vdW  Elec       q    Type
REMARK                         _______ _______ _______ _____ _____    ______ ____
ROOT
ATOM      1  C   UNL     1       6.247   6.217  16.713  0.00  0.00    +0.000 A 
ATOM      2  C   UNL     1       5.058   5.867  17.352  0.00  0.00    +0.000 A 
ATOM      3  C   UNL     1       4.387   4.701  16.989  0.00  0.00    +0.000 A 
ATOM      4  C   UNL     1       4.892   3.874  15.979  0.00  0.00    +0.000 A 
ATOM      5  C   UNL     1       6.073   4.228  15.320  0.00  0.00    +0.000 A 
ATOM      6  C   UNL     1       6.736   5.402  15.681  0.00  0.00    +0.000 A 
ENDROOT
BRANCH   1   9
ATOM      7  O   UNL     1       8.185   6.646  18.851  0.00  0.00    +0.000 OA
ATOM      8  C   UNL     1       7.832   7.542  18.093  0.00  0.00    +0.000 C 
ATOM      9  N   UNL     1       6.963   7.385  17.032  0.00  0.00    +0.000 N 
ATOM     10  H   UNL     1       6.878   8.156  16.373  0.00  0.00    +0.000 HD
BRANCH   8  11
ATOM     11  C   UNL     1       8.348   8.881  18.240  0.00  0.00    +0.000 A 
ATOM     12  C   UNL     1       8.140   9.990  17.444  0.00  0.00    +0.000 A 
ATOM     13  C   UNL     1       8.860  11.054  18.027  0.00  0.00    +0.000 A 
ATOM     14  C   UNL     1       9.046  12.411  17.730  0.00  0.00    +0.000 A 
ATOM     15  C   UNL     1       9.861  13.173  18.576  0.00  0.00    +0.000 A 
ATOM     16  C   UNL     1      10.485  12.597  19.688  0.00  0.00    +0.000 A 
ATOM     17  C   UNL     1      10.314  11.243  19.997  0.00  0.00    +0.000 A 
ATOM     18  C   UNL     1       9.489  10.517  19.145  0.00  0.00    +0.000 A 
ATOM     19  O   UNL     1       9.177   9.198  19.282  0.00  0.00    +0.000 OA
ENDBRANCH   8  11
ENDBRANCH   1   9
BRANCH   3  20
ATOM     20  S   UNL     1       2.822   4.353  17.755  0.00  0.00    +0.000 S 
ATOM     21  O   UNL     1       2.114   5.614  17.843  0.00  0.00    +0.000 OA
ATOM     22  O   UNL     1       2.237   3.229  17.056  0.00  0.00    +0.000 OA
BRANCH  20  23
ATOM     23  N   UNL     1       3.199   3.851  19.338  0.00  0.00    +0.000 NA
ATOM     24  C   UNL     1       2.943   2.428  19.708  0.00  0.00    +0.000 C 
ATOM     25  C   UNL     1       1.460   2.178  20.013  0.00  0.00    +0.000 C 
ATOM     26  O   UNL     1       0.966   3.065  21.027  0.00  0.00    +0.000 OA
ATOM     27  C   UNL     1       1.168   4.443  20.677  0.00  0.00    +0.000 C 
ATOM     28  C   UNL     1       2.651   4.740  20.418  0.00  0.00    +0.000 C 
ENDBRANCH  20  23
ENDBRANCH   3  20
BRANCH   6  29
ATOM     29  O   UNL     1       7.885   5.781  15.036  0.00  0.00    +0.000 OA
ATOM     30  H   UNL     1       8.626   5.740  15.664  0.00  0.00    +0.000 HD
ENDBRANCH   6  29
TORSDOF 5
ENDMDL
MODEL 2
REMARK VINA RESULT:      -9.1      0.618      1.160
REMARK  Name = 
REMARK  5 active torsions:
REMARK  status: ('A' for Active; 'I' for Inactive)
REMARK    1  A    between atoms: C_2  and  C_20
REMARK    2  A    between atoms: N_3  and  C_4
REMARK    3  A    between atoms: C_6  and  S_7
REMARK    4  A    between atoms: S_7  and  N_10
REMARK    5  A    between atoms: C_18  and  O_19
REMARK                            x       y       z     vdW  Elec       q    Type
REMARK                         _______ _______ _______ _____ _____    ______ ____
ROOT
ATOM      1  C   UNL     1       6.215   6.311  16.714  0.00  0.00    +0.000 A 
ATOM      2  C   UNL     1       5.031   5.951  17.358  0.00  0.00    +0.000 A 
ATOM      3  C   UNL     1       4.371   4.778  16.999  0.00  0.00    +0.000 A 
ATOM      4  C   UNL     1       4.882   3.952  15.992  0.00  0.00    +0.000 A 
ATOM      5  C   UNL     1       6.059   4.315  15.329  0.00  0.00    +0.000 A 
ATOM      6  C   UNL     1       6.711   5.497  15.685  0.00  0.00    +0.000 A 
ENDROOT
BRANCH   1   9
ATOM      7  O   UNL     1       8.199   6.750  18.808  0.00  0.00    +0.000 OA
ATOM      8  C   UNL     1       7.813   7.647  18.068  0.00  0.00    +0.000 C 
ATOM      9  N   UNL     1       6.921   7.487  17.028  0.00  0.00    +0.000 N 
ATOM     10  H   UNL     1       6.807   8.263  16.380  0.00  0.00    +0.000 HD
BRANCH   8  11
ATOM     11  C   UNL     1       8.312   8.994  18.217  0.00  0.00    +0.000 A 
ATOM     12  C   UNL     1       9.306   9.470  19.048  0.00  0.00    +0.000 A 
ATOM     13  C   UNL     1       9.416  10.854  18.803  0.00  0.00    +0.000 A 
ATOM     14  C   UNL     1      10.225  11.891  19.290  0.00  0.00    +0.000 A 
ATOM     15  C   UNL     1      10.031  13.182  18.785  0.00  0.00    +0.000 A 
ATOM     16  C   UNL     1       9.048  13.440  17.823  0.00  0.00    +0.000 A 
ATOM     17  C   UNL     1       8.229  12.419  17.329  0.00  0.00    +0.000 A 
ATOM     18  C   UNL     1       8.455  11.146  17.841  0.00  0.00    +0.000 A 
ATOM     19  O   UNL     1       7.784  10.018  17.478  0.00  0.00    +0.000 OA
ENDBRANCH   8  11
ENDBRANCH   1   9
BRANCH   3  20
ATOM     20  S   UNL     1       2.811   4.417  17.770  0.00  0.00    +0.000 S 
ATOM     21  O   UNL     1       2.088   5.669  17.848  0.00  0.00    +0.000 OA
ATOM     22  O   UNL     1       2.240   3.279  17.081  0.00  0.00    +0.000 OA
BRANCH  20  23
ATOM     23  N   UNL     1       3.196   3.934  19.357  0.00  0.00    +0.000 NA
ATOM     24  C   UNL     1       3.057   2.491  19.709  0.00  0.00    +0.000 C 
ATOM     25  C   UNL     1       1.594   2.110  19.979  0.00  0.00    +0.000 C 
ATOM     26  O   UNL     1       1.003   2.941  20.989  0.00  0.00    +0.000 OA
ATOM     27  C   UNL     1       1.092   4.335  20.654  0.00  0.00    +0.000 C 
ATOM     28  C   UNL     1       2.549   4.761  20.431  0.00  0.00    +0.000 C 
ENDBRANCH  20  23
ENDBRANCH   3  20
BRANCH   6  29
ATOM     29  O   UNL     1       7.855   5.886  15.036  0.00  0.00    +0.000 OA
ATOM     30  H   UNL     1       8.521   6.138  15.698  0.00  0.00    +0.000 HD
ENDBRANCH   6  29
TORSDOF 5
ENDMDL
MODEL 3
REMARK VINA RESULT:      -8.9      1.117      1.460
REMARK  Name = 
REMARK  5 active torsions:
REMARK  status: ('A' for Active; 'I' for Inactive)
REMARK    1  A    between atoms: C_2  and  C_20
REMARK    2  A    between atoms: N_3  and  C_4
REMARK    3  A    between atoms: C_6  and  S_7
REMARK    4  A    between atoms: S_7  and  N_10
REMARK    5  A    between atoms: C_18  and  O_19
REMARK                            x       y       z     vdW  Elec       q    Type
REMARK                         _______ _______ _______ _____ _____    ______ ____
ROOT
ATOM      1  C   UNL     1       6.637   5.790  16.791  0.00  0.00    +0.000 A 
ATOM      2  C   UNL     1       5.787   5.137  17.683  0.00  0.00    +0.000 A 
ATOM      3  C   UNL     1       5.220   3.912  17.336  0.00  0.00    +0.000 A 
ATOM      4  C   UNL     1       5.491   3.327  16.094  0.00  0.00    +0.000 A 
ATOM      5  C   UNL     1       6.328   3.985  15.187  0.00  0.00    +0.000 A 
ATOM      6  C   UNL     1       6.885   5.216  15.535  0.00  0.00    +0.000 A 
ENDROOT
BRANCH   1   9
ATOM      7  O   UNL     1       8.270   6.541  19.089  0.00  0.00    +0.000 OA
ATOM      8  C   UNL     1       7.954   7.341  18.217  0.00  0.00    +0.000 C 
ATOM      9  N   UNL     1       7.232   7.031  17.082  0.00  0.00    +0.000 N 
ATOM     10  H   UNL     1       7.176   7.737  16.350  0.00  0.00    +0.000 HD
BRANCH   8  11
ATOM     11  C   UNL     1       8.360   8.724  18.299  0.00  0.00    +0.000 A 
ATOM     12  C   UNL     1       8.023   9.783  17.481  0.00  0.00    +0.000 A 
ATOM     13  C   UNL     1       8.674  10.923  17.998  0.00  0.00    +0.000 A 
ATOM     14  C   UNL     1       8.730  12.281  17.652  0.00  0.00    +0.000 A 
ATOM     15  C   UNL     1       9.513  13.137  18.435  0.00  0.00    +0.000 A 
ATOM     16  C   UNL     1      10.232  12.653  19.534  0.00  0.00    +0.000 A 
ATOM     17  C   UNL     1      10.191  11.301  19.892  0.00  0.00    +0.000 A 
ATOM     18  C   UNL     1       9.395  10.480  19.101  0.00  0.00    +0.000 A 
ATOM     19  O   UNL     1       9.203   9.144  19.292  0.00  0.00    +0.000 OA
ENDBRANCH   8  11
ENDBRANCH   1   9
BRANCH   3  20
ATOM     20  S   UNL     1       4.058   3.171  18.458  0.00  0.00    +0.000 S 
ATOM     21  O   UNL     1       3.436   2.075  17.746  0.00  0.00    +0.000 OA
ATOM     22  O   UNL     1       4.751   2.938  19.708  0.00  0.00    +0.000 OA
BRANCH  20  23
ATOM     23  N   UNL     1       2.872   4.363  18.727  0.00  0.00    +0.000 NA
ATOM     24  C   UNL     1       2.832   5.032  20.061  0.00  0.00    +0.000 C 
ATOM     25  C   UNL     1       2.148   4.154  21.117  0.00  0.00    +0.000 C 
ATOM     26  O   UNL     1       0.832   3.754  20.709  0.00  0.00    +0.000 OA
ATOM     27  C   UNL     1       0.849   3.074  19.443  0.00  0.00    +0.000 C 
ATOM     28  C   UNL     1       1.479   3.948  18.351  0.00  0.00    +0.000 C 
ENDBRANCH  20  23
ENDBRANCH   3  20
BRANCH   6  29
ATOM     29  O   UNL     1       7.692   5.891  14.655  0.00  0.00    +0.000 OA
ATOM     30  H   UNL     1       8.616   5.807  14.947  0.00  0.00    +0.000 HD
ENDBRANCH   6  29
TORSDOF 5
ENDMDL
MODEL 4
REMARK VINA RESULT:      -8.5      1.278      1.890
REMARK  Name = 
REMARK  5 active torsions:
REMARK  status: ('A' for Active; 'I' for Inactive)
REMARK    1  A    between atoms: C_2  and  C_20
REMARK    2  A    between atoms: N_3  and  C_4
REMARK    3  A    between atoms: C_6  and  S_7
REMARK    4  A    between atoms: S_7  and  N_10
REMARK    5  A    between atoms: C_18  and  O_19
REMARK                            x       y       z     vdW  Elec       q    Type
REMARK                         _______ _______ _______ _____ _____    ______ ____
ROOT
ATOM      1  C   UNL     1       6.657   5.896  16.758  0.00  0.00    +0.000 A 
ATOM      2  C   UNL     1       5.790   5.245  17.635  0.00  0.00    +0.000 A 
ATOM      3  C   UNL     1       5.261   4.001  17.300  0.00  0.00    +0.000 A 
ATOM      4  C   UNL     1       5.588   3.393  16.082  0.00  0.00    +0.000 A 
ATOM      5  C   UNL     1       6.441   4.047  15.189  0.00  0.00    +0.000 A 
ATOM      6  C   UNL     1       6.961   5.298  15.525  0.00  0.00    +0.000 A 
ENDROOT
BRANCH   1   9
ATOM      7  O   UNL     1       8.334   6.692  19.009  0.00  0.00    +0.000 OA
ATOM      8  C   UNL     1       7.961   7.485  18.153  0.00  0.00    +0.000 C 
ATOM      9  N   UNL     1       7.215   7.156  17.039  0.00  0.00    +0.000 N 
ATOM     10  H   UNL     1       7.111   7.863  16.314  0.00  0.00    +0.000 HD
BRANCH   8  11
ATOM     11  C   UNL     1       8.319   8.881  18.232  0.00  0.00    +0.000 A 
ATOM     12  C   UNL     1       9.281   9.493  19.012  0.00  0.00    +0.000 A 
ATOM     13  C   UNL     1       9.238  10.869  18.709  0.00  0.00    +0.000 A 
ATOM     14  C   UNL     1       9.946  12.004  19.129  0.00  0.00    +0.000 A 
ATOM     15  C   UNL     1       9.603  13.246  18.581  0.00  0.00    +0.000 A 
ATOM     16  C   UNL     1       8.573  13.359  17.641  0.00  0.00    +0.000 A 
ATOM     17  C   UNL     1       7.852  12.239  17.214  0.00  0.00    +0.000 A 
ATOM     18  C   UNL     1       8.225  11.019  17.768  0.00  0.00    +0.000 A 
ATOM     19  O   UNL     1       7.667   9.813  17.471  0.00  0.00    +0.000 OA
ENDBRANCH   8  11
ENDBRANCH   1   9
BRANCH   3  20
ATOM     20  S   UNL     1       4.077   3.262  18.399  0.00  0.00    +0.000 S 
ATOM     21  O   UNL     1       3.474   2.159  17.679  0.00  0.00    +0.000 OA
ATOM     22  O   UNL     1       4.741   3.038  19.665  0.00  0.00    +0.000 OA
BRANCH  20  23
ATOM     23  N   UNL     1       2.880   4.451  18.634  0.00  0.00    +0.000 NA
ATOM     24  C   UNL     1       2.857   5.181  19.936  0.00  0.00    +0.000 C 
ATOM     25  C   UNL     1       2.203   4.345  21.045  0.00  0.00    +0.000 C 
ATOM     26  O   UNL     1       0.886   3.911  20.681  0.00  0.00    +0.000 OA
ATOM     27  C   UNL     1       0.888   3.172  19.448  0.00  0.00    +0.000 C 
ATOM     28  C   UNL     1       1.486   4.001  18.304  0.00  0.00    +0.000 C 
ENDBRANCH  20  23
ENDBRANCH   3  20
BRANCH   6  29
ATOM     29  O   UNL     1       7.784   5.969  14.657  0.00  0.00    +0.000 OA
ATOM     30  H   UNL     1       8.401   6.517  15.170  0.00  0.00    +0.000 HD
ENDBRANCH   6  29
TORSDOF 5
ENDMDL
MODEL 5
REMARK VINA RESULT:      -8.1      6.434      8.454
REMARK  Name = 
REMARK  5 active torsions:
REMARK  status: ('A' for Active; 'I' for Inactive)
REMARK    1  A    between atoms: C_2  and  C_20
REMARK    2  A    between atoms: N_3  and  C_4
REMARK    3  A    between atoms: C_6  and  S_7
REMARK    4  A    between atoms: S_7  and  N_10
REMARK    5  A    between atoms: C_18  and  O_19
REMARK                            x       y       z     vdW  Elec       q    Type
REMARK                         _______ _______ _______ _____ _____    ______ ____
ROOT
ATOM      1  C   UNL     1       1.072   9.314  19.710  0.00  0.00    +0.000 A 
ATOM      2  C   UNL     1       1.488   8.046  20.116  0.00  0.00    +0.000 A 
ATOM      3  C   UNL     1       2.299   7.278  19.283  0.00  0.00    +0.000 A 
ATOM      4  C   UNL     1       2.700   7.764  18.033  0.00  0.00    +0.000 A 
ATOM      5  C   UNL     1       2.271   9.026  17.611  0.00  0.00    +0.000 A 
ATOM      6  C   UNL     1       1.452   9.788  18.445  0.00  0.00    +0.000 A 
ENDROOT
BRANCH   1   9
ATOM      7  O   UNL     1       1.734  11.813  21.064  0.00  0.00    +0.000 OA
ATOM      8  C   UNL     1       0.634  11.281  21.164  0.00  0.00    +0.000 C 
ATOM      9  N   UNL     1       0.248  10.132  20.505  0.00  0.00    +0.000 N 
ATOM     10  H   UNL     1      -0.738   9.880  20.532  0.00  0.00    +0.000 HD
BRANCH   8  11
ATOM     11  C   UNL     1      -0.395  11.862  21.992  0.00  0.00    +0.000 A 
ATOM     12  C   UNL     1      -1.621  11.341  22.355  0.00  0.00    +0.000 A 
ATOM     13  C   UNL     1      -2.245  12.299  23.180  0.00  0.00    +0.000 A 
ATOM     14  C   UNL     1      -3.462  12.376  23.873  0.00  0.00    +0.000 A 
ATOM     15  C   UNL     1      -3.735  13.533  24.614  0.00  0.00    +0.000 A 
ATOM     16  C   UNL     1      -2.824  14.593  24.657  0.00  0.00    +0.000 A 
ATOM     17  C   UNL     1      -1.607  14.536  23.969  0.00  0.00    +0.000 A 
ATOM     18  C   UNL     1      -1.360  13.369  23.254  0.00  0.00    +0.000 A 
ATOM     19  O   UNL     1      -0.232  13.107  22.537  0.00  0.00    +0.000 OA
ENDBRANCH   8  11
ENDBRANCH   1   9
BRANCH   3  20
ATOM     20  S   UNL     1       2.713   5.628  19.795  0.00  0.00    +0.000 S 
ATOM     21  O   UNL     1       4.155   5.520  19.720  0.00  0.00    +0.000 OA
ATOM     22  O   UNL     1       2.020   5.373  21.040  0.00  0.00    +0.000 OA
BRANCH  20  23
ATOM     23  N   UNL     1       2.049   4.608  18.603  0.00  0.00    +0.000 NA
ATOM     24  C   UNL     1       1.132   3.515  19.040  0.00  0.00    +0.000 C 
ATOM     25  C   UNL     1       1.907   2.312  19.596  0.00  0.00    +0.000 C 
ATOM     26  O   UNL     1       2.875   1.821  18.658  0.00  0.00    +0.000 OA
ATOM     27  C   UNL     1       3.793   2.848  18.250  0.00  0.00    +0.000 C 
ATOM     28  C   UNL     1       3.053   4.044  17.639  0.00  0.00    +0.000 C 
ENDBRANCH  20  23
ENDBRANCH   3  20
BRANCH   6  29
ATOM     29  O   UNL     1       1.002  11.021  18.045  0.00  0.00    +0.000 OA
ATOM     30  H   UNL     1       1.729  11.494  17.607  0.00  0.00    +0.000 HD
ENDBRANCH   6  29
TORSDOF 5
ENDMDL
MODEL 6
REMARK VINA RESULT:      -8.1      6.258      8.799
REMARK  Name = 
REMARK  5 active torsions:
REMARK  status: ('A' for Active; 'I' for Inactive)
REMARK    1  A    between atoms: C_2  and  C_20
REMARK    2  A    between atoms: N_3  and  C_4
REMARK    3  A    between atoms: C_6  and  S_7
REMARK    4  A    between atoms: S_7  and  N_10
REMARK    5  A    between atoms: C_18  and  O_19
REMARK                            x       y       z     vdW  Elec       q    Type
REMARK                         _______ _______ _______ _____ _____    ______ ____
ROOT
ATOM      1  C   UNL     1       0.949   9.214  19.528  0.00  0.00    +0.000 A 
ATOM      2  C   UNL     1       1.355   7.951  19.958  0.00  0.00    +0.000 A 
ATOM      3  C   UNL     1       2.316   7.244  19.239  0.00  0.00    +0.000 A 
ATOM      4  C   UNL     1       2.881   7.788  18.080  0.00  0.00    +0.000 A 
ATOM      5  C   UNL     1       2.466   9.046  17.632  0.00  0.00    +0.000 A 
ATOM      6  C   UNL     1       1.495   9.745  18.350  0.00  0.00    +0.000 A 
ENDROOT
BRANCH   1   9
ATOM      7  O   UNL     1       1.326  11.264  21.569  0.00  0.00    +0.000 OA
ATOM      8  C   UNL     1       0.216  10.893  21.206  0.00  0.00    +0.000 C 
ATOM      9  N   UNL     1      -0.023   9.970  20.209  0.00  0.00    +0.000 N 
ATOM     10  H   UNL     1      -0.980   9.868  19.879  0.00  0.00    +0.000 HD
BRANCH   8  11
ATOM     11  C   UNL     1      -0.979  11.444  21.799  0.00  0.00    +0.000 A 
ATOM     12  C   UNL     1      -1.459  11.305  23.086  0.00  0.00    +0.000 A 
ATOM     13  C   UNL     1      -2.654  12.049  23.160  0.00  0.00    +0.000 A 
ATOM     14  C   UNL     1      -3.595  12.326  24.162  0.00  0.00    +0.000 A 
ATOM     15  C   UNL     1      -4.691  13.136  23.842  0.00  0.00    +0.000 A 
ATOM     16  C   UNL     1      -4.854  13.653  22.553  0.00  0.00    +0.000 A 
ATOM     17  C   UNL     1      -3.928  13.383  21.539  0.00  0.00    +0.000 A 
ATOM     18  C   UNL     1      -2.845  12.586  21.892  0.00  0.00    +0.000 A 
ATOM     19  O   UNL     1      -1.826  12.226  21.062  0.00  0.00    +0.000 OA
ENDBRANCH   8  11
ENDBRANCH   1   9
BRANCH   3  20
ATOM     20  S   UNL     1       2.722   5.596  19.763  0.00  0.00    +0.000 S 
ATOM     21  O   UNL     1       4.166   5.493  19.730  0.00  0.00    +0.000 OA
ATOM     22  O   UNL     1       1.994   5.338  20.988  0.00  0.00    +0.000 OA
BRANCH  20  23
ATOM     23  N   UNL     1       2.095   4.573  18.553  0.00  0.00    +0.000 NA
ATOM     24  C   UNL     1       1.180   3.469  18.966  0.00  0.00    +0.000 C 
ATOM     25  C   UNL     1       1.954   2.272  19.535  0.00  0.00    +0.000 C 
ATOM     26  O   UNL     1       2.949   1.794  18.619  0.00  0.00    +0.000 OA
ATOM     27  C   UNL     1       3.865   2.832  18.235  0.00  0.00    +0.000 C 
ATOM     28  C   UNL     1       3.127   4.023  17.611  0.00  0.00    +0.000 C 
ENDBRANCH  20  23
ENDBRANCH   3  20
BRANCH   6  29
ATOM     29  O   UNL     1       1.056  10.971  17.920  0.00  0.00    +0.000 OA
ATOM     30  H   UNL     1       0.709  11.466  18.682  0.00  0.00    +0.000 HD
ENDBRANCH   6  29
TORSDOF 5
ENDMDL
MODEL 7
REMARK VINA RESULT:      -8.0      6.022      8.742
REMARK  Name = 
REMARK  5 active torsions:
REMARK  status: ('A' for Active; 'I' for Inactive)
REMARK    1  A    between atoms: C_2  and  C_20
REMARK    2  A    between atoms: N_3  and  C_4
REMARK    3  A    between atoms: C_6  and  S_7
REMARK    4  A    between atoms: S_7  and  N_10
REMARK    5  A    between atoms: C_18  and  O_19
REMARK                            x       y       z     vdW  Elec       q    Type
REMARK                         _______ _______ _______ _____ _____    ______ ____
ROOT
ATOM      1  C   UNL     1       0.898   9.260  19.987  0.00  0.00    +0.000 A 
ATOM      2  C   UNL     1      -0.024   9.998  19.245  0.00  0.00    +0.000 A 
ATOM      3  C   UNL     1      -0.864  10.909  19.883  0.00  0.00    +0.000 A 
ATOM      4  C   UNL     1      -0.796  11.092  21.269  0.00  0.00    +0.000 A 
ATOM      5  C   UNL     1       0.112  10.342  22.022  0.00  0.00    +0.000 A 
ATOM      6  C   UNL     1       0.944   9.423  21.380  0.00  0.00    +0.000 A 
ENDROOT
BRANCH   1   9
ATOM      7  O   UNL     1       2.268   9.395  17.415  0.00  0.00    +0.000 OA
ATOM      8  C   UNL     1       2.344   8.418  18.151  0.00  0.00    +0.000 C 
ATOM      9  N   UNL     1       1.765   8.321  19.400  0.00  0.00    +0.000 N 
ATOM     10  H   UNL     1       2.037   7.535  19.987  0.00  0.00    +0.000 HD
BRANCH   8  11
ATOM     11  C   UNL     1       3.109   7.258  17.763  0.00  0.00    +0.000 A 
ATOM     12  C   UNL     1       2.860   5.923  18.015  0.00  0.00    +0.000 A 
ATOM     13  C   UNL     1       3.902   5.191  17.410  0.00  0.00    +0.000 A 
ATOM     14  C   UNL     1       4.223   3.832  17.286  0.00  0.00    +0.000 A 
ATOM     15  C   UNL     1       5.383   3.481  16.585  0.00  0.00    +0.000 A 
ATOM     16  C   UNL     1       6.213   4.460  16.029  0.00  0.00    +0.000 A 
ATOM     17  C   UNL     1       5.912   5.822  16.147  0.00  0.00    +0.000 A 
ATOM     18  C   UNL     1       4.746   6.136  16.837  0.00  0.00    +0.000 A 
ATOM     19  O   UNL     1       4.266   7.394  17.044  0.00  0.00    +0.000 OA
ENDBRANCH   8  11
ENDBRANCH   1   9
BRANCH   3  20
ATOM     20  S   UNL     1      -2.095  11.746  18.913  0.00  0.00    +0.000 S 
ATOM     21  O   UNL     1      -2.971  12.422  19.847  0.00  0.00    +0.000 OA
ATOM     22  O   UNL     1      -1.403  12.491  17.882  0.00  0.00    +0.000 OA
BRANCH  20  23
ATOM     23  N   UNL     1      -2.989  10.508  18.158  0.00  0.00    +0.000 NA
ATOM     24  C   UNL     1      -2.479   9.954  16.869  0.00  0.00    +0.000 C 
ATOM     25  C   UNL     1      -2.809  10.873  15.686  0.00  0.00    +0.000 C 
ATOM     26  O   UNL     1      -4.213  11.152  15.600  0.00  0.00    +0.000 OA
ATOM     27  C   UNL     1      -4.720  11.721  16.818  0.00  0.00    +0.000 C 
ATOM     28  C   UNL     1      -4.455  10.799  18.015  0.00  0.00    +0.000 C 
ENDBRANCH  20  23
ENDBRANCH   3  20
BRANCH   6  29
ATOM     29  O   UNL     1       1.829   8.661  22.099  0.00  0.00    +0.000 OA
ATOM     30  H   UNL     1       2.203   9.204  22.814  0.00  0.00    +0.000 HD
ENDBRANCH   6  29
TORSDOF 5
ENDMDL
MODEL 8
REMARK VINA RESULT:      -7.9      6.021      9.347
REMARK  Name = 
REMARK  5 active torsions:
REMARK  status: ('A' for Active; 'I' for Inactive)
REMARK    1  A    between atoms: C_2  and  C_20
REMARK    2  A    between atoms: N_3  and  C_4
REMARK    3  A    between atoms: C_6  and  S_7
REMARK    4  A    between atoms: S_7  and  N_10
REMARK    5  A    between atoms: C_18  and  O_19
REMARK                            x       y       z     vdW  Elec       q    Type
REMARK                         _______ _______ _______ _____ _____    ______ ____
ROOT
ATOM      1  C   UNL     1       0.724   9.243  20.411  0.00  0.00    +0.000 A 
ATOM      2  C   UNL     1      -0.159   9.854  19.520  0.00  0.00    +0.000 A 
ATOM      3  C   UNL     1      -0.749  11.072  19.848  0.00  0.00    +0.000 A 
ATOM      4  C   UNL     1      -0.471  11.693  21.071  0.00  0.00    +0.000 A 
ATOM      5  C   UNL     1       0.397  11.077  21.978  0.00  0.00    +0.000 A 
ATOM      6  C   UNL     1       0.979   9.852  21.649  0.00  0.00    +0.000 A 
ENDROOT
BRANCH   1   9
ATOM      7  O   UNL     1       2.561   8.560  18.250  0.00  0.00    +0.000 OA
ATOM      8  C   UNL     1       2.167   7.734  19.065  0.00  0.00    +0.000 C 
ATOM      9  N   UNL     1       1.344   8.011  20.137  0.00  0.00    +0.000 N 
ATOM     10  H   UNL     1       1.222   7.283  20.839  0.00  0.00    +0.000 HD
BRANCH   8  11
ATOM     11  C   UNL     1       2.581   6.354  18.977  0.00  0.00    +0.000 A 
ATOM     12  C   UNL     1       3.500   5.668  19.744  0.00  0.00    +0.000 A 
ATOM     13  C   UNL     1       3.530   4.344  19.261  0.00  0.00    +0.000 A 
ATOM     14  C   UNL     1       4.220   3.172  19.605  0.00  0.00    +0.000 A 
ATOM     15  C   UNL     1       3.973   2.010  18.865  0.00  0.00    +0.000 A 
ATOM     16  C   UNL     1       3.067   2.014  17.798  0.00  0.00    +0.000 A 
ATOM     17  C   UNL     1       2.374   3.174  17.437  0.00  0.00    +0.000 A 
ATOM     18  C   UNL     1       2.632   4.307  18.200  0.00  0.00    +0.000 A 
ATOM     19  O   UNL     1       2.048   5.526  18.026  0.00  0.00    +0.000 OA
ENDBRANCH   8  11
ENDBRANCH   1   9
BRANCH   3  20
ATOM     20  S   UNL     1      -1.949  11.758  18.731  0.00  0.00    +0.000 S 
ATOM     21  O   UNL     1      -2.925  12.451  19.545  0.00  0.00    +0.000 OA
ATOM     22  O   UNL     1      -1.223  12.461  17.694  0.00  0.00    +0.000 OA
BRANCH  20  23
ATOM     23  N   UNL     1      -2.718  10.415  18.019  0.00  0.00    +0.000 NA
ATOM     24  C   UNL     1      -2.225   9.942  16.691  0.00  0.00    +0.000 C 
ATOM     25  C   UNL     1      -2.753  10.815  15.545  0.00  0.00    +0.000 C 
ATOM     26  O   UNL     1      -4.185  10.903  15.556  0.00  0.00    +0.000 OA
ATOM     27  C   UNL     1      -4.681  11.393  16.812  0.00  0.00    +0.000 C 
ATOM     28  C   UNL     1      -4.216  10.509  17.976  0.00  0.00    +0.000 C 
ENDBRANCH  20  23
ENDBRANCH   3  20
BRANCH   6  29
ATOM     29  O   UNL     1       1.819   9.218  22.529  0.00  0.00    +0.000 OA
ATOM     30  H   UNL     1       2.392   8.609  22.034  0.00  0.00    +0.000 HD
ENDBRANCH   6  29
TORSDOF 5
ENDMDL
MODEL 9
REMARK VINA RESULT:      -7.8      1.447      1.752
REMARK  Name = 
REMARK  5 active torsions:
REMARK  status: ('A' for Active; 'I' for Inactive)
REMARK    1  A    between atoms: C_2  and  C_20
REMARK    2  A    between atoms: N_3  and  C_4
REMARK    3  A    between atoms: C_6  and  S_7
REMARK    4  A    between atoms: S_7  and  N_10
REMARK    5  A    between atoms: C_18  and  O_19
REMARK                            x       y       z     vdW  Elec       q    Type
REMARK                         _______ _______ _______ _____ _____    ______ ____
ROOT
ATOM      1  C   UNL     1       6.848   6.169  17.128  0.00  0.00    +0.000 A 
ATOM      2  C   UNL     1       6.028   5.564  18.080  0.00  0.00    +0.000 A 
ATOM      3  C   UNL     1       5.473   4.311  17.829  0.00  0.00    +0.000 A 
ATOM      4  C   UNL     1       5.726   3.649  16.622  0.00  0.00    +0.000 A 
ATOM      5  C   UNL     1       6.532   4.257  15.655  0.00  0.00    +0.000 A 
ATOM      6  C   UNL     1       7.078   5.517  15.907  0.00  0.00    +0.000 A 
ENDROOT
BRANCH   1   9
ATOM      7  O   UNL     1       8.619   7.057  19.270  0.00  0.00    +0.000 OA
ATOM      8  C   UNL     1       8.221   7.811  18.389  0.00  0.00    +0.000 C 
ATOM      9  N   UNL     1       7.430   7.435  17.324  0.00  0.00    +0.000 N 
ATOM     10  H   UNL     1       7.305   8.106  16.568  0.00  0.00    +0.000 HD
BRANCH   8  11
ATOM     11  C   UNL     1       8.596   9.205  18.384  0.00  0.00    +0.000 A 
ATOM     12  C   UNL     1       8.180  10.218  17.544  0.00  0.00    +0.000 A 
ATOM     13  C   UNL     1       8.834  11.394  17.966  0.00  0.00    +0.000 A 
ATOM     14  C   UNL     1       8.833  12.736  17.557  0.00  0.00    +0.000 A 
ATOM     15  C   UNL     1       9.643  13.644  18.249  0.00  0.00    +0.000 A 
ATOM     16  C   UNL     1      10.444  13.227  19.317  0.00  0.00    +0.000 A 
ATOM     17  C   UNL     1      10.462  11.892  19.736  0.00  0.00    +0.000 A 
ATOM     18  C   UNL     1       9.637  11.018  19.037  0.00  0.00    +0.000 A 
ATOM     19  O   UNL     1       9.492   9.689  19.299  0.00  0.00    +0.000 OA
ENDBRANCH   8  11
ENDBRANCH   1   9
BRANCH   3  20
ATOM     20  S   UNL     1       4.348   3.630  19.024  0.00  0.00    +0.000 S 
ATOM     21  O   UNL     1       5.125   2.747  19.868  0.00  0.00    +0.000 OA
ATOM     22  O   UNL     1       3.605   4.732  19.598  0.00  0.00    +0.000 OA
BRANCH  20  23
ATOM     23  N   UNL     1       3.263   2.674  18.124  0.00  0.00    +0.000 NA
ATOM     24  C   UNL     1       2.212   3.366  17.320  0.00  0.00    +0.000 C 
ATOM     25  C   UNL     1       1.037   3.824  18.195  0.00  0.00    +0.000 C 
ATOM     26  O   UNL     1       0.474   2.739  18.945  0.00  0.00    +0.000 OA
ATOM     27  C   UNL     1       1.460   2.080  19.756  0.00  0.00    +0.000 C 
ATOM     28  C   UNL     1       2.624   1.560  18.903  0.00  0.00    +0.000 C 
ENDBRANCH  20  23
ENDBRANCH   3  20
BRANCH   6  29
ATOM     29  O   UNL     1       7.855   6.143  14.966  0.00  0.00    +0.000 OA
ATOM     30  H   UNL     1       8.688   5.651  14.869  0.00  0.00    +0.000 HD
ENDBRANCH   6  29
TORSDOF 5
ENDMDL
