MODEL 1
REMARK VINA RESULT:      -9.4      0.000      0.000
REMARK  Name = 
REMARK  5 active torsions:
REMARK  status: ('A' for Active; 'I' for Inactive)
REMARK    1  A    between atoms: C_1  and  C_2
REMARK    2  A    between atoms: C_5  and  C_6
REMARK    3  A    between atoms: C_14  and  C_15
REMARK    4  A    between atoms: C_18  and  C_19
REMARK    5  A    between atoms: C_22  and  C_23
REMARK                            x       y       z     vdW  Elec       q    Type
REMARK                         _______ _______ _______ _____ _____    ______ ____
ROOT
ATOM      1  C   UNL     1       2.134   8.628  18.279  0.00  0.00    +0.000 C 
ATOM      2  O   UNL     1       2.128   9.350  17.269  0.00  0.00    +0.000 OA
ATOM      3  N   UNL     1       3.030   7.558  18.380  0.00  0.00    +0.000 N 
ATOM      4  C   UNL     1       4.020   7.313  17.382  0.00  0.00    +0.000 C 
ATOM      5  C   UNL     1       4.343   5.836  17.608  0.00  0.00    +0.000 C 
ATOM      6  C   UNL     1       5.210   5.361  16.449  0.00  0.00    +0.000 C 
ATOM      7  C   UNL     1       4.683   4.004  16.131  0.00  0.00    +0.000 C 
ATOM      8  C   UNL     1       3.634   3.775  17.197  0.00  0.00    +0.000 C 
ATOM      9  C   UNL     1       2.910   5.148  17.664  0.00  0.00    +0.000 C 
ATOM     10  C   UNL     1       2.606   6.254  18.857  0.00  0.00    +0.000 C 
ENDROOT
BRANCH   1  15
ATOM     11  C   UNL     1      -0.765   9.966  23.091  0.00  0.00    +0.000 C 
ATOM     12  C   UNL     1      -0.061   9.525  21.847  0.00  0.00    +0.000 A 
ATOM     13  C   UNL     1       1.044   8.712  21.898  0.00  0.00    +0.000 A 
ATOM     14  C   UNL     1       1.697   8.432  20.707  0.00  0.00    +0.000 A 
ATOM     15  C   UNL     1       1.242   8.927  19.459  0.00  0.00    +0.000 A 
ATOM     16  C   UNL     1       0.060   9.699  19.468  0.00  0.00    +0.000 A 
ATOM     17  N   UNL     1      -0.541   9.993  20.676  0.00  0.00    +0.000 NA
BRANCH  16  18
ATOM     18  C   UNL     1      -0.699  10.390  18.337  0.00  0.00    +0.000 C 
ATOM     19  C   UNL     1      -2.229  10.231  18.337  0.00  0.00    +0.000 C 
ATOM     20  C   UNL     1      -1.412   9.865  17.139  0.00  0.00    +0.000 C 
ENDBRANCH  16  18
ENDBRANCH   1  15
BRANCH   9  21
ATOM     21  C   UNL     1       2.013   4.236  18.518  0.00  0.00    +0.000 A 
ATOM     22  N   UNL     1       0.989   3.451  18.241  0.00  0.00    +0.000 NA
ATOM     23  N   UNL     1       0.651   2.824  19.428  0.00  0.00    +0.000 NA
ATOM     24  C   UNL     1       1.498   3.269  20.333  0.00  0.00    +0.000 A 
ATOM     25  C   UNL     1       1.726   2.866  21.726  0.00  0.00    +0.000 C 
ATOM     26  O   UNL     1       2.379   4.182  19.836  0.00  0.00    +0.000 OA
ENDBRANCH   9  21
TORSDOF 3
ENDMDL
MODEL 2
REMARK VINA RESULT:      -7.9      1.098      1.302
REMARK  Name = 
REMARK  5 active torsions:
REMARK  status: ('A' for Active; 'I' for Inactive)
REMARK    1  A    between atoms: C_1  and  C_2
REMARK    2  A    between atoms: C_5  and  C_6
REMARK    3  A    between atoms: C_14  and  C_15
REMARK    4  A    between atoms: C_18  and  C_19
REMARK    5  A    between atoms: C_22  and  C_23
REMARK                            x       y       z     vdW  Elec       q    Type
REMARK                         _______ _______ _______ _____ _____    ______ ____
ROOT
ATOM      1  C   UNL     1       2.081   8.748  18.138  0.00  0.00    +0.000 C 
ATOM      2  O   UNL     1       1.822   9.369  17.094  0.00  0.00    +0.000 OA
ATOM      3  N   UNL     1       3.180   7.883  18.193  0.00  0.00    +0.000 N 
ATOM      4  C   UNL     1       4.085   7.751  17.098  0.00  0.00    +0.000 C 
ATOM      5  C   UNL     1       4.721   6.387  17.371  0.00  0.00    +0.000 C 
ATOM      6  C   UNL     1       5.536   5.993  16.145  0.00  0.00    +0.000 C 
ATOM      7  C   UNL     1       5.261   4.539  15.977  0.00  0.00    +0.000 C 
ATOM      8  C   UNL     1       4.400   4.202  17.174  0.00  0.00    +0.000 C 
ATOM      9  C   UNL     1       3.470   5.443  17.643  0.00  0.00    +0.000 C 
ATOM     10  C   UNL     1       3.080   6.565  18.795  0.00  0.00    +0.000 C 
ENDROOT
BRANCH   1  15
ATOM     11  C   UNL     1      -0.445   9.715  23.240  0.00  0.00    +0.000 C 
ATOM     12  C   UNL     1       0.157   9.373  21.913  0.00  0.00    +0.000 A 
ATOM     13  C   UNL     1       1.212   8.500  21.808  0.00  0.00    +0.000 A 
ATOM     14  C   UNL     1       1.776   8.315  20.554  0.00  0.00    +0.000 A 
ATOM     15  C   UNL     1       1.280   8.966  19.397  0.00  0.00    +0.000 A 
ATOM     16  C   UNL     1       0.149   9.796  19.563  0.00  0.00    +0.000 A 
ATOM     17  N   UNL     1      -0.360   9.990  20.831  0.00  0.00    +0.000 NA
BRANCH  16  18
ATOM     18  C   UNL     1      -0.631  10.644  18.561  0.00  0.00    +0.000 C 
ATOM     19  C   UNL     1      -0.376  12.160  18.597  0.00  0.00    +0.000 C 
ATOM     20  C   UNL     1      -1.758  11.604  18.720  0.00  0.00    +0.000 C 
ENDBRANCH  16  18
ENDBRANCH   1  15
BRANCH   9  21
ATOM     21  C   UNL     1       2.871   4.450  18.653  0.00  0.00    +0.000 A 
ATOM     22  N   UNL     1       3.023   4.272  19.952  0.00  0.00    +0.000 NA
ATOM     23  N   UNL     1       2.150   3.259  20.307  0.00  0.00    +0.000 NA
ATOM     24  C   UNL     1       1.529   2.903  19.201  0.00  0.00    +0.000 A 
ATOM     25  C   UNL     1       0.403   1.990  18.974  0.00  0.00    +0.000 C 
ATOM     26  O   UNL     1       1.947   3.600  18.108  0.00  0.00    +0.000 OA
ENDBRANCH   9  21
TORSDOF 3
ENDMDL
MODEL 3
REMARK VINA RESULT:      -7.9      2.132      4.266
REMARK  Name = 
REMARK  5 active torsions:
REMARK  status: ('A' for Active; 'I' for Inactive)
REMARK    1  A    between atoms: C_1  and  C_2
REMARK    2  A    between atoms: C_5  and  C_6
REMARK    3  A    between atoms: C_14  and  C_15
REMARK    4  A    between atoms: C_18  and  C_19
REMARK    5  A    between atoms: C_22  and  C_23
REMARK                            x       y       z     vdW  Elec       q    Type
REMARK                         _______ _______ _______ _____ _____    ______ ____
ROOT
ATOM      1  C   UNL     1       1.649   6.590  20.013  0.00  0.00    +0.000 C 
ATOM      2  O   UNL     1       1.402   6.148  21.146  0.00  0.00    +0.000 OA
ATOM      3  N   UNL     1       1.839   5.716  18.937  0.00  0.00    +0.000 N 
ATOM      4  C   UNL     1       1.671   4.306  19.079  0.00  0.00    +0.000 C 
ATOM      5  C   UNL     1       2.484   3.766  17.901  0.00  0.00    +0.000 C 
ATOM      6  C   UNL     1       2.605   2.257  18.064  0.00  0.00    +0.000 C 
ATOM      7  C   UNL     1       4.011   1.959  17.675  0.00  0.00    +0.000 C 
ATOM      8  C   UNL     1       4.544   3.302  17.224  0.00  0.00    +0.000 C 
ATOM      9  C   UNL     1       3.868   4.540  18.023  0.00  0.00    +0.000 C 
ATOM     10  C   UNL     1       2.926   5.900  17.992  0.00  0.00    +0.000 C 
ENDROOT
BRANCH   1  15
ATOM     11  C   UNL     1       1.381  12.144  18.453  0.00  0.00    +0.000 C 
ATOM     12  C   UNL     1       1.554  10.717  18.868  0.00  0.00    +0.000 A 
ATOM     13  C   UNL     1       1.989   9.761  17.983  0.00  0.00    +0.000 A 
ATOM     14  C   UNL     1       2.026   8.445  18.419  0.00  0.00    +0.000 A 
ATOM     15  C   UNL     1       1.667   8.074  19.739  0.00  0.00    +0.000 A 
ATOM     16  C   UNL     1       1.296   9.114  20.619  0.00  0.00    +0.000 A 
ATOM     17  N   UNL     1       1.229  10.407  20.140  0.00  0.00    +0.000 NA
BRANCH  16  18
ATOM     18  C   UNL     1       0.846   9.084  22.078  0.00  0.00    +0.000 C 
ATOM     19  C   UNL     1      -0.621   8.703  22.339  0.00  0.00    +0.000 C 
ATOM     20  C   UNL     1      -0.044   9.975  22.874  0.00  0.00    +0.000 C 
ENDBRANCH  16  18
ENDBRANCH   1  15
BRANCH   9  21
ATOM     21  C   UNL     1       4.862   5.420  17.244  0.00  0.00    +0.000 A 
ATOM     22  N   UNL     1       4.918   5.839  15.994  0.00  0.00    +0.000 NA
ATOM     23  N   UNL     1       6.020   6.673  15.916  0.00  0.00    +0.000 NA
ATOM     24  C   UNL     1       6.544   6.704  17.124  0.00  0.00    +0.000 A 
ATOM     25  C   UNL     1       7.628   7.517  17.688  0.00  0.00    +0.000 C 
ATOM     26  O   UNL     1       5.877   5.919  18.015  0.00  0.00    +0.000 OA
ENDBRANCH   9  21
TORSDOF 3
ENDMDL
MODEL 4
REMARK VINA RESULT:      -7.9      2.115      4.332
REMARK  Name = 
REMARK  5 active torsions:
REMARK  status: ('A' for Active; 'I' for Inactive)
REMARK    1  A    between atoms: C_1  and  C_2
REMARK    2  A    between atoms: C_5  and  C_6
REMARK    3  A    between atoms: C_14  and  C_15
REMARK    4  A    between atoms: C_18  and  C_19
REMARK    5  A    between atoms: C_22  and  C_23
REMARK                            x       y       z     vdW  Elec       q    Type
REMARK                         _______ _______ _______ _____ _____    ______ ____
ROOT
ATOM      1  C   UNL     1       1.745   6.585  20.199  0.00  0.00    +0.000 C 
ATOM      2  O   UNL     1       1.718   6.231  21.388  0.00  0.00    +0.000 OA
ATOM      3  N   UNL     1       1.738   5.631  19.176  0.00  0.00    +0.000 N 
ATOM      4  C   UNL     1       1.611   4.237  19.452  0.00  0.00    +0.000 C 
ATOM      5  C   UNL     1       2.194   3.605  18.187  0.00  0.00    +0.000 C 
ATOM      6  C   UNL     1       2.356   2.111  18.438  0.00  0.00    +0.000 C 
ATOM      7  C   UNL     1       3.667   1.777  17.816  0.00  0.00    +0.000 C 
ATOM      8  C   UNL     1       4.095   3.078  17.174  0.00  0.00    +0.000 C 
ATOM      9  C   UNL     1       3.571   4.377  17.989  0.00  0.00    +0.000 C 
ATOM     10  C   UNL     1       2.628   5.736  18.033  0.00  0.00    +0.000 C 
ENDROOT
BRANCH   1  15
ATOM     11  C   UNL     1       1.245  11.991  18.230  0.00  0.00    +0.000 C 
ATOM     12  C   UNL     1       1.478  10.608  18.750  0.00  0.00    +0.000 A 
ATOM     13  C   UNL     1       1.963   9.609  17.941  0.00  0.00    +0.000 A 
ATOM     14  C   UNL     1       2.055   8.332  18.474  0.00  0.00    +0.000 A 
ATOM     15  C   UNL     1       1.700   8.044  19.816  0.00  0.00    +0.000 A 
ATOM     16  C   UNL     1       1.275   9.129  20.614  0.00  0.00    +0.000 A 
ATOM     17  N   UNL     1       1.155  10.378  20.039  0.00  0.00    +0.000 NA
BRANCH  16  18
ATOM     18  C   UNL     1       0.814   9.187  22.069  0.00  0.00    +0.000 C 
ATOM     19  C   UNL     1      -0.620   8.710  22.356  0.00  0.00    +0.000 C 
ATOM     20  C   UNL     1      -0.154  10.066  22.781  0.00  0.00    +0.000 C 
ENDBRANCH  16  18
ENDBRANCH   1  15
BRANCH   9  21
ATOM     21  C   UNL     1       4.394   5.189  16.975  0.00  0.00    +0.000 A 
ATOM     22  N   UNL     1       4.638   6.478  16.826  0.00  0.00    +0.000 NA
ATOM     23  N   UNL     1       5.521   6.583  15.766  0.00  0.00    +0.000 NA
ATOM     24  C   UNL     1       5.753   5.353  15.356  0.00  0.00    +0.000 A 
ATOM     25  C   UNL     1       6.704   4.824  14.371  0.00  0.00    +0.000 C 
ATOM     26  O   UNL     1       5.059   4.416  16.062  0.00  0.00    +0.000 OA
ENDBRANCH   9  21
TORSDOF 3
ENDMDL
MODEL 5
REMARK VINA RESULT:      -7.8      1.474      1.719
REMARK  Name = 
REMARK  5 active torsions:
REMARK  status: ('A' for Active; 'I' for Inactive)
REMARK    1  A    between atoms: C_1  and  C_2
REMARK    2  A    between atoms: C_5  and  C_6
REMARK    3  A    between atoms: C_14  and  C_15
REMARK    4  A    between atoms: C_18  and  C_19
REMARK    5  A    between atoms: C_22  and  C_23
REMARK                            x       y       z     vdW  Elec       q    Type
REMARK                         _______ _______ _______ _____ _____    ______ ____
ROOT
ATOM      1  C   UNL     1       2.379   8.404  17.951  0.00  0.00    +0.000 C 
ATOM      2  O   UNL     1       2.002   8.929  16.891  0.00  0.00    +0.000 OA
ATOM      3  N   UNL     1       3.523   7.599  17.974  0.00  0.00    +0.000 N 
ATOM      4  C   UNL     1       4.340   7.425  16.818  0.00  0.00    +0.000 C 
ATOM      5  C   UNL     1       5.069   6.118  17.134  0.00  0.00    +0.000 C 
ATOM      6  C   UNL     1       5.799   5.669  15.875  0.00  0.00    +0.000 C 
ATOM      7  C   UNL     1       5.590   4.195  15.838  0.00  0.00    +0.000 C 
ATOM      8  C   UNL     1       4.850   3.911  17.127  0.00  0.00    +0.000 C 
ATOM      9  C   UNL     1       3.897   5.141  17.582  0.00  0.00    +0.000 C 
ATOM     10  C   UNL     1       3.544   6.329  18.678  0.00  0.00    +0.000 C 
ENDROOT
BRANCH   1  15
ATOM     11  C   UNL     1       0.212   9.304  23.228  0.00  0.00    +0.000 C 
ATOM     12  C   UNL     1       0.689   9.013  21.840  0.00  0.00    +0.000 A 
ATOM     13  C   UNL     1       1.294   7.821  21.524  0.00  0.00    +0.000 A 
ATOM     14  C   UNL     1       1.796   7.670  20.240  0.00  0.00    +0.000 A 
ATOM     15  C   UNL     1       1.674   8.682  19.255  0.00  0.00    +0.000 A 
ATOM     16  C   UNL     1       0.979   9.855  19.624  0.00  0.00    +0.000 A 
ATOM     17  N   UNL     1       0.529   9.989  20.922  0.00  0.00    +0.000 NA
BRANCH  16  18
ATOM     18  C   UNL     1       0.672  11.129  18.840  0.00  0.00    +0.000 C 
ATOM     19  C   UNL     1       1.849  12.089  18.599  0.00  0.00    +0.000 C 
ATOM     20  C   UNL     1       0.584  12.560  19.244  0.00  0.00    +0.000 C 
ENDBRANCH  16  18
ENDBRANCH   1  15
BRANCH   9  21
ATOM     21  C   UNL     1       3.438   4.201  18.710  0.00  0.00    +0.000 A 
ATOM     22  N   UNL     1       4.080   3.440  19.576  0.00  0.00    +0.000 NA
ATOM     23  N   UNL     1       3.111   2.889  20.397  0.00  0.00    +0.000 NA
ATOM     24  C   UNL     1       1.957   3.362  19.974  0.00  0.00    +0.000 A 
ATOM     25  C   UNL     1       0.603   3.252  20.531  0.00  0.00    +0.000 C 
ATOM     26  O   UNL     1       2.082   4.186  18.896  0.00  0.00    +0.000 OA
ENDBRANCH   9  21
TORSDOF 3
ENDMDL
MODEL 6
REMARK VINA RESULT:      -7.7      2.646      5.534
REMARK  Name = 
REMARK  5 active torsions:
REMARK  status: ('A' for Active; 'I' for Inactive)
REMARK    1  A    between atoms: C_1  and  C_2
REMARK    2  A    between atoms: C_5  and  C_6
REMARK    3  A    between atoms: C_14  and  C_15
REMARK    4  A    between atoms: C_18  and  C_19
REMARK    5  A    between atoms: C_22  and  C_23
REMARK                            x       y       z     vdW  Elec       q    Type
REMARK                         _______ _______ _______ _____ _____    ______ ____
ROOT
ATOM      1  C   UNL     1       2.846   4.593  17.869  0.00  0.00    +0.000 C 
ATOM      2  O   UNL     1       2.412   3.432  17.795  0.00  0.00    +0.000 OA
ATOM      3  N   UNL     1       3.686   5.100  16.871  0.00  0.00    +0.000 N 
ATOM      4  C   UNL     1       3.999   4.346  15.701  0.00  0.00    +0.000 C 
ATOM      5  C   UNL     1       5.295   5.008  15.231  0.00  0.00    +0.000 C 
ATOM      6  C   UNL     1       5.888   4.147  14.123  0.00  0.00    +0.000 C 
ATOM      7  C   UNL     1       7.351   4.147  14.405  0.00  0.00    +0.000 C 
ATOM      8  C   UNL     1       7.482   5.088  15.583  0.00  0.00    +0.000 C 
ATOM      9  C   UNL     1       6.182   5.062  16.550  0.00  0.00    +0.000 C 
ATOM     10  C   UNL     1       4.882   5.856  17.197  0.00  0.00    +0.000 C 
ENDROOT
BRANCH   1  15
ATOM     11  C   UNL     1       0.922   8.471  21.691  0.00  0.00    +0.000 C 
ATOM     12  C   UNL     1       1.516   7.479  20.742  0.00  0.00    +0.000 A 
ATOM     13  C   UNL     1       2.200   7.880  19.620  0.00  0.00    +0.000 A 
ATOM     14  C   UNL     1       2.632   6.899  18.741  0.00  0.00    +0.000 A 
ATOM     15  C   UNL     1       2.420   5.518  18.982  0.00  0.00    +0.000 A 
ATOM     16  C   UNL     1       1.772   5.170  20.188  0.00  0.00    +0.000 A 
ATOM     17  N   UNL     1       1.318   6.174  21.020  0.00  0.00    +0.000 NA
BRANCH  16  18
ATOM     18  C   UNL     1       1.375   3.811  20.760  0.00  0.00    +0.000 C 
ATOM     19  C   UNL     1       2.256   3.257  21.892  0.00  0.00    +0.000 C 
ATOM     20  C   UNL     1       1.990   2.459  20.655  0.00  0.00    +0.000 C 
ENDBRANCH  16  18
ENDBRANCH   1  15
BRANCH   9  21
ATOM     21  C   UNL     1       6.992   6.008  17.453  0.00  0.00    +0.000 A 
ATOM     22  N   UNL     1       7.745   5.821  18.520  0.00  0.00    +0.000 NA
ATOM     23  N   UNL     1       8.274   7.060  18.840  0.00  0.00    +0.000 NA
ATOM     24  C   UNL     1       7.809   7.902  17.941  0.00  0.00    +0.000 A 
ATOM     25  C   UNL     1       8.127   9.311  17.678  0.00  0.00    +0.000 C 
ATOM     26  O   UNL     1       6.974   7.313  17.040  0.00  0.00    +0.000 OA
ENDBRANCH   9  21
TORSDOF 3
ENDMDL
MODEL 7
REMARK VINA RESULT:      -7.7      5.733      8.559
REMARK  Name = 
REMARK  5 active torsions:
REMARK  status: ('A' for Active; 'I' for Inactive)
REMARK    1  A    between atoms: C_1  and  C_2
REMARK    2  A    between atoms: C_5  and  C_6
REMARK    3  A    between atoms: C_14  and  C_15
REMARK    4  A    between atoms: C_18  and  C_19
REMARK    5  A    between atoms: C_22  and  C_23
REMARK                            x       y       z     vdW  Elec       q    Type
REMARK                         _______ _______ _______ _____ _____    ______ ____
ROOT
ATOM      1  C   UNL     1      -2.513  12.703  21.569  0.00  0.00    +0.000 C 
ATOM      2  O   UNL     1      -2.949  12.468  22.707  0.00  0.00    +0.000 OA
ATOM      3  N   UNL     1      -3.394  12.895  20.499  0.00  0.00    +0.000 N 
ATOM      4  C   UNL     1      -4.808  12.917  20.687  0.00  0.00    +0.000 C 
ATOM      5  C   UNL     1      -5.323  12.593  19.284  0.00  0.00    +0.000 C 
ATOM      6  C   UNL     1      -6.821  12.336  19.379  0.00  0.00    +0.000 C 
ATOM      7  C   UNL     1      -7.050  11.175  18.475  0.00  0.00    +0.000 C 
ATOM      8  C   UNL     1      -5.688  10.933  17.861  0.00  0.00    +0.000 C 
ATOM      9  C   UNL     1      -4.475  11.314  18.865  0.00  0.00    +0.000 C 
ATOM     10  C   UNL     1      -3.168  12.270  19.208  0.00  0.00    +0.000 C 
ENDROOT
BRANCH   1  15
ATOM     11  C   UNL     1       3.128  13.816  21.032  0.00  0.00    +0.000 C 
ATOM     12  C   UNL     1       1.659  13.534  21.066  0.00  0.00    +0.000 A 
ATOM     13  C   UNL     1       0.732  14.540  20.949  0.00  0.00    +0.000 A 
ATOM     14  C   UNL     1      -0.606  14.206  21.092  0.00  0.00    +0.000 A 
ATOM     15  C   UNL     1      -1.035  12.874  21.318  0.00  0.00    +0.000 A 
ATOM     16  C   UNL     1      -0.036  11.877  21.358  0.00  0.00    +0.000 A 
ATOM     17  N   UNL     1       1.289  12.250  21.254  0.00  0.00    +0.000 NA
BRANCH  16  18
ATOM     18  C   UNL     1      -0.128  10.370  21.588  0.00  0.00    +0.000 C 
ATOM     19  C   UNL     1      -0.432   9.910  23.024  0.00  0.00    +0.000 C 
ATOM     20  C   UNL     1       0.765   9.403  22.284  0.00  0.00    +0.000 C 
ENDBRANCH  16  18
ENDBRANCH   1  15
BRANCH   9  21
ATOM     21  C   UNL     1      -3.557  10.749  17.768  0.00  0.00    +0.000 A 
ATOM     22  N   UNL     1      -2.425  10.069  17.791  0.00  0.00    +0.000 NA
ATOM     23  N   UNL     1      -2.125   9.777  16.472  0.00  0.00    +0.000 NA
ATOM     24  C   UNL     1      -3.098  10.293  15.749  0.00  0.00    +0.000 A 
ATOM     25  C   UNL     1      -3.402  10.185  14.317  0.00  0.00    +0.000 C 
ATOM     26  O   UNL     1      -4.032  10.941  16.499  0.00  0.00    +0.000 OA
ENDBRANCH   9  21
TORSDOF 3
ENDMDL
MODEL 8
REMARK VINA RESULT:      -7.6      5.156      9.908
REMARK  Name = 
REMARK  5 active torsions:
REMARK  status: ('A' for Active; 'I' for Inactive)
REMARK    1  A    between atoms: C_1  and  C_2
REMARK    2  A    between atoms: C_5  and  C_6
REMARK    3  A    between atoms: C_14  and  C_15
REMARK    4  A    between atoms: C_18  and  C_19
REMARK    5  A    between atoms: C_22  and  C_23
REMARK                            x       y       z     vdW  Elec       q    Type
REMARK                         _______ _______ _______ _____ _____    ______ ____
ROOT
ATOM      1  C   UNL     1       0.013  13.173  21.334  0.00  0.00    +0.000 C 
ATOM      2  O   UNL     1       1.216  13.102  21.632  0.00  0.00    +0.000 OA
ATOM      3  N   UNL     1      -0.798  14.166  21.895  0.00  0.00    +0.000 N 
ATOM      4  C   UNL     1      -0.264  15.177  22.749  0.00  0.00    +0.000 C 
ATOM      5  C   UNL     1      -1.504  15.638  23.516  0.00  0.00    +0.000 C 
ATOM      6  C   UNL     1      -1.046  16.548  24.648  0.00  0.00    +0.000 C 
ATOM      7  C   UNL     1      -1.901  16.152  25.802  0.00  0.00    +0.000 C 
ATOM      8  C   UNL     1      -2.842  15.127  25.209  0.00  0.00    +0.000 C 
ATOM      9  C   UNL     1      -2.160  14.275  24.010  0.00  0.00    +0.000 C 
ATOM     10  C   UNL     1      -2.124  13.866  22.407  0.00  0.00    +0.000 C 
ENDROOT
BRANCH   1  15
ATOM     11  C   UNL     1      -1.911   9.912  16.974  0.00  0.00    +0.000 C 
ATOM     12  C   UNL     1      -1.513  10.782  18.124  0.00  0.00    +0.000 A 
ATOM     13  C   UNL     1      -1.448  12.149  18.002  0.00  0.00    +0.000 A 
ATOM     14  C   UNL     1      -0.973  12.873  19.085  0.00  0.00    +0.000 A 
ATOM     15  C   UNL     1      -0.593  12.255  20.303  0.00  0.00    +0.000 A 
ATOM     16  C   UNL     1      -0.751  10.854  20.386  0.00  0.00    +0.000 A 
ATOM     17  N   UNL     1      -1.186  10.159  19.275  0.00  0.00    +0.000 NA
BRANCH  16  18
ATOM     18  C   UNL     1      -0.440   9.873  21.515  0.00  0.00    +0.000 C 
ATOM     19  C   UNL     1       1.028   9.438  21.665  0.00  0.00    +0.000 C 
ATOM     20  C   UNL     1      -0.068   8.431  21.519  0.00  0.00    +0.000 C 
ENDBRANCH  16  18
ENDBRANCH   1  15
BRANCH   9  21
ATOM     21  C   UNL     1      -3.468  13.466  24.010  0.00  0.00    +0.000 A 
ATOM     22  N   UNL     1      -3.751  12.197  24.235  0.00  0.00    +0.000 NA
ATOM     23  N   UNL     1      -5.129  12.091  24.166  0.00  0.00    +0.000 NA
ATOM     24  C   UNL     1      -5.579  13.303  23.913  0.00  0.00    +0.000 A 
ATOM     25  C   UNL     1      -6.945  13.839  23.870  0.00  0.00    +0.000 C 
ATOM     26  O   UNL     1      -4.584  14.224  23.781  0.00  0.00    +0.000 OA
ENDBRANCH   9  21
TORSDOF 3
ENDMDL
MODEL 9
REMARK VINA RESULT:      -7.5      5.417      8.122
REMARK  Name = 
REMARK  5 active torsions:
REMARK  status: ('A' for Active; 'I' for Inactive)
REMARK    1  A    between atoms: C_1  and  C_2
REMARK    2  A    between atoms: C_5  and  C_6
REMARK    3  A    between atoms: C_14  and  C_15
REMARK    4  A    between atoms: C_18  and  C_19
REMARK    5  A    between atoms: C_22  and  C_23
REMARK                            x       y       z     vdW  Elec       q    Type
REMARK                         _______ _______ _______ _____ _____    ______ ____
ROOT
ATOM      1  C   UNL     1      -0.326  11.896  19.571  0.00  0.00    +0.000 C 
ATOM      2  O   UNL     1       0.733  12.105  18.958  0.00  0.00    +0.000 OA
ATOM      3  N   UNL     1      -1.296  11.041  19.037  0.00  0.00    +0.000 N 
ATOM      4  C   UNL     1      -1.072  10.315  17.829  0.00  0.00    +0.000 C 
ATOM      5  C   UNL     1      -2.498  10.004  17.373  0.00  0.00    +0.000 C 
ATOM      6  C   UNL     1      -2.429   9.442  15.959  0.00  0.00    +0.000 C 
ATOM      7  C   UNL     1      -3.579  10.078  15.258  0.00  0.00    +0.000 C 
ATOM      8  C   UNL     1      -4.269  10.864  16.351  0.00  0.00    +0.000 C 
ATOM      9  C   UNL     1      -3.234  11.411  17.472  0.00  0.00    +0.000 C 
ATOM     10  C   UNL     1      -2.705  11.393  19.040  0.00  0.00    +0.000 C 
ENDROOT
BRANCH   1  15
ATOM     11  C   UNL     1      -1.698  14.489  24.545  0.00  0.00    +0.000 C 
ATOM     12  C   UNL     1      -1.242  13.842  23.275  0.00  0.00    +0.000 A 
ATOM     13  C   UNL     1      -0.965  14.582  22.152  0.00  0.00    +0.000 A 
ATOM     14  C   UNL     1      -0.646  13.898  20.989  0.00  0.00    +0.000 A 
ATOM     15  C   UNL     1      -0.567  12.484  20.939  0.00  0.00    +0.000 A 
ATOM     16  C   UNL     1      -0.795  11.786  22.145  0.00  0.00    +0.000 A 
ATOM     17  N   UNL     1      -1.152  12.496  23.275  0.00  0.00    +0.000 NA
BRANCH  16  18
ATOM     18  C   UNL     1      -0.804  10.291  22.456  0.00  0.00    +0.000 C 
ATOM     19  C   UNL     1       0.544   9.660  22.845  0.00  0.00    +0.000 C 
ATOM     20  C   UNL     1      -0.274   9.109  21.721  0.00  0.00    +0.000 C 
ENDBRANCH  16  18
ENDBRANCH   1  15
BRANCH   9  21
ATOM     21  C   UNL     1      -4.458  12.123  18.073  0.00  0.00    +0.000 A 
ATOM     22  N   UNL     1      -4.776  12.508  19.295  0.00  0.00    +0.000 NA
ATOM     23  N   UNL     1      -5.986  13.171  19.187  0.00  0.00    +0.000 NA
ATOM     24  C   UNL     1      -6.307  13.145  17.910  0.00  0.00    +0.000 A 
ATOM     25  C   UNL     1      -7.393  13.801  17.172  0.00  0.00    +0.000 C 
ATOM     26  O   UNL     1      -5.397  12.481  17.145  0.00  0.00    +0.000 OA
ENDBRANCH   9  21
TORSDOF 3
ENDMDL
