MODEL 1
REMARK VINA RESULT:      -8.5      0.000      0.000
REMARK  Name = 
REMARK  7 active torsions:
REMARK  status: ('A' for Active; 'I' for Inactive)
REMARK    1  A    between atoms: C_1  and  C_2
REMARK    2  A    between atoms: N_4  and  C_5
REMARK    3  A    between atoms: C_5  and  C_6
REMARK    4  A    between atoms: C_8  and  C_9
REMARK    5  A    between atoms: C_16  and  C_17
REMARK    6  A    between atoms: C_18  and  S_19
REMARK    7  A    between atoms: S_19  and  N_22
REMARK                            x       y       z     vdW  Elec       q    Type
REMARK                         _______ _______ _______ _____ _____    ______ ____
ROOT
ATOM      1  C   UNL     1       3.725   7.195  17.486  0.00  0.00    +0.000 C 
ATOM      2  C   UNL     1       3.074   6.616  18.695  0.00  0.00    +0.000 A 
ATOM      3  N   UNL     1       2.321   7.433  19.440  0.00  0.00    +0.000 NA
ATOM      4  N   UNL     1       1.790   6.643  20.394  0.00  0.00    +0.000 N 
ATOM      5  C   UNL     1       2.240   5.346  20.332  0.00  0.00    +0.000 A 
ATOM      6  C   UNL     1       1.782   4.278  21.262  0.00  0.00    +0.000 C 
ATOM      7  C   UNL     1       3.091   5.309  19.237  0.00  0.00    +0.000 A 
ENDROOT
BRANCH   7   8
ATOM      8  S   UNL     1       3.923   3.906  18.613  0.00  0.00    +0.000 S 
ATOM      9  O   UNL     1       4.120   3.108  19.804  0.00  0.00    +0.000 OA
ATOM     10  O   UNL     1       3.089   3.442  17.524  0.00  0.00    +0.000 OA
BRANCH   8  11
ATOM     11  N   UNL     1       5.392   4.389  17.976  0.00  0.00    +0.000 N 
ATOM     12  C   UNL     1       6.431   5.058  18.789  0.00  0.00    +0.000 C 
ATOM     13  C   UNL     1       7.450   5.643  17.782  0.00  0.00    +0.000 C 
ATOM     14  C   UNL     1       6.939   5.155  16.462  0.00  0.00    +0.000 A 
ATOM     15  C   UNL     1       7.579   5.215  15.230  0.00  0.00    +0.000 A 
ATOM     16  C   UNL     1       6.919   4.691  14.118  0.00  0.00    +0.000 A 
ATOM     17  C   UNL     1       5.620   4.177  14.241  0.00  0.00    +0.000 A 
ATOM     18  C   UNL     1       4.987   4.130  15.485  0.00  0.00    +0.000 A 
ATOM     19  C   UNL     1       5.675   4.580  16.596  0.00  0.00    +0.000 A 
ENDBRANCH   8  11
ENDBRANCH   7   8
BRANCH   4  20
ATOM     20  C   UNL     1       0.900   7.253  21.374  0.00  0.00    +0.000 C 
BRANCH  20  21
ATOM     21  C   UNL     1       0.896   8.733  21.263  0.00  0.00    +0.000 A 
ATOM     22  C   UNL     1       0.442   9.531  20.188  0.00  0.00    +0.000 A 
ATOM     23  C   UNL     1       0.727  10.828  20.550  0.00  0.00    +0.000 A 
ATOM     24  O   UNL     1       1.315  10.800  21.784  0.00  0.00    +0.000 OA
ATOM     25  N   UNL     1       1.421   9.495  22.233  0.00  0.00    +0.000 NA
BRANCH  23  26
ATOM     26  C   UNL     1       0.471  12.029  19.819  0.00  0.00    +0.000 A 
ATOM     27  C   UNL     1      -0.599  12.327  18.992  0.00  0.00    +0.000 A 
ATOM     28  C   UNL     1      -0.370  13.618  18.460  0.00  0.00    +0.000 A 
ATOM     29  C   UNL     1       0.816  14.046  19.002  0.00  0.00    +0.000 A 
ATOM     30  O   UNL     1       1.323  13.104  19.835  0.00  0.00    +0.000 OA
ENDBRANCH  23  26
ENDBRANCH  20  21
ENDBRANCH   4  20
TORSDOF 5
ENDMDL
MODEL 2
REMARK VINA RESULT:      -8.5      2.670      8.415
REMARK  Name = 
REMARK  7 active torsions:
REMARK  status: ('A' for Active; 'I' for Inactive)
REMARK    1  A    between atoms: C_1  and  C_2
REMARK    2  A    between atoms: N_4  and  C_5
REMARK    3  A    between atoms: C_5  and  C_6
REMARK    4  A    between atoms: C_8  and  C_9
REMARK    5  A    between atoms: C_16  and  C_17
REMARK    6  A    between atoms: C_18  and  S_19
REMARK    7  A    between atoms: S_19  and  N_22
REMARK                            x       y       z     vdW  Elec       q    Type
REMARK                         _______ _______ _______ _____ _____    ______ ____
ROOT
ATOM      1  C   UNL     1       3.980   2.550  20.314  0.00  0.00    +0.000 C 
ATOM      2  C   UNL     1       4.369   3.687  19.434  0.00  0.00    +0.000 A 
ATOM      3  N   UNL     1       5.635   3.728  19.003  0.00  0.00    +0.000 NA
ATOM      4  N   UNL     1       5.685   4.785  18.169  0.00  0.00    +0.000 N 
ATOM      5  C   UNL     1       4.499   5.477  18.104  0.00  0.00    +0.000 A 
ATOM      6  C   UNL     1       4.296   6.669  17.235  0.00  0.00    +0.000 C 
ATOM      7  C   UNL     1       3.629   4.785  18.934  0.00  0.00    +0.000 A 
ENDROOT
BRANCH   7   8
ATOM      8  S   UNL     1       1.945   5.152  19.213  0.00  0.00    +0.000 S 
ATOM      9  O   UNL     1       1.410   5.190  17.869  0.00  0.00    +0.000 OA
ATOM     10  O   UNL     1       1.508   4.156  20.169  0.00  0.00    +0.000 OA
BRANCH   8  11
ATOM     11  N   UNL     1       1.833   6.655  19.937  0.00  0.00    +0.000 N 
ATOM     12  C   UNL     1       1.575   6.824  21.384  0.00  0.00    +0.000 C 
ATOM     13  C   UNL     1       1.200   8.313  21.579  0.00  0.00    +0.000 C 
ATOM     14  C   UNL     1       1.383   8.890  20.210  0.00  0.00    +0.000 A 
ATOM     15  C   UNL     1       1.378  10.231  19.847  0.00  0.00    +0.000 A 
ATOM     16  C   UNL     1       1.575  10.552  18.503  0.00  0.00    +0.000 A 
ATOM     17  C   UNL     1       1.711   9.537  17.545  0.00  0.00    +0.000 A 
ATOM     18  C   UNL     1       1.706   8.193  17.924  0.00  0.00    +0.000 A 
ATOM     19  C   UNL     1       1.588   7.883  19.266  0.00  0.00    +0.000 A 
ENDBRANCH   8  11
ENDBRANCH   7   8
BRANCH   4  20
ATOM     20  C   UNL     1       6.955   5.091  17.523  0.00  0.00    +0.000 C 
BRANCH  20  21
ATOM     21  C   UNL     1       6.875   4.924  16.050  0.00  0.00    +0.000 A 
ATOM     22  C   UNL     1       6.120   3.982  15.314  0.00  0.00    +0.000 A 
ATOM     23  C   UNL     1       6.453   4.196  13.995  0.00  0.00    +0.000 A 
ATOM     24  O   UNL     1       7.357   5.222  13.952  0.00  0.00    +0.000 OA
ATOM     25  N   UNL     1       7.622   5.679  15.232  0.00  0.00    +0.000 NA
BRANCH  23  26
ATOM     26  C   UNL     1       5.970   3.514  12.837  0.00  0.00    +0.000 A 
ATOM     27  C   UNL     1       4.757   3.668  12.185  0.00  0.00    +0.000 A 
ATOM     28  C   UNL     1       4.730   2.730  11.126  0.00  0.00    +0.000 A 
ATOM     29  C   UNL     1       5.930   2.066  11.176  0.00  0.00    +0.000 A 
ATOM     30  O   UNL     1       6.692   2.542  12.193  0.00  0.00    +0.000 OA
ENDBRANCH  23  26
ENDBRANCH  20  21
ENDBRANCH   4  20
TORSDOF 5
ENDMDL
MODEL 3
REMARK VINA RESULT:      -8.4      2.051      3.257
REMARK  Name = 
REMARK  7 active torsions:
REMARK  status: ('A' for Active; 'I' for Inactive)
REMARK    1  A    between atoms: C_1  and  C_2
REMARK    2  A    between atoms: N_4  and  C_5
REMARK    3  A    between atoms: C_5  and  C_6
REMARK    4  A    between atoms: C_8  and  C_9
REMARK    5  A    between atoms: C_16  and  C_17
REMARK    6  A    between atoms: C_18  and  S_19
REMARK    7  A    between atoms: S_19  and  N_22
REMARK                            x       y       z     vdW  Elec       q    Type
REMARK                         _______ _______ _______ _____ _____    ______ ____
ROOT
ATOM      1  C   UNL     1       1.300   4.069  21.177  0.00  0.00    +0.000 C 
ATOM      2  C   UNL     1       1.695   5.237  20.341  0.00  0.00    +0.000 A 
ATOM      3  N   UNL     1       1.502   6.456  20.856  0.00  0.00    +0.000 NA
ATOM      4  N   UNL     1       2.022   7.305  19.946  0.00  0.00    +0.000 N 
ATOM      5  C   UNL     1       2.481   6.669  18.818  0.00  0.00    +0.000 A 
ATOM      6  C   UNL     1       3.120   7.386  17.680  0.00  0.00    +0.000 C 
ATOM      7  C   UNL     1       2.264   5.318  19.048  0.00  0.00    +0.000 A 
ENDROOT
BRANCH   7   8
ATOM      8  S   UNL     1       2.703   3.999  17.991  0.00  0.00    +0.000 S 
ATOM      9  O   UNL     1       2.863   2.900  18.917  0.00  0.00    +0.000 OA
ATOM     10  O   UNL     1       1.669   3.985  16.977  0.00  0.00    +0.000 OA
BRANCH   8  11
ATOM     11  N   UNL     1       4.157   4.364  17.249  0.00  0.00    +0.000 N 
ATOM     12  C   UNL     1       4.419   4.069  15.823  0.00  0.00    +0.000 C 
ATOM     13  C   UNL     1       5.946   4.225  15.629  0.00  0.00    +0.000 C 
ATOM     14  C   UNL     1       6.410   4.705  16.969  0.00  0.00    +0.000 A 
ATOM     15  C   UNL     1       7.664   5.199  17.306  0.00  0.00    +0.000 A 
ATOM     16  C   UNL     1       7.883   5.600  18.624  0.00  0.00    +0.000 A 
ATOM     17  C   UNL     1       6.877   5.447  19.589  0.00  0.00    +0.000 A 
ATOM     18  C   UNL     1       5.623   4.942  19.237  0.00  0.00    +0.000 A 
ATOM     19  C   UNL     1       5.387   4.618  17.914  0.00  0.00    +0.000 A 
ENDBRANCH   8  11
ENDBRANCH   7   8
BRANCH   4  20
ATOM     20  C   UNL     1       1.969   8.733  20.230  0.00  0.00    +0.000 C 
BRANCH  20  21
ATOM     21  C   UNL     1       0.662   9.321  19.843  0.00  0.00    +0.000 A 
ATOM     22  C   UNL     1       0.075   9.384  18.558  0.00  0.00    +0.000 A 
ATOM     23  C   UNL     1      -1.094  10.091  18.725  0.00  0.00    +0.000 A 
ATOM     24  O   UNL     1      -1.198  10.424  20.047  0.00  0.00    +0.000 OA
ATOM     25  N   UNL     1      -0.105   9.945  20.748  0.00  0.00    +0.000 NA
BRANCH  23  26
ATOM     26  C   UNL     1      -2.069  10.437  17.739  0.00  0.00    +0.000 A 
ATOM     27  C   UNL     1      -2.175   9.990  16.433  0.00  0.00    +0.000 A 
ATOM     28  C   UNL     1      -3.273  10.665  15.848  0.00  0.00    +0.000 A 
ATOM     29  C   UNL     1      -3.787  11.474  16.830  0.00  0.00    +0.000 A 
ATOM     30  O   UNL     1      -3.080  11.333  17.978  0.00  0.00    +0.000 OA
ENDBRANCH  23  26
ENDBRANCH  20  21
ENDBRANCH   4  20
TORSDOF 5
ENDMDL
MODEL 4
REMARK VINA RESULT:      -8.4      3.599      6.681
REMARK  Name = 
REMARK  7 active torsions:
REMARK  status: ('A' for Active; 'I' for Inactive)
REMARK    1  A    between atoms: C_1  and  C_2
REMARK    2  A    between atoms: N_4  and  C_5
REMARK    3  A    between atoms: C_5  and  C_6
REMARK    4  A    between atoms: C_8  and  C_9
REMARK    5  A    between atoms: C_16  and  C_17
REMARK    6  A    between atoms: C_18  and  S_19
REMARK    7  A    between atoms: S_19  and  N_22
REMARK                            x       y       z     vdW  Elec       q    Type
REMARK                         _______ _______ _______ _____ _____    ______ ____
ROOT
ATOM      1  C   UNL     1       4.985   3.984  14.713  0.00  0.00    +0.000 C 
ATOM      2  C   UNL     1       5.391   4.173  16.134  0.00  0.00    +0.000 A 
ATOM      3  N   UNL     1       6.580   4.743  16.363  0.00  0.00    +0.000 NA
ATOM      4  N   UNL     1       6.650   4.875  17.703  0.00  0.00    +0.000 N 
ATOM      5  C   UNL     1       5.566   4.336  18.354  0.00  0.00    +0.000 A 
ATOM      6  C   UNL     1       5.400   4.377  19.833  0.00  0.00    +0.000 C 
ATOM      7  C   UNL     1       4.738   3.859  17.348  0.00  0.00    +0.000 A 
ENDROOT
BRANCH   7   8
ATOM      8  S   UNL     1       3.170   3.119  17.556  0.00  0.00    +0.000 S 
ATOM      9  O   UNL     1       2.453   3.580  16.386  0.00  0.00    +0.000 OA
ATOM     10  O   UNL     1       3.454   1.713  17.759  0.00  0.00    +0.000 OA
BRANCH   8  11
ATOM     11  N   UNL     1       2.472   3.717  18.952  0.00  0.00    +0.000 N 
ATOM     12  C   UNL     1       1.767   2.852  19.924  0.00  0.00    +0.000 C 
ATOM     13  C   UNL     1       0.985   3.807  20.857  0.00  0.00    +0.000 C 
ATOM     14  C   UNL     1       1.407   5.164  20.383  0.00  0.00    +0.000 A 
ATOM     15  C   UNL     1       1.167   6.388  20.994  0.00  0.00    +0.000 A 
ATOM     16  C   UNL     1       1.661   7.540  20.379  0.00  0.00    +0.000 A 
ATOM     17  C   UNL     1       2.325   7.457  19.147  0.00  0.00    +0.000 A 
ATOM     18  C   UNL     1       2.552   6.219  18.541  0.00  0.00    +0.000 A 
ATOM     19  C   UNL     1       2.129   5.075  19.192  0.00  0.00    +0.000 A 
ENDBRANCH   8  11
ENDBRANCH   7   8
BRANCH   4  20
ATOM     20  C   UNL     1       7.846   5.481  18.272  0.00  0.00    +0.000 C 
BRANCH  20  21
ATOM     21  C   UNL     1       7.911   6.937  17.988  0.00  0.00    +0.000 A 
ATOM     22  C   UNL     1       8.633   7.934  18.683  0.00  0.00    +0.000 A 
ATOM     23  C   UNL     1       8.297   9.121  18.071  0.00  0.00    +0.000 A 
ATOM     24  O   UNL     1       7.423   8.839  17.058  0.00  0.00    +0.000 OA
ATOM     25  N   UNL     1       7.180   7.476  17.003  0.00  0.00    +0.000 NA
BRANCH  23  26
ATOM     26  C   UNL     1       8.752  10.439  18.383  0.00  0.00    +0.000 A 
ATOM     27  C   UNL     1       9.697  10.829  19.317  0.00  0.00    +0.000 A 
ATOM     28  C   UNL     1       9.756  12.243  19.286  0.00  0.00    +0.000 A 
ATOM     29  C   UNL     1       8.858  12.639  18.327  0.00  0.00    +0.000 A 
ATOM     30  O   UNL     1       8.259  11.560  17.765  0.00  0.00    +0.000 OA
ENDBRANCH  23  26
ENDBRANCH  20  21
ENDBRANCH   4  20
TORSDOF 5
ENDMDL
MODEL 5
REMARK VINA RESULT:      -8.3      2.452      8.523
REMARK  Name = 
REMARK  7 active torsions:
REMARK  status: ('A' for Active; 'I' for Inactive)
REMARK    1  A    between atoms: C_1  and  C_2
REMARK    2  A    between atoms: N_4  and  C_5
REMARK    3  A    between atoms: C_5  and  C_6
REMARK    4  A    between atoms: C_8  and  C_9
REMARK    5  A    between atoms: C_16  and  C_17
REMARK    6  A    between atoms: C_18  and  S_19
REMARK    7  A    between atoms: S_19  and  N_22
REMARK                            x       y       z     vdW  Elec       q    Type
REMARK                         _______ _______ _______ _____ _____    ______ ____
ROOT
ATOM      1  C   UNL     1       2.191   9.637  17.896  0.00  0.00    +0.000 C 
ATOM      2  C   UNL     1       2.252   8.313  18.575  0.00  0.00    +0.000 A 
ATOM      3  N   UNL     1       2.898   7.326  17.942  0.00  0.00    +0.000 NA
ATOM      4  N   UNL     1       2.881   6.290  18.804  0.00  0.00    +0.000 N 
ATOM      5  C   UNL     1       2.174   6.556  19.952  0.00  0.00    +0.000 A 
ATOM      6  C   UNL     1       2.029   5.579  21.066  0.00  0.00    +0.000 C 
ATOM      7  C   UNL     1       1.742   7.868  19.817  0.00  0.00    +0.000 A 
ENDROOT
BRANCH   7   8
ATOM      8  S   UNL     1       0.843   8.793  20.994  0.00  0.00    +0.000 S 
ATOM      9  O   UNL     1      -0.354   7.998  21.163  0.00  0.00    +0.000 OA
ATOM     10  O   UNL     1       1.772   8.997  22.085  0.00  0.00    +0.000 OA
BRANCH   8  11
ATOM     11  N   UNL     1       0.473  10.286  20.338  0.00  0.00    +0.000 N 
ATOM     12  C   UNL     1       0.964  11.554  20.919  0.00  0.00    +0.000 C 
ATOM     13  C   UNL     1       0.133  12.678  20.255  0.00  0.00    +0.000 C 
ATOM     14  C   UNL     1      -0.703  11.937  19.258  0.00  0.00    +0.000 A 
ATOM     15  C   UNL     1      -1.488  12.471  18.245  0.00  0.00    +0.000 A 
ATOM     16  C   UNL     1      -2.187  11.591  17.418  0.00  0.00    +0.000 A 
ATOM     17  C   UNL     1      -2.139  10.209  17.652  0.00  0.00    +0.000 A 
ATOM     18  C   UNL     1      -1.350   9.686  18.678  0.00  0.00    +0.000 A 
ATOM     19  C   UNL     1      -0.599  10.558  19.446  0.00  0.00    +0.000 A 
ENDBRANCH   8  11
ENDBRANCH   7   8
BRANCH   4  20
ATOM     20  C   UNL     1       3.524   5.048  18.397  0.00  0.00    +0.000 C 
BRANCH  20  21
ATOM     21  C   UNL     1       4.532   5.276  17.330  0.00  0.00    +0.000 A 
ATOM     22  C   UNL     1       4.664   4.606  16.092  0.00  0.00    +0.000 A 
ATOM     23  C   UNL     1       5.794   5.136  15.510  0.00  0.00    +0.000 A 
ATOM     24  O   UNL     1       6.301   6.081  16.359  0.00  0.00    +0.000 OA
ATOM     25  N   UNL     1       5.515   6.170  17.496  0.00  0.00    +0.000 NA
BRANCH  23  26
ATOM     26  C   UNL     1       6.375   4.811  14.246  0.00  0.00    +0.000 A 
ATOM     27  C   UNL     1       6.007   3.817  13.355  0.00  0.00    +0.000 A 
ATOM     28  C   UNL     1       6.922   3.864  12.275  0.00  0.00    +0.000 A 
ATOM     29  C   UNL     1       7.788   4.891  12.556  0.00  0.00    +0.000 A 
ATOM     30  O   UNL     1       7.458   5.479  13.733  0.00  0.00    +0.000 OA
ENDBRANCH  23  26
ENDBRANCH  20  21
ENDBRANCH   4  20
TORSDOF 5
ENDMDL
MODEL 6
REMARK VINA RESULT:      -8.1      1.919      2.671
REMARK  Name = 
REMARK  7 active torsions:
REMARK  status: ('A' for Active; 'I' for Inactive)
REMARK    1  A    between atoms: C_1  and  C_2
REMARK    2  A    between atoms: N_4  and  C_5
REMARK    3  A    between atoms: C_5  and  C_6
REMARK    4  A    between atoms: C_8  and  C_9
REMARK    5  A    between atoms: C_16  and  C_17
REMARK    6  A    between atoms: C_18  and  S_19
REMARK    7  A    between atoms: S_19  and  N_22
REMARK                            x       y       z     vdW  Elec       q    Type
REMARK                         _______ _______ _______ _____ _____    ______ ____
ROOT
ATOM      1  C   UNL     1       1.168   3.591  21.007  0.00  0.00    +0.000 C 
ATOM      2  C   UNL     1       1.686   4.806  20.317  0.00  0.00    +0.000 A 
ATOM      3  N   UNL     1       1.414   5.992  20.872  0.00  0.00    +0.000 NA
ATOM      4  N   UNL     1       2.067   6.891  20.109  0.00  0.00    +0.000 N 
ATOM      5  C   UNL     1       2.696   6.323  19.027  0.00  0.00    +0.000 A 
ATOM      6  C   UNL     1       3.502   7.105  18.049  0.00  0.00    +0.000 C 
ATOM      7  C   UNL     1       2.448   4.962  19.135  0.00  0.00    +0.000 A 
ENDROOT
BRANCH   7   8
ATOM      8  S   UNL     1       3.046   3.709  18.077  0.00  0.00    +0.000 S 
ATOM      9  O   UNL     1       2.858   2.516  18.874  0.00  0.00    +0.000 OA
ATOM     10  O   UNL     1       2.327   3.906  16.835  0.00  0.00    +0.000 OA
BRANCH   8  11
ATOM     11  N   UNL     1       4.671   3.978  17.788  0.00  0.00    +0.000 N 
ATOM     12  C   UNL     1       5.633   4.277  18.871  0.00  0.00    +0.000 C 
ATOM     13  C   UNL     1       6.913   4.797  18.173  0.00  0.00    +0.000 C 
ATOM     14  C   UNL     1       6.590   4.647  16.719  0.00  0.00    +0.000 A 
ATOM     15  C   UNL     1       7.455   4.775  15.640  0.00  0.00    +0.000 A 
ATOM     16  C   UNL     1       6.942   4.586  14.356  0.00  0.00    +0.000 A 
ATOM     17  C   UNL     1       5.575   4.337  14.169  0.00  0.00    +0.000 A 
ATOM     18  C   UNL     1       4.715   4.218  15.263  0.00  0.00    +0.000 A 
ATOM     19  C   UNL     1       5.243   4.329  16.535  0.00  0.00    +0.000 A 
ENDBRANCH   8  11
ENDBRANCH   7   8
BRANCH   4  20
ATOM     20  C   UNL     1       1.969   8.299  20.471  0.00  0.00    +0.000 C 
BRANCH  20  21
ATOM     21  C   UNL     1       1.054   9.036  19.564  0.00  0.00    +0.000 A 
ATOM     22  C   UNL     1      -0.296   9.395  19.783  0.00  0.00    +0.000 A 
ATOM     23  C   UNL     1      -0.710   9.993  18.613  0.00  0.00    +0.000 A 
ATOM     24  O   UNL     1       0.348   9.994  17.746  0.00  0.00    +0.000 OA
ATOM     25  N   UNL     1       1.450   9.398  18.336  0.00  0.00    +0.000 NA
BRANCH  23  26
ATOM     26  C   UNL     1      -1.991  10.542  18.304  0.00  0.00    +0.000 A 
ATOM     27  C   UNL     1      -2.770  10.339  17.176  0.00  0.00    +0.000 A 
ATOM     28  C   UNL     1      -3.926  11.144  17.316  0.00  0.00    +0.000 A 
ATOM     29  C   UNL     1      -3.800  11.781  18.525  0.00  0.00    +0.000 A 
ATOM     30  O   UNL     1      -2.647  11.413  19.136  0.00  0.00    +0.000 OA
ENDBRANCH  23  26
ENDBRANCH  20  21
ENDBRANCH   4  20
TORSDOF 5
ENDMDL
MODEL 7
REMARK VINA RESULT:      -8.0      0.996      1.968
REMARK  Name = 
REMARK  7 active torsions:
REMARK  status: ('A' for Active; 'I' for Inactive)
REMARK    1  A    between atoms: C_1  and  C_2
REMARK    2  A    between atoms: N_4  and  C_5
REMARK    3  A    between atoms: C_5  and  C_6
REMARK    4  A    between atoms: C_8  and  C_9
REMARK    5  A    between atoms: C_16  and  C_17
REMARK    6  A    between atoms: C_18  and  S_19
REMARK    7  A    between atoms: S_19  and  N_22
REMARK                            x       y       z     vdW  Elec       q    Type
REMARK                         _______ _______ _______ _____ _____    ______ ____
ROOT
ATOM      1  C   UNL     1       3.444   7.377  17.472  0.00  0.00    +0.000 C 
ATOM      2  C   UNL     1       2.718   6.745  18.609  0.00  0.00    +0.000 A 
ATOM      3  N   UNL     1       2.216   7.558  19.546  0.00  0.00    +0.000 NA
ATOM      4  N   UNL     1       1.546   6.745  20.388  0.00  0.00    +0.000 N 
ATOM      5  C   UNL     1       1.663   5.415  20.060  0.00  0.00    +0.000 A 
ATOM      6  C   UNL     1       0.995   4.325  20.823  0.00  0.00    +0.000 C 
ATOM      7  C   UNL     1       2.437   5.392  18.909  0.00  0.00    +0.000 A 
ENDROOT
BRANCH   7   8
ATOM      8  S   UNL     1       2.877   3.979  17.981  0.00  0.00    +0.000 S 
ATOM      9  O   UNL     1       2.981   2.958  19.001  0.00  0.00    +0.000 OA
ATOM     10  O   UNL     1       1.877   3.903  16.937  0.00  0.00    +0.000 OA
BRANCH   8  11
ATOM     11  N   UNL     1       4.362   4.249  17.261  0.00  0.00    +0.000 N 
ATOM     12  C   UNL     1       4.667   3.818  15.879  0.00  0.00    +0.000 C 
ATOM     13  C   UNL     1       6.203   3.929  15.726  0.00  0.00    +0.000 C 
ATOM     14  C   UNL     1       6.631   4.523  17.032  0.00  0.00    +0.000 A 
ATOM     15  C   UNL     1       7.882   5.024  17.366  0.00  0.00    +0.000 A 
ATOM     16  C   UNL     1       8.064   5.542  18.649  0.00  0.00    +0.000 A 
ATOM     17  C   UNL     1       7.023   5.496  19.587  0.00  0.00    +0.000 A 
ATOM     18  C   UNL     1       5.772   4.983  19.238  0.00  0.00    +0.000 A 
ATOM     19  C   UNL     1       5.574   4.542  17.943  0.00  0.00    +0.000 A 
ENDBRANCH   8  11
ENDBRANCH   7   8
BRANCH   4  20
ATOM     20  C   UNL     1       0.870   7.346  21.530  0.00  0.00    +0.000 C 
BRANCH  20  21
ATOM     21  C   UNL     1       0.796   8.824  21.408  0.00  0.00    +0.000 A 
ATOM     22  C   UNL     1       0.143   9.590  20.415  0.00  0.00    +0.000 A 
ATOM     23  C   UNL     1       0.439  10.902  20.712  0.00  0.00    +0.000 A 
ATOM     24  O   UNL     1       1.224  10.911  21.832  0.00  0.00    +0.000 OA
ATOM     25  N   UNL     1       1.449   9.617  22.269  0.00  0.00    +0.000 NA
BRANCH  23  26
ATOM     26  C   UNL     1       0.024  12.082  20.022  0.00  0.00    +0.000 A 
ATOM     27  C   UNL     1      -0.011  12.320  18.659  0.00  0.00    +0.000 A 
ATOM     28  C   UNL     1      -0.446  13.655  18.479  0.00  0.00    +0.000 A 
ATOM     29  C   UNL     1      -0.667  14.155  19.737  0.00  0.00    +0.000 A 
ATOM     30  O   UNL     1      -0.403  13.211  20.674  0.00  0.00    +0.000 OA
ENDBRANCH  23  26
ENDBRANCH  20  21
ENDBRANCH   4  20
TORSDOF 5
ENDMDL
MODEL 8
REMARK VINA RESULT:      -7.9      1.549      2.390
REMARK  Name = 
REMARK  7 active torsions:
REMARK  status: ('A' for Active; 'I' for Inactive)
REMARK    1  A    between atoms: C_1  and  C_2
REMARK    2  A    between atoms: N_4  and  C_5
REMARK    3  A    between atoms: C_5  and  C_6
REMARK    4  A    between atoms: C_8  and  C_9
REMARK    5  A    between atoms: C_16  and  C_17
REMARK    6  A    between atoms: C_18  and  S_19
REMARK    7  A    between atoms: S_19  and  N_22
REMARK                            x       y       z     vdW  Elec       q    Type
REMARK                         _______ _______ _______ _____ _____    ______ ____
ROOT
ATOM      1  C   UNL     1       2.060   4.160  21.318  0.00  0.00    +0.000 C 
ATOM      2  C   UNL     1       2.385   5.132  20.236  0.00  0.00    +0.000 A 
ATOM      3  N   UNL     1       1.736   6.302  20.245  0.00  0.00    +0.000 NA
ATOM      4  N   UNL     1       2.280   7.009  19.234  0.00  0.00    +0.000 N 
ATOM      5  C   UNL     1       3.216   6.297  18.521  0.00  0.00    +0.000 A 
ATOM      6  C   UNL     1       3.974   6.867  17.373  0.00  0.00    +0.000 C 
ATOM      7  C   UNL     1       3.290   5.062  19.151  0.00  0.00    +0.000 A 
ENDROOT
BRANCH   7   8
ATOM      8  S   UNL     1       4.359   3.746  18.735  0.00  0.00    +0.000 S 
ATOM      9  O   UNL     1       4.702   3.204  20.032  0.00  0.00    +0.000 OA
ATOM     10  O   UNL     1       3.617   2.966  17.766  0.00  0.00    +0.000 OA
BRANCH   8  11
ATOM     11  N   UNL     1       5.713   4.369  17.977  0.00  0.00    +0.000 N 
ATOM     12  C   UNL     1       6.711   5.198  18.687  0.00  0.00    +0.000 C 
ATOM     13  C   UNL     1       7.584   5.850  17.588  0.00  0.00    +0.000 C 
ATOM     14  C   UNL     1       7.054   5.238  16.328  0.00  0.00    +0.000 A 
ATOM     15  C   UNL     1       7.601   5.312  15.054  0.00  0.00    +0.000 A 
ATOM     16  C   UNL     1       6.941   4.657  14.013  0.00  0.00    +0.000 A 
ATOM     17  C   UNL     1       5.726   3.997  14.248  0.00  0.00    +0.000 A 
ATOM     18  C   UNL     1       5.184   3.937  15.534  0.00  0.00    +0.000 A 
ATOM     19  C   UNL     1       5.881   4.522  16.574  0.00  0.00    +0.000 A 
ENDBRANCH   8  11
ENDBRANCH   7   8
BRANCH   4  20
ATOM     20  C   UNL     1       1.779   8.354  18.989  0.00  0.00    +0.000 C 
BRANCH  20  21
ATOM     21  C   UNL     1       1.239   8.972  20.227  0.00  0.00    +0.000 A 
ATOM     22  C   UNL     1       0.382  10.090  20.347  0.00  0.00    +0.000 A 
ATOM     23  C   UNL     1       0.244  10.300  21.701  0.00  0.00    +0.000 A 
ATOM     24  O   UNL     1       0.979   9.347  22.351  0.00  0.00    +0.000 OA
ATOM     25  N   UNL     1       1.601   8.516  21.434  0.00  0.00    +0.000 NA
BRANCH  23  26
ATOM     26  C   UNL     1      -0.520  11.305  22.368  0.00  0.00    +0.000 A 
ATOM     27  C   UNL     1      -1.673  11.157  23.122  0.00  0.00    +0.000 A 
ATOM     28  C   UNL     1      -2.078  12.452  23.525  0.00  0.00    +0.000 A 
ATOM     29  C   UNL     1      -1.146  13.318  23.010  0.00  0.00    +0.000 A 
ATOM     30  O   UNL     1      -0.194  12.637  22.326  0.00  0.00    +0.000 OA
ENDBRANCH  23  26
ENDBRANCH  20  21
ENDBRANCH   4  20
TORSDOF 5
ENDMDL
MODEL 9
REMARK VINA RESULT:      -7.8      2.430      3.409
REMARK  Name = 
REMARK  7 active torsions:
REMARK  status: ('A' for Active; 'I' for Inactive)
REMARK    1  A    between atoms: C_1  and  C_2
REMARK    2  A    between atoms: N_4  and  C_5
REMARK    3  A    between atoms: C_5  and  C_6
REMARK    4  A    between atoms: C_8  and  C_9
REMARK    5  A    between atoms: C_16  and  C_17
REMARK    6  A    between atoms: C_18  and  S_19
REMARK    7  A    between atoms: S_19  and  N_22
REMARK                            x       y       z     vdW  Elec       q    Type
REMARK                         _______ _______ _______ _____ _____    ______ ____
ROOT
ATOM      1  C   UNL     1       3.495   7.633  16.911  0.00  0.00    +0.000 C 
ATOM      2  C   UNL     1       2.776   7.780  18.208  0.00  0.00    +0.000 A 
ATOM      3  N   UNL     1       2.418   9.015  18.577  0.00  0.00    +0.000 NA
ATOM      4  N   UNL     1       1.718   8.849  19.716  0.00  0.00    +0.000 N 
ATOM      5  C   UNL     1       1.676   7.540  20.136  0.00  0.00    +0.000 A 
ATOM      6  C   UNL     1       0.944   7.098  21.355  0.00  0.00    +0.000 C 
ATOM      7  C   UNL     1       2.373   6.827  19.172  0.00  0.00    +0.000 A 
ENDROOT
BRANCH   7   8
ATOM      8  S   UNL     1       2.607   5.097  19.126  0.00  0.00    +0.000 S 
ATOM      9  O   UNL     1       3.002   4.801  20.486  0.00  0.00    +0.000 OA
ATOM     10  O   UNL     1       1.376   4.577  18.569  0.00  0.00    +0.000 OA
BRANCH   8  11
ATOM     11  N   UNL     1       3.849   4.750  18.061  0.00  0.00    +0.000 N 
ATOM     12  C   UNL     1       3.647   3.935  16.842  0.00  0.00    +0.000 C 
ATOM     13  C   UNL     1       5.063   3.560  16.341  0.00  0.00    +0.000 C 
ATOM     14  C   UNL     1       5.962   4.297  17.284  0.00  0.00    +0.000 A 
ATOM     15  C   UNL     1       7.335   4.481  17.178  0.00  0.00    +0.000 A 
ATOM     16  C   UNL     1       7.981   5.212  18.176  0.00  0.00    +0.000 A 
ATOM     17  C   UNL     1       7.264   5.691  19.282  0.00  0.00    +0.000 A 
ATOM     18  C   UNL     1       5.885   5.492  19.378  0.00  0.00    +0.000 A 
ATOM     19  C   UNL     1       5.238   4.834  18.350  0.00  0.00    +0.000 A 
ENDBRANCH   8  11
ENDBRANCH   7   8
BRANCH   4  20
ATOM     20  C   UNL     1       1.177  10.034  20.370  0.00  0.00    +0.000 C 
BRANCH  20  21
ATOM     21  C   UNL     1       0.186  10.729  19.511  0.00  0.00    +0.000 A 
ATOM     22  C   UNL     1      -0.911  10.175  18.814  0.00  0.00    +0.000 A 
ATOM     23  C   UNL     1      -1.464  11.222  18.110  0.00  0.00    +0.000 A 
ATOM     24  O   UNL     1      -0.732  12.344  18.385  0.00  0.00    +0.000 OA
ATOM     25  N   UNL     1       0.298  12.041  19.258  0.00  0.00    +0.000 NA
BRANCH  23  26
ATOM     26  C   UNL     1      -2.600  11.207  17.244  0.00  0.00    +0.000 A 
ATOM     27  C   UNL     1      -3.918  11.509  17.541  0.00  0.00    +0.000 A 
ATOM     28  C   UNL     1      -4.673  11.293  16.363  0.00  0.00    +0.000 A 
ATOM     29  C   UNL     1      -3.775  10.887  15.408  0.00  0.00    +0.000 A 
ATOM     30  O   UNL     1      -2.521  10.847  15.923  0.00  0.00    +0.000 OA
ENDBRANCH  23  26
ENDBRANCH  20  21
ENDBRANCH   4  20
TORSDOF 5
ENDMDL
