MODEL 1
REMARK VINA RESULT:      -7.7      0.000      0.000
REMARK  Name = 
REMARK  3 active torsions:
REMARK  status: ('A' for Active; 'I' for Inactive)
REMARK    1  A    between atoms: N_1  and  C_2
REMARK    2  A    between atoms: N_7  and  C_8
REMARK    3  A    between atoms: N_16  and  C_17
REMARK                            x       y       z     vdW  Elec       q    Type
REMARK                         _______ _______ _______ _____ _____    ______ ____
ROOT
ATOM      1  C   UNL     1       3.683   5.285  19.022  0.00  0.00    +0.000 A 
ATOM      2  N   UNL     1       3.140   4.644  20.091  0.00  0.00    +0.000 NA
ATOM      3  C   UNL     1       2.149   5.225  20.783  0.00  0.00    +0.000 A 
ATOM      4  N   UNL     1       1.602   6.426  20.575  0.00  0.00    +0.000 NA
ATOM      5  C   UNL     1       2.165   7.071  19.532  0.00  0.00    +0.000 A 
ATOM      6  C   UNL     1       3.177   6.565  18.728  0.00  0.00    +0.000 A 
ATOM      7  C   UNL     1       3.417   7.587  17.794  0.00  0.00    +0.000 A 
ATOM      8  N   UNL     1       2.622   8.643  17.946  0.00  0.00    +0.000 NA
ATOM      9  N   UNL     1       1.863   8.341  19.043  0.00  0.00    +0.000 N 
ENDROOT
BRANCH   1  15
ATOM     10  C   UNL     1       5.650   4.203  16.225  0.00  0.00    +0.000 C 
ATOM     11  C   UNL     1       5.847   5.560  15.517  0.00  0.00    +0.000 C 
ATOM     12  C   UNL     1       7.079   5.829  16.393  0.00  0.00    +0.000 C 
ATOM     13  C   UNL     1       6.778   4.551  17.209  0.00  0.00    +0.000 C 
ATOM     14  C   UNL     1       6.092   4.758  18.562  0.00  0.00    +0.000 C 
ATOM     15  N   UNL     1       4.665   4.649  18.313  0.00  0.00    +0.000 N 
ATOM     16  C   UNL     1       4.388   3.982  17.048  0.00  0.00    +0.000 C 
BRANCH  10  17
ATOM     17  N   UNL     1       6.072   3.113  15.340  0.00  0.00    +0.000 NA
ATOM     18  H   UNL     1       6.496   2.318  15.817  0.00  0.00    +0.000 HD
ATOM     19  H   UNL     1       6.745   3.402  14.631  0.00  0.00    +0.000 HD
ENDBRANCH  10  17
ENDBRANCH   1  15
BRANCH   9  20
ATOM     20  C   UNL     1       0.921   9.296  19.530  0.00  0.00    +0.000 A 
ATOM     21  C   UNL     1       0.151  10.028  18.611  0.00  0.00    +0.000 A 
ATOM     22  C   UNL     1      -0.781  10.967  19.060  0.00  0.00    +0.000 A 
ATOM     23  C   UNL     1      -0.943  11.190  20.424  0.00  0.00    +0.000 A 
ATOM     24  C   UNL     1      -0.178  10.476  21.341  0.00  0.00    +0.000 A 
ATOM     25  C   UNL     1       0.750   9.531  20.902  0.00  0.00    +0.000 A 
ENDBRANCH   9  20
TORSDOF 3
ENDMDL
MODEL 2
REMARK VINA RESULT:      -7.7      0.066      1.008
REMARK  Name = 
REMARK  3 active torsions:
REMARK  status: ('A' for Active; 'I' for Inactive)
REMARK    1  A    between atoms: N_1  and  C_2
REMARK    2  A    between atoms: N_7  and  C_8
REMARK    3  A    between atoms: N_16  and  C_17
REMARK                            x       y       z     vdW  Elec       q    Type
REMARK                         _______ _______ _______ _____ _____    ______ ____
ROOT
ATOM      1  C   UNL     1       3.664   5.310  19.040  0.00  0.00    +0.000 A 
ATOM      2  N   UNL     1       3.121   4.676  20.112  0.00  0.00    +0.000 NA
ATOM      3  C   UNL     1       2.132   5.263  20.802  0.00  0.00    +0.000 A 
ATOM      4  N   UNL     1       1.589   6.465  20.590  0.00  0.00    +0.000 NA
ATOM      5  C   UNL     1       2.154   7.103  19.543  0.00  0.00    +0.000 A 
ATOM      6  C   UNL     1       3.163   6.591  18.741  0.00  0.00    +0.000 A 
ATOM      7  C   UNL     1       3.406   7.608  17.803  0.00  0.00    +0.000 A 
ATOM      8  N   UNL     1       2.614   8.668  17.951  0.00  0.00    +0.000 NA
ATOM      9  N   UNL     1       1.855   8.372  19.049  0.00  0.00    +0.000 N 
ENDROOT
BRANCH   1  15
ATOM     10  C   UNL     1       5.618   4.201  16.244  0.00  0.00    +0.000 C 
ATOM     11  C   UNL     1       5.810   5.551  15.520  0.00  0.00    +0.000 C 
ATOM     12  C   UNL     1       7.046   5.830  16.387  0.00  0.00    +0.000 C 
ATOM     13  C   UNL     1       6.751   4.561  17.218  0.00  0.00    +0.000 C 
ATOM     14  C   UNL     1       6.072   4.782  18.573  0.00  0.00    +0.000 C 
ATOM     15  N   UNL     1       4.644   4.667  18.332  0.00  0.00    +0.000 N 
ATOM     16  C   UNL     1       4.361   3.988  17.076  0.00  0.00    +0.000 C 
BRANCH  10  17
ATOM     17  N   UNL     1       6.037   3.102  15.369  0.00  0.00    +0.000 NA
ATOM     18  H   UNL     1       5.626   2.197  15.595  0.00  0.00    +0.000 HD
ATOM     19  H   UNL     1       7.046   2.954  15.357  0.00  0.00    +0.000 HD
ENDBRANCH  10  17
ENDBRANCH   1  15
BRANCH   9  20
ATOM     20  C   UNL     1       0.917   9.333  19.534  0.00  0.00    +0.000 A 
ATOM     21  C   UNL     1       0.841   9.581  20.914  0.00  0.00    +0.000 A 
ATOM     22  C   UNL     1      -0.067  10.517  21.415  0.00  0.00    +0.000 A 
ATOM     23  C   UNL     1      -0.910  11.204  20.546  0.00  0.00    +0.000 A 
ATOM     24  C   UNL     1      -0.848  10.957  19.178  0.00  0.00    +0.000 A 
ATOM     25  C   UNL     1       0.060  10.028  18.668  0.00  0.00    +0.000 A 
ENDBRANCH   9  20
TORSDOF 3
ENDMDL
MODEL 3
REMARK VINA RESULT:      -7.4      2.406      3.321
REMARK  Name = 
REMARK  3 active torsions:
REMARK  status: ('A' for Active; 'I' for Inactive)
REMARK    1  A    between atoms: N_1  and  C_2
REMARK    2  A    between atoms: N_7  and  C_8
REMARK    3  A    between atoms: N_16  and  C_17
REMARK                            x       y       z     vdW  Elec       q    Type
REMARK                         _______ _______ _______ _____ _____    ______ ____
ROOT
ATOM      1  C   UNL     1       2.268   6.682  19.543  0.00  0.00    +0.000 A 
ATOM      2  N   UNL     1       1.726   6.634  20.788  0.00  0.00    +0.000 NA
ATOM      3  C   UNL     1       1.083   7.705  21.276  0.00  0.00    +0.000 A 
ATOM      4  N   UNL     1       0.910   8.893  20.688  0.00  0.00    +0.000 NA
ATOM      5  C   UNL     1       1.477   8.944  19.464  0.00  0.00    +0.000 A 
ATOM      6  C   UNL     1       2.145   7.897  18.845  0.00  0.00    +0.000 A 
ATOM      7  C   UNL     1       2.541   8.428  17.606  0.00  0.00    +0.000 A 
ATOM      8  N   UNL     1       2.146   9.685  17.415  0.00  0.00    +0.000 NA
ATOM      9  N   UNL     1       1.511  10.020  18.578  0.00  0.00    +0.000 N 
ENDROOT
BRANCH   1  15
ATOM     10  C   UNL     1       3.697   3.392  19.471  0.00  0.00    +0.000 C 
ATOM     11  C   UNL     1       2.576   2.616  20.194  0.00  0.00    +0.000 C 
ATOM     12  C   UNL     1       1.853   2.428  18.853  0.00  0.00    +0.000 C 
ATOM     13  C   UNL     1       2.888   3.346  18.165  0.00  0.00    +0.000 C 
ATOM     14  C   UNL     1       2.446   4.789  17.906  0.00  0.00    +0.000 C 
ATOM     15  N   UNL     1       2.882   5.559  19.058  0.00  0.00    +0.000 N 
ATOM     16  C   UNL     1       3.911   4.861  19.815  0.00  0.00    +0.000 C 
BRANCH  10  17
ATOM     17  N   UNL     1       4.891   2.551  19.354  0.00  0.00    +0.000 NA
ATOM     18  H   UNL     1       5.648   2.794  19.992  0.00  0.00    +0.000 HD
ATOM     19  H   UNL     1       5.302   2.556  18.421  0.00  0.00    +0.000 HD
ENDBRANCH  10  17
ENDBRANCH   1  15
BRANCH   9  20
ATOM     20  C   UNL     1       0.998  11.342  18.742  0.00  0.00    +0.000 A 
ATOM     21  C   UNL     1      -0.390  11.550  18.685  0.00  0.00    +0.000 A 
ATOM     22  C   UNL     1      -0.919  12.834  18.845  0.00  0.00    +0.000 A 
ATOM     23  C   UNL     1      -0.070  13.917  19.053  0.00  0.00    +0.000 A 
ATOM     24  C   UNL     1       1.307  13.720  19.101  0.00  0.00    +0.000 A 
ATOM     25  C   UNL     1       1.844  12.441  18.949  0.00  0.00    +0.000 A 
ENDBRANCH   9  20
TORSDOF 3
ENDMDL
MODEL 4
REMARK VINA RESULT:      -7.4      2.466      4.029
REMARK  Name = 
REMARK  3 active torsions:
REMARK  status: ('A' for Active; 'I' for Inactive)
REMARK    1  A    between atoms: N_1  and  C_2
REMARK    2  A    between atoms: N_7  and  C_8
REMARK    3  A    between atoms: N_16  and  C_17
REMARK                            x       y       z     vdW  Elec       q    Type
REMARK                         _______ _______ _______ _____ _____    ______ ____
ROOT
ATOM      1  C   UNL     1       2.616   6.577  19.249  0.00  0.00    +0.000 A 
ATOM      2  N   UNL     1       3.091   6.669  17.979  0.00  0.00    +0.000 NA
ATOM      3  C   UNL     1       2.923   7.806  17.287  0.00  0.00    +0.000 A 
ATOM      4  N   UNL     1       2.297   8.918  17.681  0.00  0.00    +0.000 NA
ATOM      5  C   UNL     1       1.800   8.810  18.932  0.00  0.00    +0.000 A 
ATOM      6  C   UNL     1       1.930   7.698  19.752  0.00  0.00    +0.000 A 
ATOM      7  C   UNL     1       1.263   8.064  20.933  0.00  0.00    +0.000 A 
ATOM      8  N   UNL     1       0.773   9.301  20.906  0.00  0.00    +0.000 NA
ATOM      9  N   UNL     1       1.077   9.758  19.654  0.00  0.00    +0.000 N 
ENDROOT
BRANCH   1  15
ATOM     10  C   UNL     1       1.964   3.426  20.835  0.00  0.00    +0.000 C 
ATOM     11  C   UNL     1       1.155   2.743  19.712  0.00  0.00    +0.000 C 
ATOM     12  C   UNL     1       2.465   2.253  19.079  0.00  0.00    +0.000 C 
ATOM     13  C   UNL     1       3.272   3.078  20.107  0.00  0.00    +0.000 C 
ATOM     14  C   UNL     1       3.834   4.414  19.612  0.00  0.00    +0.000 C 
ATOM     15  N   UNL     1       2.838   5.418  19.944  0.00  0.00    +0.000 N 
ATOM     16  C   UNL     1       1.909   4.943  20.959  0.00  0.00    +0.000 C 
BRANCH  10  17
ATOM     17  N   UNL     1       1.855   2.648  22.073  0.00  0.00    +0.000 NA
ATOM     18  H   UNL     1       2.553   1.912  22.176  0.00  0.00    +0.000 HD
ATOM     19  H   UNL     1       0.951   2.192  22.188  0.00  0.00    +0.000 HD
ENDBRANCH  10  17
ENDBRANCH   1  15
BRANCH   9  20
ATOM     20  C   UNL     1       0.644  11.058  19.256  0.00  0.00    +0.000 A 
ATOM     21  C   UNL     1      -0.635  11.212  18.695  0.00  0.00    +0.000 A 
ATOM     22  C   UNL     1      -1.085  12.474  18.299  0.00  0.00    +0.000 A 
ATOM     23  C   UNL     1      -0.263  13.587  18.451  0.00  0.00    +0.000 A 
ATOM     24  C   UNL     1       1.009  13.442  18.997  0.00  0.00    +0.000 A 
ATOM     25  C   UNL     1       1.465  12.186  19.401  0.00  0.00    +0.000 A 
ENDBRANCH   9  20
TORSDOF 3
ENDMDL
MODEL 5
REMARK VINA RESULT:      -7.4      2.430      3.412
REMARK  Name = 
REMARK  3 active torsions:
REMARK  status: ('A' for Active; 'I' for Inactive)
REMARK    1  A    between atoms: N_1  and  C_2
REMARK    2  A    between atoms: N_7  and  C_8
REMARK    3  A    between atoms: N_16  and  C_17
REMARK                            x       y       z     vdW  Elec       q    Type
REMARK                         _______ _______ _______ _____ _____    ______ ____
ROOT
ATOM      1  C   UNL     1       2.249   6.726  19.552  0.00  0.00    +0.000 A 
ATOM      2  N   UNL     1       1.704   6.700  20.797  0.00  0.00    +0.000 NA
ATOM      3  C   UNL     1       1.070   7.783  21.269  0.00  0.00    +0.000 A 
ATOM      4  N   UNL     1       0.909   8.964  20.666  0.00  0.00    +0.000 NA
ATOM      5  C   UNL     1       1.479   8.995  19.443  0.00  0.00    +0.000 A 
ATOM      6  C   UNL     1       2.139   7.934  18.839  0.00  0.00    +0.000 A 
ATOM      7  C   UNL     1       2.543   8.445  17.594  0.00  0.00    +0.000 A 
ATOM      8  N   UNL     1       2.160   9.703  17.386  0.00  0.00    +0.000 NA
ATOM      9  N   UNL     1       1.525  10.059  18.544  0.00  0.00    +0.000 N 
ENDROOT
BRANCH   1  15
ATOM     10  C   UNL     1       3.719   3.454  19.544  0.00  0.00    +0.000 C 
ATOM     11  C   UNL     1       2.647   2.695  20.354  0.00  0.00    +0.000 C 
ATOM     12  C   UNL     1       1.860   2.442  19.060  0.00  0.00    +0.000 C 
ATOM     13  C   UNL     1       2.846   3.343  18.283  0.00  0.00    +0.000 C 
ATOM     14  C   UNL     1       2.371   4.769  17.988  0.00  0.00    +0.000 C 
ATOM     15  N   UNL     1       2.854   5.591  19.083  0.00  0.00    +0.000 N 
ATOM     16  C   UNL     1       3.929   4.938  19.816  0.00  0.00    +0.000 C 
BRANCH  10  17
ATOM     17  N   UNL     1       4.917   2.622  19.400  0.00  0.00    +0.000 NA
ATOM     18  H   UNL     1       5.202   2.135  20.249  0.00  0.00    +0.000 HD
ATOM     19  H   UNL     1       5.738   3.142  19.090  0.00  0.00    +0.000 HD
ENDBRANCH  10  17
ENDBRANCH   1  15
BRANCH   9  20
ATOM     20  C   UNL     1       1.025  11.388  18.690  0.00  0.00    +0.000 A 
ATOM     21  C   UNL     1       1.933  12.454  18.793  0.00  0.00    +0.000 A 
ATOM     22  C   UNL     1       1.471  13.765  18.934  0.00  0.00    +0.000 A 
ATOM     23  C   UNL     1       0.104  14.020  18.983  0.00  0.00    +0.000 A 
ATOM     24  C   UNL     1      -0.803  12.968  18.891  0.00  0.00    +0.000 A 
ATOM     25  C   UNL     1      -0.350  11.657  18.744  0.00  0.00    +0.000 A 
ENDBRANCH   9  20
TORSDOF 3
ENDMDL
MODEL 6
REMARK VINA RESULT:      -7.4      2.475      4.093
REMARK  Name = 
REMARK  3 active torsions:
REMARK  status: ('A' for Active; 'I' for Inactive)
REMARK    1  A    between atoms: N_1  and  C_2
REMARK    2  A    between atoms: N_7  and  C_8
REMARK    3  A    between atoms: N_16  and  C_17
REMARK                            x       y       z     vdW  Elec       q    Type
REMARK                         _______ _______ _______ _____ _____    ______ ____
ROOT
ATOM      1  C   UNL     1       2.598   6.588  19.254  0.00  0.00    +0.000 A 
ATOM      2  N   UNL     1       3.072   6.681  17.984  0.00  0.00    +0.000 NA
ATOM      3  C   UNL     1       2.898   7.815  17.290  0.00  0.00    +0.000 A 
ATOM      4  N   UNL     1       2.265   8.925  17.682  0.00  0.00    +0.000 NA
ATOM      5  C   UNL     1       1.770   8.815  18.933  0.00  0.00    +0.000 A 
ATOM      6  C   UNL     1       1.906   7.706  19.756  0.00  0.00    +0.000 A 
ATOM      7  C   UNL     1       1.237   8.070  20.936  0.00  0.00    +0.000 A 
ATOM      8  N   UNL     1       0.740   9.305  20.906  0.00  0.00    +0.000 NA
ATOM      9  N   UNL     1       1.041   9.761  19.653  0.00  0.00    +0.000 N 
ENDROOT
BRANCH   1  15
ATOM     10  C   UNL     1       1.963   3.439  20.851  0.00  0.00    +0.000 C 
ATOM     11  C   UNL     1       1.152   2.750  19.734  0.00  0.00    +0.000 C 
ATOM     12  C   UNL     1       2.461   2.264  19.095  0.00  0.00    +0.000 C 
ATOM     13  C   UNL     1       3.269   3.093  20.118  0.00  0.00    +0.000 C 
ATOM     14  C   UNL     1       3.824   4.430  19.618  0.00  0.00    +0.000 C 
ATOM     15  N   UNL     1       2.827   5.432  19.951  0.00  0.00    +0.000 N 
ATOM     16  C   UNL     1       1.904   4.956  20.971  0.00  0.00    +0.000 C 
BRANCH  10  17
ATOM     17  N   UNL     1       1.862   2.664  22.091  0.00  0.00    +0.000 NA
ATOM     18  H   UNL     1       1.647   3.216  22.921  0.00  0.00    +0.000 HD
ATOM     19  H   UNL     1       2.710   2.144  22.316  0.00  0.00    +0.000 HD
ENDBRANCH  10  17
ENDBRANCH   1  15
BRANCH   9  20
ATOM     20  C   UNL     1       0.600  11.058  19.254  0.00  0.00    +0.000 A 
ATOM     21  C   UNL     1       1.429  12.167  19.494  0.00  0.00    +0.000 A 
ATOM     22  C   UNL     1       1.023  13.448  19.111  0.00  0.00    +0.000 A 
ATOM     23  C   UNL     1      -0.212  13.633  18.496  0.00  0.00    +0.000 A 
ATOM     24  C   UNL     1      -1.042  12.541  18.263  0.00  0.00    +0.000 A 
ATOM     25  C   UNL     1      -0.643  11.257  18.636  0.00  0.00    +0.000 A 
ENDBRANCH   9  20
TORSDOF 3
ENDMDL
MODEL 7
REMARK VINA RESULT:      -7.3      1.042      1.419
REMARK  Name = 
REMARK  3 active torsions:
REMARK  status: ('A' for Active; 'I' for Inactive)
REMARK    1  A    between atoms: N_1  and  C_2
REMARK    2  A    between atoms: N_7  and  C_8
REMARK    3  A    between atoms: N_16  and  C_17
REMARK                            x       y       z     vdW  Elec       q    Type
REMARK                         _______ _______ _______ _____ _____    ______ ____
ROOT
ATOM      1  C   UNL     1       3.390   5.648  18.637  0.00  0.00    +0.000 A 
ATOM      2  N   UNL     1       3.155   4.772  19.649  0.00  0.00    +0.000 NA
ATOM      3  C   UNL     1       2.361   5.130  20.668  0.00  0.00    +0.000 A 
ATOM      4  N   UNL     1       1.750   6.304  20.856  0.00  0.00    +0.000 NA
ATOM      5  C   UNL     1       2.012   7.180  19.863  0.00  0.00    +0.000 A 
ATOM      6  C   UNL     1       2.796   6.919  18.749  0.00  0.00    +0.000 A 
ATOM      7  C   UNL     1       2.763   8.118  18.018  0.00  0.00    +0.000 A 
ATOM      8  N   UNL     1       2.009   9.061  18.577  0.00  0.00    +0.000 NA
ATOM      9  N   UNL     1       1.564   8.494  19.738  0.00  0.00    +0.000 N 
ENDROOT
BRANCH   1  15
ATOM     10  C   UNL     1       6.007   5.666  16.184  0.00  0.00    +0.000 C 
ATOM     11  C   UNL     1       7.199   6.037  17.091  0.00  0.00    +0.000 C 
ATOM     12  C   UNL     1       7.398   4.551  17.422  0.00  0.00    +0.000 C 
ATOM     13  C   UNL     1       6.106   4.204  16.650  0.00  0.00    +0.000 C 
ATOM     14  C   UNL     1       4.855   3.960  17.498  0.00  0.00    +0.000 C 
ATOM     15  N   UNL     1       4.173   5.239  17.591  0.00  0.00    +0.000 N 
ATOM     16  C   UNL     1       4.617   6.164  16.559  0.00  0.00    +0.000 C 
BRANCH  10  17
ATOM     17  N   UNL     1       6.400   5.772  14.775  0.00  0.00    +0.000 NA
ATOM     18  H   UNL     1       7.163   6.423  14.594  0.00  0.00    +0.000 HD
ATOM     19  H   UNL     1       5.638   6.060  14.162  0.00  0.00    +0.000 HD
ENDBRANCH  10  17
ENDBRANCH   1  15
BRANCH   9  20
ATOM     20  C   UNL     1       0.755   9.262  20.629  0.00  0.00    +0.000 A 
ATOM     21  C   UNL     1      -0.007  10.326  20.118  0.00  0.00    +0.000 A 
ATOM     22  C   UNL     1      -0.809  11.092  20.968  0.00  0.00    +0.000 A 
ATOM     23  C   UNL     1      -0.850  10.810  22.330  0.00  0.00    +0.000 A 
ATOM     24  C   UNL     1      -0.091   9.764  22.846  0.00  0.00    +0.000 A 
ATOM     25  C   UNL     1       0.708   8.989  22.004  0.00  0.00    +0.000 A 
ENDBRANCH   9  20
TORSDOF 3
ENDMDL
MODEL 8
REMARK VINA RESULT:      -7.3      1.164      1.394
REMARK  Name = 
REMARK  3 active torsions:
REMARK  status: ('A' for Active; 'I' for Inactive)
REMARK    1  A    between atoms: N_1  and  C_2
REMARK    2  A    between atoms: N_7  and  C_8
REMARK    3  A    between atoms: N_16  and  C_17
REMARK                            x       y       z     vdW  Elec       q    Type
REMARK                         _______ _______ _______ _____ _____    ______ ____
ROOT
ATOM      1  C   UNL     1       3.535   6.149  18.830  0.00  0.00    +0.000 A 
ATOM      2  N   UNL     1       3.050   5.496  19.919  0.00  0.00    +0.000 NA
ATOM      3  C   UNL     1       2.023   6.019  20.605  0.00  0.00    +0.000 A 
ATOM      4  N   UNL     1       1.387   7.171  20.374  0.00  0.00    +0.000 NA
ATOM      5  C   UNL     1       1.892   7.829  19.310  0.00  0.00    +0.000 A 
ATOM      6  C   UNL     1       2.933   7.380  18.509  0.00  0.00    +0.000 A 
ATOM      7  C   UNL     1       3.089   8.393  17.548  0.00  0.00    +0.000 A 
ATOM      8  N   UNL     1       2.218   9.391  17.682  0.00  0.00    +0.000 NA
ATOM      9  N   UNL     1       1.492   9.060  18.793  0.00  0.00    +0.000 N 
ENDROOT
BRANCH   1  15
ATOM     10  C   UNL     1       6.542   5.846  16.897  0.00  0.00    +0.000 C 
ATOM     11  C   UNL     1       7.467   6.759  17.728  0.00  0.00    +0.000 C 
ATOM     12  C   UNL     1       7.820   5.567  18.629  0.00  0.00    +0.000 C 
ATOM     13  C   UNL     1       6.768   4.703  17.899  0.00  0.00    +0.000 C 
ATOM     14  C   UNL     1       5.428   4.517  18.618  0.00  0.00    +0.000 C 
ATOM     15  N   UNL     1       4.557   5.570  18.126  0.00  0.00    +0.000 N 
ATOM     16  C   UNL     1       5.047   6.139  16.879  0.00  0.00    +0.000 C 
BRANCH  10  17
ATOM     17  N   UNL     1       7.177   5.525  15.615  0.00  0.00    +0.000 NA
ATOM     18  H   UNL     1       7.479   6.335  15.075  0.00  0.00    +0.000 HD
ATOM     19  H   UNL     1       6.582   4.981  14.992  0.00  0.00    +0.000 HD
ENDBRANCH  10  17
ENDBRANCH   1  15
BRANCH   9  20
ATOM     20  C   UNL     1       0.485   9.954  19.265  0.00  0.00    +0.000 A 
ATOM     21  C   UNL     1      -0.640  10.204  18.462  0.00  0.00    +0.000 A 
ATOM     22  C   UNL     1      -1.642  11.073  18.901  0.00  0.00    +0.000 A 
ATOM     23  C   UNL     1      -1.525  11.705  20.136  0.00  0.00    +0.000 A 
ATOM     24  C   UNL     1      -0.410  11.470  20.933  0.00  0.00    +0.000 A 
ATOM     25  C   UNL     1       0.593  10.599  20.506  0.00  0.00    +0.000 A 
ENDBRANCH   9  20
TORSDOF 3
ENDMDL
MODEL 9
REMARK VINA RESULT:      -7.3      1.045      1.719
REMARK  Name = 
REMARK  3 active torsions:
REMARK  status: ('A' for Active; 'I' for Inactive)
REMARK    1  A    between atoms: N_1  and  C_2
REMARK    2  A    between atoms: N_7  and  C_8
REMARK    3  A    between atoms: N_16  and  C_17
REMARK                            x       y       z     vdW  Elec       q    Type
REMARK                         _______ _______ _______ _____ _____    ______ ____
ROOT
ATOM      1  C   UNL     1       3.379   5.684  18.622  0.00  0.00    +0.000 A 
ATOM      2  N   UNL     1       3.145   4.817  19.642  0.00  0.00    +0.000 NA
ATOM      3  C   UNL     1       2.349   5.183  20.657  0.00  0.00    +0.000 A 
ATOM      4  N   UNL     1       1.737   6.358  20.833  0.00  0.00    +0.000 NA
ATOM      5  C   UNL     1       1.998   7.225  19.833  0.00  0.00    +0.000 A 
ATOM      6  C   UNL     1       2.783   6.955  18.721  0.00  0.00    +0.000 A 
ATOM      7  C   UNL     1       2.750   8.147  17.979  0.00  0.00    +0.000 A 
ATOM      8  N   UNL     1       1.994   9.095  18.529  0.00  0.00    +0.000 NA
ATOM      9  N   UNL     1       1.549   8.538  19.696  0.00  0.00    +0.000 N 
ENDROOT
BRANCH   1  15
ATOM     10  C   UNL     1       6.004   5.677  16.176  0.00  0.00    +0.000 C 
ATOM     11  C   UNL     1       7.194   6.047  17.086  0.00  0.00    +0.000 C 
ATOM     12  C   UNL     1       7.386   4.562  17.425  0.00  0.00    +0.000 C 
ATOM     13  C   UNL     1       6.094   4.218  16.650  0.00  0.00    +0.000 C 
ATOM     14  C   UNL     1       4.839   3.983  17.496  0.00  0.00    +0.000 C 
ATOM     15  N   UNL     1       4.163   5.266  17.580  0.00  0.00    +0.000 N 
ATOM     16  C   UNL     1       4.615   6.184  16.545  0.00  0.00    +0.000 C 
BRANCH  10  17
ATOM     17  N   UNL     1       6.401   5.775  14.769  0.00  0.00    +0.000 NA
ATOM     18  H   UNL     1       7.391   5.611  14.594  0.00  0.00    +0.000 HD
ATOM     19  H   UNL     1       6.191   6.680  14.349  0.00  0.00    +0.000 HD
ENDBRANCH  10  17
ENDBRANCH   1  15
BRANCH   9  20
ATOM     20  C   UNL     1       0.739   9.313  20.579  0.00  0.00    +0.000 A 
ATOM     21  C   UNL     1       0.735   9.007  21.951  0.00  0.00    +0.000 A 
ATOM     22  C   UNL     1      -0.047   9.751  22.838  0.00  0.00    +0.000 A 
ATOM     23  C   UNL     1      -0.835  10.795  22.365  0.00  0.00    +0.000 A 
ATOM     24  C   UNL     1      -0.845  11.098  21.007  0.00  0.00    +0.000 A 
ATOM     25  C   UNL     1      -0.062  10.365  20.114  0.00  0.00    +0.000 A 
ENDBRANCH   9  20
TORSDOF 3
ENDMDL
