MODEL 1
REMARK VINA RESULT:      -9.2      0.000      0.000
REMARK  Name = 
REMARK  5 active torsions:
REMARK  status: ('A' for Active; 'I' for Inactive)
REMARK    1  A    between atoms: C_1  and  C_2
REMARK    2  A    between atoms: C_2  and  C_3
REMARK    3  A    between atoms: C_10  and  C_11
REMARK    4  A    between atoms: N_13  and  C_14
REMARK    5  A    between atoms: C_18  and  C_19
REMARK                            x       y       z     vdW  Elec       q    Type
REMARK                         _______ _______ _______ _____ _____    ______ ____
ROOT
ATOM      1  C   UNL     1       3.155   5.299  19.201  0.00  0.00    +0.000 A 
ATOM      2  C   UNL     1       2.461   4.216  19.738  0.00  0.00    +0.000 A 
ATOM      3  C   UNL     1       1.341   4.425  20.536  0.00  0.00    +0.000 A 
ATOM      4  C   UNL     1       0.908   5.721  20.800  0.00  0.00    +0.000 A 
ATOM      5  C   UNL     1       1.601   6.845  20.316  0.00  0.00    +0.000 A 
ATOM      6  C   UNL     1       2.744   6.603  19.525  0.00  0.00    +0.000 A 
ENDROOT
BRANCH   5   7
ATOM      7  C   UNL     1       1.116   8.219  20.623  0.00  0.00    +0.000 A 
ATOM      8  C   UNL     1       1.259   9.286  19.701  0.00  0.00    +0.000 A 
ATOM      9  C   UNL     1       0.760  10.569  19.968  0.00  0.00    +0.000 A 
ATOM     10  C   UNL     1       0.087  10.772  21.152  0.00  0.00    +0.000 A 
ATOM     11  C   UNL     1      -0.076   9.757  22.070  0.00  0.00    +0.000 A 
ATOM     12  C   UNL     1       0.450   8.496  21.838  0.00  0.00    +0.000 A 
ATOM     13  C   UNL     1      -0.845  10.247  23.232  0.00  0.00    +0.000 C 
ATOM     14  C   UNL     1      -1.191  11.657  22.747  0.00  0.00    +0.000 C 
ATOM     15  O   UNL     1      -0.471  11.961  21.528  0.00  0.00    +0.000 OA
ENDBRANCH   5   7
BRANCH   1  18
ATOM     16  C   UNL     1       5.437   4.441  18.662  0.00  0.00    +0.000 C 
ATOM     17  O   UNL     1       5.577   3.682  19.619  0.00  0.00    +0.000 OA
ATOM     18  N   UNL     1       4.276   5.139  18.360  0.00  0.00    +0.000 N 
ATOM     19  H   UNL     1       4.231   5.566  17.442  0.00  0.00    +0.000 HD
BRANCH  16  27
ATOM     20  C   UNL     1       5.971   5.300  15.203  0.00  0.00    +0.000 C 
ATOM     21  O   UNL     1       5.766   6.205  14.394  0.00  0.00    +0.000 OA
ATOM     22  N   UNL     1       6.225   5.564  16.544  0.00  0.00    +0.000 N 
ATOM     23  C   UNL     1       6.273   6.957  17.003  0.00  0.00    +0.000 C 
ATOM     24  C   UNL     1       7.617   7.286  17.646  0.00  0.00    +0.000 C 
ATOM     25  C   UNL     1       7.990   6.277  18.729  0.00  0.00    +0.000 C 
ATOM     26  C   UNL     1       7.907   4.844  18.198  0.00  0.00    +0.000 C 
ATOM     27  C   UNL     1       6.534   4.550  17.575  0.00  0.00    +0.000 C 
BRANCH  20  29
ATOM     28  C   UNL     1       6.089   3.678  13.273  0.00  0.00    +0.000 C 
ATOM     29  C   UNL     1       5.920   3.842  14.775  0.00  0.00    +0.000 C 
ENDBRANCH  20  29
ENDBRANCH  16  27
ENDBRANCH   1  18
TORSDOF 4
ENDMDL
MODEL 2
REMARK VINA RESULT:      -8.9      0.558      1.372
REMARK  Name = 
REMARK  5 active torsions:
REMARK  status: ('A' for Active; 'I' for Inactive)
REMARK    1  A    between atoms: C_1  and  C_2
REMARK    2  A    between atoms: C_2  and  C_3
REMARK    3  A    between atoms: C_10  and  C_11
REMARK    4  A    between atoms: N_13  and  C_14
REMARK    5  A    between atoms: C_18  and  C_19
REMARK                            x       y       z     vdW  Elec       q    Type
REMARK                         _______ _______ _______ _____ _____    ______ ____
ROOT
ATOM      1  C   UNL     1       3.079   5.248  19.178  0.00  0.00    +0.000 A 
ATOM      2  C   UNL     1       2.332   4.160  19.626  0.00  0.00    +0.000 A 
ATOM      3  C   UNL     1       1.209   4.358  20.422  0.00  0.00    +0.000 A 
ATOM      4  C   UNL     1       0.825   5.649  20.773  0.00  0.00    +0.000 A 
ATOM      5  C   UNL     1       1.571   6.775  20.380  0.00  0.00    +0.000 A 
ATOM      6  C   UNL     1       2.717   6.541  19.588  0.00  0.00    +0.000 A 
ENDROOT
BRANCH   5   7
ATOM      7  C   UNL     1       1.138   8.142  20.778  0.00  0.00    +0.000 A 
ATOM      8  C   UNL     1       0.697   8.434  22.093  0.00  0.00    +0.000 A 
ATOM      9  C   UNL     1       0.333   9.731  22.483  0.00  0.00    +0.000 A 
ATOM     10  C   UNL     1       0.444  10.744  21.557  0.00  0.00    +0.000 A 
ATOM     11  C   UNL     1       0.874  10.499  20.271  0.00  0.00    +0.000 A 
ATOM     12  C   UNL     1       1.194   9.215  19.860  0.00  0.00    +0.000 A 
ATOM     13  C   UNL     1       0.914  11.760  19.503  0.00  0.00    +0.000 C 
ATOM     14  C   UNL     1       0.561  12.757  20.610  0.00  0.00    +0.000 C 
ATOM     15  O   UNL     1       0.150  12.054  21.808  0.00  0.00    +0.000 OA
ENDBRANCH   5   7
BRANCH   1  18
ATOM     16  C   UNL     1       5.397   4.472  18.673  0.00  0.00    +0.000 C 
ATOM     17  O   UNL     1       5.573   3.764  19.663  0.00  0.00    +0.000 OA
ATOM     18  N   UNL     1       4.206   5.101  18.342  0.00  0.00    +0.000 N 
ATOM     19  H   UNL     1       4.141   5.484  17.406  0.00  0.00    +0.000 HD
BRANCH  16  27
ATOM     20  C   UNL     1       5.914   5.347  15.215  0.00  0.00    +0.000 C 
ATOM     21  O   UNL     1       5.708   6.256  14.412  0.00  0.00    +0.000 OA
ATOM     22  N   UNL     1       6.177   5.602  16.556  0.00  0.00    +0.000 N 
ATOM     23  C   UNL     1       6.234   6.992  17.021  0.00  0.00    +0.000 C 
ATOM     24  C   UNL     1       7.584   7.312  17.658  0.00  0.00    +0.000 C 
ATOM     25  C   UNL     1       7.959   6.296  18.733  0.00  0.00    +0.000 C 
ATOM     26  C   UNL     1       7.866   4.866  18.195  0.00  0.00    +0.000 C 
ATOM     27  C   UNL     1       6.489   4.581  17.579  0.00  0.00    +0.000 C 
BRANCH  20  29
ATOM     28  C   UNL     1       6.130   3.723  13.294  0.00  0.00    +0.000 C 
ATOM     29  C   UNL     1       5.853   3.890  14.780  0.00  0.00    +0.000 C 
ENDBRANCH  20  29
ENDBRANCH  16  27
ENDBRANCH   1  18
TORSDOF 4
ENDMDL
MODEL 3
REMARK VINA RESULT:      -8.7      2.273      9.005
REMARK  Name = 
REMARK  5 active torsions:
REMARK  status: ('A' for Active; 'I' for Inactive)
REMARK    1  A    between atoms: C_1  and  C_2
REMARK    2  A    between atoms: C_2  and  C_3
REMARK    3  A    between atoms: C_10  and  C_11
REMARK    4  A    between atoms: N_13  and  C_14
REMARK    5  A    between atoms: C_18  and  C_19
REMARK                            x       y       z     vdW  Elec       q    Type
REMARK                         _______ _______ _______ _____ _____    ______ ____
ROOT
ATOM      1  C   UNL     1       1.847   7.045  19.899  0.00  0.00    +0.000 A 
ATOM      2  C   UNL     1       1.720   5.991  20.803  0.00  0.00    +0.000 A 
ATOM      3  C   UNL     1       2.578   4.899  20.736  0.00  0.00    +0.000 A 
ATOM      4  C   UNL     1       3.571   4.856  19.762  0.00  0.00    +0.000 A 
ATOM      5  C   UNL     1       3.711   5.874  18.802  0.00  0.00    +0.000 A 
ATOM      6  C   UNL     1       2.814   6.961  18.884  0.00  0.00    +0.000 A 
ENDROOT
BRANCH   5   7
ATOM      7  C   UNL     1       4.780   5.794  17.769  0.00  0.00    +0.000 A 
ATOM      8  C   UNL     1       6.081   6.304  17.999  0.00  0.00    +0.000 A 
ATOM      9  C   UNL     1       7.104   6.187  17.045  0.00  0.00    +0.000 A 
ATOM     10  C   UNL     1       6.824   5.527  15.870  0.00  0.00    +0.000 A 
ATOM     11  C   UNL     1       5.571   5.014  15.614  0.00  0.00    +0.000 A 
ATOM     12  C   UNL     1       4.540   5.161  16.528  0.00  0.00    +0.000 A 
ATOM     13  C   UNL     1       5.558   4.347  14.295  0.00  0.00    +0.000 C 
ATOM     14  C   UNL     1       7.039   4.463  13.924  0.00  0.00    +0.000 C 
ATOM     15  O   UNL     1       7.729   5.318  14.868  0.00  0.00    +0.000 OA
ENDBRANCH   5   7
BRANCH   1  18
ATOM     16  C   UNL     1       0.820   9.008  21.049  0.00  0.00    +0.000 C 
ATOM     17  O   UNL     1       1.489   8.988  22.080  0.00  0.00    +0.000 OA
ATOM     18  N   UNL     1       1.023   8.189  19.948  0.00  0.00    +0.000 N 
ATOM     19  H   UNL     1       0.536   8.445  19.096  0.00  0.00    +0.000 HD
BRANCH  16  27
ATOM     20  C   UNL     1      -0.505  12.047  22.463  0.00  0.00    +0.000 C 
ATOM     21  O   UNL     1      -0.150  13.151  22.876  0.00  0.00    +0.000 OA
ATOM     22  N   UNL     1       0.150  11.414  21.413  0.00  0.00    +0.000 N 
ATOM     23  C   UNL     1       1.279  12.089  20.764  0.00  0.00    +0.000 C 
ATOM     24  C   UNL     1       1.033  12.274  19.270  0.00  0.00    +0.000 C 
ATOM     25  C   UNL     1       0.638  10.964  18.593  0.00  0.00    +0.000 C 
ATOM     26  C   UNL     1      -0.533  10.300  19.321  0.00  0.00    +0.000 C 
ATOM     27  C   UNL     1      -0.237  10.117  20.818  0.00  0.00    +0.000 C 
BRANCH  20  29
ATOM     28  C   UNL     1      -2.885  12.192  23.292  0.00  0.00    +0.000 C 
ATOM     29  C   UNL     1      -1.663  11.305  23.113  0.00  0.00    +0.000 C 
ENDBRANCH  20  29
ENDBRANCH  16  27
ENDBRANCH   1  18
TORSDOF 4
ENDMDL
MODEL 4
REMARK VINA RESULT:      -8.6      3.381      5.622
REMARK  Name = 
REMARK  5 active torsions:
REMARK  status: ('A' for Active; 'I' for Inactive)
REMARK    1  A    between atoms: C_1  and  C_2
REMARK    2  A    between atoms: C_2  and  C_3
REMARK    3  A    between atoms: C_10  and  C_11
REMARK    4  A    between atoms: N_13  and  C_14
REMARK    5  A    between atoms: C_18  and  C_19
REMARK                            x       y       z     vdW  Elec       q    Type
REMARK                         _______ _______ _______ _____ _____    ______ ____
ROOT
ATOM      1  C   UNL     1       1.143   8.445  20.914  0.00  0.00    +0.000 A 
ATOM      2  C   UNL     1       1.402   9.324  21.964  0.00  0.00    +0.000 A 
ATOM      3  C   UNL     1       0.718  10.531  22.056  0.00  0.00    +0.000 A 
ATOM      4  C   UNL     1      -0.232  10.866  21.094  0.00  0.00    +0.000 A 
ATOM      5  C   UNL     1      -0.496  10.031  19.994  0.00  0.00    +0.000 A 
ATOM      6  C   UNL     1       0.227   8.821  19.919  0.00  0.00    +0.000 A 
ENDROOT
BRANCH   5   7
ATOM      7  C   UNL     1      -1.514  10.421  18.980  0.00  0.00    +0.000 A 
ATOM      8  C   UNL     1      -2.424  11.484  19.205  0.00  0.00    +0.000 A 
ATOM      9  C   UNL     1      -3.352  11.884  18.232  0.00  0.00    +0.000 A 
ATOM     10  C   UNL     1      -3.342  11.235  17.017  0.00  0.00    +0.000 A 
ATOM     11  C   UNL     1      -2.468  10.202  16.762  0.00  0.00    +0.000 A 
ATOM     12  C   UNL     1      -1.576   9.767  17.729  0.00  0.00    +0.000 A 
ATOM     13  C   UNL     1      -2.663   9.704  15.384  0.00  0.00    +0.000 C 
ATOM     14  C   UNL     1      -3.696  10.716  14.880  0.00  0.00    +0.000 C 
ATOM     15  O   UNL     1      -4.170  11.538  15.974  0.00  0.00    +0.000 OA
ENDBRANCH   5   7
BRANCH   1  18
ATOM     16  C   UNL     1       2.473   6.726  19.685  0.00  0.00    +0.000 C 
ATOM     17  O   UNL     1       2.807   7.410  18.719  0.00  0.00    +0.000 OA
ATOM     18  N   UNL     1       1.786   7.195  20.796  0.00  0.00    +0.000 N 
ATOM     19  H   UNL     1       1.753   6.579  21.601  0.00  0.00    +0.000 HD
BRANCH  16  27
ATOM     20  C   UNL     1       1.353   3.302  19.587  0.00  0.00    +0.000 C 
ATOM     21  O   UNL     1       0.737   2.511  18.873  0.00  0.00    +0.000 OA
ATOM     22  N   UNL     1       2.149   4.306  19.048  0.00  0.00    +0.000 N 
ATOM     23  C   UNL     1       2.276   4.412  17.591  0.00  0.00    +0.000 C 
ATOM     24  C   UNL     1       3.733   4.307  17.149  0.00  0.00    +0.000 C 
ATOM     25  C   UNL     1       4.629   5.281  17.909  0.00  0.00    +0.000 C 
ATOM     26  C   UNL     1       4.442   5.135  19.421  0.00  0.00    +0.000 C 
ATOM     27  C   UNL     1       2.965   5.264  19.824  0.00  0.00    +0.000 C 
BRANCH  20  29
ATOM     28  C   UNL     1       2.402   2.480  21.732  0.00  0.00    +0.000 C 
ATOM     29  C   UNL     1       1.242   3.237  21.103  0.00  0.00    +0.000 C 
ENDBRANCH  20  29
ENDBRANCH  16  27
ENDBRANCH   1  18
TORSDOF 4
ENDMDL
MODEL 5
REMARK VINA RESULT:      -8.4      3.402      5.464
REMARK  Name = 
REMARK  5 active torsions:
REMARK  status: ('A' for Active; 'I' for Inactive)
REMARK    1  A    between atoms: C_1  and  C_2
REMARK    2  A    between atoms: C_2  and  C_3
REMARK    3  A    between atoms: C_10  and  C_11
REMARK    4  A    between atoms: N_13  and  C_14
REMARK    5  A    between atoms: C_18  and  C_19
REMARK                            x       y       z     vdW  Elec       q    Type
REMARK                         _______ _______ _______ _____ _____    ______ ____
ROOT
ATOM      1  C   UNL     1       1.160   8.505  20.855  0.00  0.00    +0.000 A 
ATOM      2  C   UNL     1       1.404   9.387  21.907  0.00  0.00    +0.000 A 
ATOM      3  C   UNL     1       0.716  10.593  21.988  0.00  0.00    +0.000 A 
ATOM      4  C   UNL     1      -0.224  10.923  21.015  0.00  0.00    +0.000 A 
ATOM      5  C   UNL     1      -0.472  10.085  19.914  0.00  0.00    +0.000 A 
ATOM      6  C   UNL     1       0.254   8.877  19.849  0.00  0.00    +0.000 A 
ENDROOT
BRANCH   5   7
ATOM      7  C   UNL     1      -1.479  10.471  18.887  0.00  0.00    +0.000 A 
ATOM      8  C   UNL     1      -1.381  10.034  17.542  0.00  0.00    +0.000 A 
ATOM      9  C   UNL     1      -2.354  10.356  16.585  0.00  0.00    +0.000 A 
ATOM     10  C   UNL     1      -3.444  11.094  16.987  0.00  0.00    +0.000 A 
ATOM     11  C   UNL     1      -3.576  11.531  18.287  0.00  0.00    +0.000 A 
ATOM     12  C   UNL     1      -2.601  11.258  19.233  0.00  0.00    +0.000 A 
ATOM     13  C   UNL     1      -4.841  12.280  18.442  0.00  0.00    +0.000 C 
ATOM     14  C   UNL     1      -5.445  12.071  17.051  0.00  0.00    +0.000 C 
ATOM     15  O   UNL     1      -4.476  11.456  16.169  0.00  0.00    +0.000 OA
ENDBRANCH   5   7
BRANCH   1  18
ATOM     16  C   UNL     1       2.469   6.769  19.630  0.00  0.00    +0.000 C 
ATOM     17  O   UNL     1       2.775   7.433  18.641  0.00  0.00    +0.000 OA
ATOM     18  N   UNL     1       1.808   7.257  20.747  0.00  0.00    +0.000 N 
ATOM     19  H   UNL     1       1.798   6.658  21.565  0.00  0.00    +0.000 HD
BRANCH  16  27
ATOM     20  C   UNL     1       1.377   3.335  19.582  0.00  0.00    +0.000 C 
ATOM     21  O   UNL     1       0.765   2.529  18.881  0.00  0.00    +0.000 OA
ATOM     22  N   UNL     1       2.163   4.338  19.027  0.00  0.00    +0.000 N 
ATOM     23  C   UNL     1       2.283   4.425  17.567  0.00  0.00    +0.000 C 
ATOM     24  C   UNL     1       3.739   4.325  17.122  0.00  0.00    +0.000 C 
ATOM     25  C   UNL     1       4.630   5.317  17.865  0.00  0.00    +0.000 C 
ATOM     26  C   UNL     1       4.450   5.190  19.380  0.00  0.00    +0.000 C 
ATOM     27  C   UNL     1       2.974   5.313  19.786  0.00  0.00    +0.000 C 
BRANCH  20  29
ATOM     28  C   UNL     1       2.416   2.511  21.731  0.00  0.00    +0.000 C 
ATOM     29  C   UNL     1       1.272   3.289  21.099  0.00  0.00    +0.000 C 
ENDBRANCH  20  29
ENDBRANCH  16  27
ENDBRANCH   1  18
TORSDOF 4
ENDMDL
MODEL 6
REMARK VINA RESULT:      -8.3      2.505      8.947
REMARK  Name = 
REMARK  5 active torsions:
REMARK  status: ('A' for Active; 'I' for Inactive)
REMARK    1  A    between atoms: C_1  and  C_2
REMARK    2  A    between atoms: C_2  and  C_3
REMARK    3  A    between atoms: C_10  and  C_11
REMARK    4  A    between atoms: N_13  and  C_14
REMARK    5  A    between atoms: C_18  and  C_19
REMARK                            x       y       z     vdW  Elec       q    Type
REMARK                         _______ _______ _______ _____ _____    ______ ____
ROOT
ATOM      1  C   UNL     1       1.707   7.782  19.835  0.00  0.00    +0.000 A 
ATOM      2  C   UNL     1       1.204   6.846  20.737  0.00  0.00    +0.000 A 
ATOM      3  C   UNL     1       1.800   5.595  20.858  0.00  0.00    +0.000 A 
ATOM      4  C   UNL     1       2.906   5.274  20.076  0.00  0.00    +0.000 A 
ATOM      5  C   UNL     1       3.422   6.169  19.122  0.00  0.00    +0.000 A 
ATOM      6  C   UNL     1       2.785   7.424  19.009  0.00  0.00    +0.000 A 
ENDROOT
BRANCH   5   7
ATOM      7  C   UNL     1       4.602   5.793  18.296  0.00  0.00    +0.000 A 
ATOM      8  C   UNL     1       5.826   5.387  18.883  0.00  0.00    +0.000 A 
ATOM      9  C   UNL     1       6.924   4.986  18.107  0.00  0.00    +0.000 A 
ATOM     10  C   UNL     1       6.779   4.962  16.738  0.00  0.00    +0.000 A 
ATOM     11  C   UNL     1       5.602   5.345  16.133  0.00  0.00    +0.000 A 
ATOM     12  C   UNL     1       4.525   5.786  16.885  0.00  0.00    +0.000 A 
ATOM     13  C   UNL     1       5.720   5.206  14.667  0.00  0.00    +0.000 C 
ATOM     14  C   UNL     1       7.105   4.562  14.571  0.00  0.00    +0.000 C 
ATOM     15  O   UNL     1       7.754   4.570  15.866  0.00  0.00    +0.000 OA
ENDBRANCH   5   7
BRANCH   1  18
ATOM     16  C   UNL     1       0.947   9.988  20.722  0.00  0.00    +0.000 C 
ATOM     17  O   UNL     1       1.400   9.893  21.861  0.00  0.00    +0.000 OA
ATOM     18  N   UNL     1       1.158   9.074  19.700  0.00  0.00    +0.000 N 
ATOM     19  H   UNL     1       0.899   9.372  18.766  0.00  0.00    +0.000 HD
BRANCH  16  27
ATOM     20  C   UNL     1      -0.276  13.160  21.917  0.00  0.00    +0.000 C 
ATOM     21  O   UNL     1       0.091  14.166  22.524  0.00  0.00    +0.000 OA
ATOM     22  N   UNL     1       0.582  12.459  21.078  0.00  0.00    +0.000 N 
ATOM     23  C   UNL     1       1.955  12.943  20.895  0.00  0.00    +0.000 C 
ATOM     24  C   UNL     1       2.254  13.225  19.425  0.00  0.00    +0.000 C 
ATOM     25  C   UNL     1       1.906  12.035  18.536  0.00  0.00    +0.000 C 
ATOM     26  C   UNL     1       0.470  11.566  18.783  0.00  0.00    +0.000 C 
ATOM     27  C   UNL     1       0.217  11.277  20.270  0.00  0.00    +0.000 C 
BRANCH  20  29
ATOM     28  C   UNL     1      -1.773  11.580  23.196  0.00  0.00    +0.000 C 
ATOM     29  C   UNL     1      -1.686  12.616  22.086  0.00  0.00    +0.000 C 
ENDBRANCH  20  29
ENDBRANCH  16  27
ENDBRANCH   1  18
TORSDOF 4
ENDMDL
MODEL 7
REMARK VINA RESULT:      -8.3      2.500      4.792
REMARK  Name = 
REMARK  5 active torsions:
REMARK  status: ('A' for Active; 'I' for Inactive)
REMARK    1  A    between atoms: C_1  and  C_2
REMARK    2  A    between atoms: C_2  and  C_3
REMARK    3  A    between atoms: C_10  and  C_11
REMARK    4  A    between atoms: N_13  and  C_14
REMARK    5  A    between atoms: C_18  and  C_19
REMARK                            x       y       z     vdW  Elec       q    Type
REMARK                         _______ _______ _______ _____ _____    ______ ____
ROOT
ATOM      1  C   UNL     1       1.815   8.277  19.278  0.00  0.00    +0.000 A 
ATOM      2  C   UNL     1       2.239   8.972  18.146  0.00  0.00    +0.000 A 
ATOM      3  C   UNL     1       1.810  10.275  17.919  0.00  0.00    +0.000 A 
ATOM      4  C   UNL     1       0.952  10.892  18.826  0.00  0.00    +0.000 A 
ATOM      5  C   UNL     1       0.464  10.217  19.958  0.00  0.00    +0.000 A 
ATOM      6  C   UNL     1       0.903   8.889  20.153  0.00  0.00    +0.000 A 
ENDROOT
BRANCH   5   7
ATOM      7  C   UNL     1      -0.457  10.903  20.905  0.00  0.00    +0.000 A 
ATOM      8  C   UNL     1      -0.543  10.528  22.269  0.00  0.00    +0.000 A 
ATOM      9  C   UNL     1      -1.375  11.204  23.174  0.00  0.00    +0.000 A 
ATOM     10  C   UNL     1      -2.098  12.281  22.713  0.00  0.00    +0.000 A 
ATOM     11  C   UNL     1      -2.036  12.678  21.395  0.00  0.00    +0.000 A 
ATOM     12  C   UNL     1      -1.252  11.991  20.480  0.00  0.00    +0.000 A 
ATOM     13  C   UNL     1      -2.893  13.862  21.183  0.00  0.00    +0.000 C 
ATOM     14  C   UNL     1      -3.336  14.131  22.623  0.00  0.00    +0.000 C 
ATOM     15  O   UNL     1      -2.926  13.044  23.487  0.00  0.00    +0.000 OA
ENDBRANCH   5   7
BRANCH   1  18
ATOM     16  C   UNL     1       3.242   6.264  18.904  0.00  0.00    +0.000 C 
ATOM     17  O   UNL     1       4.039   6.750  18.104  0.00  0.00    +0.000 OA
ATOM     18  N   UNL     1       2.248   6.967  19.569  0.00  0.00    +0.000 N 
ATOM     19  H   UNL     1       1.798   6.492  20.344  0.00  0.00    +0.000 HD
BRANCH  16  27
ATOM     20  C   UNL     1       1.435   3.179  19.358  0.00  0.00    +0.000 C 
ATOM     21  O   UNL     1       0.720   2.384  18.749  0.00  0.00    +0.000 OA
ATOM     22  N   UNL     1       2.462   3.871  18.727  0.00  0.00    +0.000 N 
ATOM     23  C   UNL     1       2.714   3.631  17.301  0.00  0.00    +0.000 C 
ATOM     24  C   UNL     1       4.144   3.156  17.060  0.00  0.00    +0.000 C 
ATOM     25  C   UNL     1       5.168   4.083  17.711  0.00  0.00    +0.000 C 
ATOM     26  C   UNL     1       4.845   4.307  19.190  0.00  0.00    +0.000 C 
ATOM     27  C   UNL     1       3.404   4.801  19.386  0.00  0.00    +0.000 C 
BRANCH  20  29
ATOM     28  C   UNL     1       1.943   2.489  21.733  0.00  0.00    +0.000 C 
ATOM     29  C   UNL     1       1.203   3.467  20.834  0.00  0.00    +0.000 C 
ENDBRANCH  20  29
ENDBRANCH  16  27
ENDBRANCH   1  18
TORSDOF 4
ENDMDL
MODEL 8
REMARK VINA RESULT:      -8.3      2.466      4.229
REMARK  Name = 
REMARK  5 active torsions:
REMARK  status: ('A' for Active; 'I' for Inactive)
REMARK    1  A    between atoms: C_1  and  C_2
REMARK    2  A    between atoms: C_2  and  C_3
REMARK    3  A    between atoms: C_10  and  C_11
REMARK    4  A    between atoms: N_13  and  C_14
REMARK    5  A    between atoms: C_18  and  C_19
REMARK                            x       y       z     vdW  Elec       q    Type
REMARK                         _______ _______ _______ _____ _____    ______ ____
ROOT
ATOM      1  C   UNL     1       2.053   7.561  19.660  0.00  0.00    +0.000 A 
ATOM      2  C   UNL     1       1.426   7.100  20.817  0.00  0.00    +0.000 A 
ATOM      3  C   UNL     1       0.518   7.908  21.493  0.00  0.00    +0.000 A 
ATOM      4  C   UNL     1       0.233   9.184  21.015  0.00  0.00    +0.000 A 
ATOM      5  C   UNL     1       0.872   9.708  19.878  0.00  0.00    +0.000 A 
ATOM      6  C   UNL     1       1.802   8.871  19.222  0.00  0.00    +0.000 A 
ENDROOT
BRANCH   5   7
ATOM      7  C   UNL     1       0.549  11.079  19.396  0.00  0.00    +0.000 A 
ATOM      8  C   UNL     1      -0.704  11.390  18.811  0.00  0.00    +0.000 A 
ATOM      9  C   UNL     1      -1.028  12.691  18.401  0.00  0.00    +0.000 A 
ATOM     10  C   UNL     1      -0.102  13.689  18.607  0.00  0.00    +0.000 A 
ATOM     11  C   UNL     1       1.124  13.424  19.178  0.00  0.00    +0.000 A 
ATOM     12  C   UNL     1       1.475  12.136  19.548  0.00  0.00    +0.000 A 
ATOM     13  C   UNL     1       1.906  14.673  19.295  0.00  0.00    +0.000 C 
ATOM     14  C   UNL     1       0.862  15.686  18.818  0.00  0.00    +0.000 C 
ATOM     15  O   UNL     1      -0.295  15.001  18.281  0.00  0.00    +0.000 OA
ENDBRANCH   5   7
BRANCH   1  18
ATOM     16  C   UNL     1       2.632   5.663  18.145  0.00  0.00    +0.000 C 
ATOM     17  O   UNL     1       1.493   5.339  17.815  0.00  0.00    +0.000 OA
ATOM     18  N   UNL     1       2.955   6.768  18.920  0.00  0.00    +0.000 N 
ATOM     19  H   UNL     1       3.934   7.031  18.948  0.00  0.00    +0.000 HD
BRANCH  16  27
ATOM     20  C   UNL     1       6.196   5.284  18.518  0.00  0.00    +0.000 C 
ATOM     21  O   UNL     1       7.052   5.010  19.360  0.00  0.00    +0.000 OA
ATOM     22  N   UNL     1       4.932   4.707  18.547  0.00  0.00    +0.000 N 
ATOM     23  C   UNL     1       4.617   3.729  19.595  0.00  0.00    +0.000 C 
ATOM     24  C   UNL     1       4.193   2.390  18.997  0.00  0.00    +0.000 C 
ATOM     25  C   UNL     1       3.080   2.556  17.965  0.00  0.00    +0.000 C 
ATOM     26  C   UNL     1       3.459   3.597  16.910  0.00  0.00    +0.000 C 
ATOM     27  C   UNL     1       3.863   4.933  17.552  0.00  0.00    +0.000 C 
BRANCH  20  29
ATOM     28  C   UNL     1       7.638   7.217  17.770  0.00  0.00    +0.000 C 
ATOM     29  C   UNL     1       6.476   6.300  17.422  0.00  0.00    +0.000 C 
ENDBRANCH  20  29
ENDBRANCH  16  27
ENDBRANCH   1  18
TORSDOF 4
ENDMDL
MODEL 9
REMARK VINA RESULT:      -8.2      2.306      4.435
REMARK  Name = 
REMARK  5 active torsions:
REMARK  status: ('A' for Active; 'I' for Inactive)
REMARK    1  A    between atoms: C_1  and  C_2
REMARK    2  A    between atoms: C_2  and  C_3
REMARK    3  A    between atoms: C_10  and  C_11
REMARK    4  A    between atoms: N_13  and  C_14
REMARK    5  A    between atoms: C_18  and  C_19
REMARK                            x       y       z     vdW  Elec       q    Type
REMARK                         _______ _______ _______ _____ _____    ______ ____
ROOT
ATOM      1  C   UNL     1       2.104   8.313  19.032  0.00  0.00    +0.000 A 
ATOM      2  C   UNL     1       2.098   8.950  17.792  0.00  0.00    +0.000 A 
ATOM      3  C   UNL     1       1.308  10.075  17.583  0.00  0.00    +0.000 A 
ATOM      4  C   UNL     1       0.518  10.571  18.617  0.00  0.00    +0.000 A 
ATOM      5  C   UNL     1       0.458   9.938  19.871  0.00  0.00    +0.000 A 
ATOM      6  C   UNL     1       1.257   8.787  20.048  0.00  0.00    +0.000 A 
ENDROOT
BRANCH   5   7
ATOM      7  C   UNL     1      -0.402  10.490  20.953  0.00  0.00    +0.000 A 
ATOM      8  C   UNL     1      -0.358   9.983  22.275  0.00  0.00    +0.000 A 
ATOM      9  C   UNL     1      -1.132  10.533  23.308  0.00  0.00    +0.000 A 
ATOM     10  C   UNL     1      -1.930  11.617  23.016  0.00  0.00    +0.000 A 
ATOM     11  C   UNL     1      -1.994  12.139  21.743  0.00  0.00    +0.000 A 
ATOM     12  C   UNL     1      -1.268  11.578  20.704  0.00  0.00    +0.000 A 
ATOM     13  C   UNL     1      -2.908  13.301  21.720  0.00  0.00    +0.000 C 
ATOM     14  C   UNL     1      -3.234  13.411  23.211  0.00  0.00    +0.000 C 
ATOM     15  O   UNL     1      -2.714  12.265  23.927  0.00  0.00    +0.000 OA
ENDBRANCH   5   7
BRANCH   1  18
ATOM     16  C   UNL     1       2.696   5.895  18.855  0.00  0.00    +0.000 C 
ATOM     17  O   UNL     1       1.893   5.573  17.981  0.00  0.00    +0.000 OA
ATOM     18  N   UNL     1       2.912   7.190  19.304  0.00  0.00    +0.000 N 
ATOM     19  H   UNL     1       3.736   7.339  19.876  0.00  0.00    +0.000 HD
BRANCH  16  27
ATOM     20  C   UNL     1       3.175   2.364  19.392  0.00  0.00    +0.000 C 
ATOM     21  O   UNL     1       3.155   1.288  18.793  0.00  0.00    +0.000 OA
ATOM     22  N   UNL     1       3.590   3.537  18.773  0.00  0.00    +0.000 N 
ATOM     23  C   UNL     1       4.038   3.488  17.376  0.00  0.00    +0.000 C 
ATOM     24  C   UNL     1       5.466   4.006  17.231  0.00  0.00    +0.000 C 
ATOM     25  C   UNL     1       5.641   5.378  17.878  0.00  0.00    +0.000 C 
ATOM     26  C   UNL     1       5.143   5.372  19.325  0.00  0.00    +0.000 C 
ATOM     27  C   UNL     1       3.698   4.859  19.424  0.00  0.00    +0.000 C 
BRANCH  20  29
ATOM     28  C   UNL     1       1.243   2.857  20.940  0.00  0.00    +0.000 C 
ATOM     29  C   UNL     1       2.708   2.463  20.836  0.00  0.00    +0.000 C 
ENDBRANCH  20  29
ENDBRANCH  16  27
ENDBRANCH   1  18
TORSDOF 4
ENDMDL
