MODEL 1
REMARK VINA RESULT:      -8.7      0.000      0.000
REMARK  Name = 
REMARK  7 active torsions:
REMARK  status: ('A' for Active; 'I' for Inactive)
REMARK    1  A    between atoms: C_2  and  C_3
REMARK    2  A    between atoms: C_3  and  N_4
REMARK    3  A    between atoms: C_5  and  C_7
REMARK    4  A    between atoms: N_17  and  C_18
REMARK    5  A    between atoms: C_23  and  N_24
REMARK    6  A    between atoms: N_24  and  C_25
REMARK    7  A    between atoms: C_25  and  C_26
REMARK                            x       y       z     vdW  Elec       q    Type
REMARK                         _______ _______ _______ _____ _____    ______ ____
ROOT
ATOM      1  O   UNL     1       2.239  10.772  17.584  0.00  0.00    +0.000 OA
ATOM      2  C   UNL     1       1.896   9.627  17.822  0.00  0.00    +0.000 C 
ATOM      3  N   UNL     1       0.622   9.248  18.276  0.00  0.00    +0.000 N 
ATOM      4  H   UNL     1       0.564   8.364  18.773  0.00  0.00    +0.000 HD
ENDROOT
BRANCH   3   5
ATOM      5  C   UNL     1      -0.460  10.143  18.406  0.00  0.00    +0.000 A 
ATOM      6  C   UNL     1      -1.492  10.080  17.442  0.00  0.00    +0.000 A 
ATOM      7  C   UNL     1      -2.632  10.876  17.556  0.00  0.00    +0.000 A 
ATOM      8  C   UNL     1      -2.774  11.725  18.650  0.00  0.00    +0.000 A 
ATOM      9  C   UNL     1      -1.765  11.788  19.613  0.00  0.00    +0.000 A 
ATOM     10  C   UNL     1      -0.586  11.039  19.506  0.00  0.00    +0.000 A 
BRANCH  10  11
ATOM     11  N   UNL     1       0.442  11.167  20.476  0.00  0.00    +0.000 N 
ATOM     12  H   UNL     1       1.280  10.674  20.174  0.00  0.00    +0.000 HD
BRANCH  11  13
ATOM     13  C   UNL     1       0.103  10.876  21.907  0.00  0.00    +0.000 C 
BRANCH  13  14
ATOM     14  C   UNL     1       0.388   9.427  22.351  0.00  0.00    +0.000 C 
ATOM     15  F   UNL     1      -0.059   8.511  21.464  0.00  0.00    +0.000 F 
ATOM     16  F   UNL     1       1.714   9.220  22.518  0.00  0.00    +0.000 F 
ATOM     17  F   UNL     1      -0.208   9.159  23.537  0.00  0.00    +0.000 F 
ENDBRANCH  13  14
ENDBRANCH  11  13
ENDBRANCH  10  11
ENDBRANCH   3   5
BRANCH   2  18
ATOM     18  C   UNL     1       2.907   8.466  17.708  0.00  0.00    +0.000 C 
BRANCH  18  19
ATOM     19  N   UNL     1       2.441   7.209  18.258  0.00  0.00    +0.000 N 
ATOM     20  C   UNL     1       3.217   6.087  18.147  0.00  0.00    +0.000 C 
ATOM     21  O   UNL     1       4.285   6.114  17.527  0.00  0.00    +0.000 OA
ATOM     22  H   UNL     1       1.478   7.150  18.584  0.00  0.00    +0.000 HD
BRANCH  20  23
ATOM     23  C   UNL     1       2.723   4.823  18.841  0.00  0.00    +0.000 C 
ATOM     24  C   UNL     1       3.909   3.901  19.199  0.00  0.00    +0.000 C 
ATOM     25  C   UNL     1       3.405   2.614  19.871  0.00  0.00    +0.000 C 
ATOM     26  C   UNL     1       2.653   2.975  21.163  0.00  0.00    +0.000 C 
ATOM     27  C   UNL     1       1.457   3.886  20.841  0.00  0.00    +0.000 C 
ATOM     28  C   UNL     1       0.503   3.149  19.887  0.00  0.00    +0.000 C 
ATOM     29  C   UNL     1       1.239   2.780  18.589  0.00  0.00    +0.000 C 
ATOM     30  C   UNL     1       2.444   1.883  18.918  0.00  0.00    +0.000 C 
ATOM     31  C   UNL     1       1.745   4.064  17.915  0.00  0.00    +0.000 C 
ATOM     32  C   UNL     1       1.968   5.168  20.159  0.00  0.00    +0.000 C 
ENDBRANCH  20  23
ENDBRANCH  18  19
ENDBRANCH   2  18
TORSDOF 7
ENDMDL
MODEL 2
REMARK VINA RESULT:      -8.6      2.786      3.841
REMARK  Name = 
REMARK  7 active torsions:
REMARK  status: ('A' for Active; 'I' for Inactive)
REMARK    1  A    between atoms: C_2  and  C_3
REMARK    2  A    between atoms: C_3  and  N_4
REMARK    3  A    between atoms: C_5  and  C_7
REMARK    4  A    between atoms: N_17  and  C_18
REMARK    5  A    between atoms: C_23  and  N_24
REMARK    6  A    between atoms: N_24  and  C_25
REMARK    7  A    between atoms: C_25  and  C_26
REMARK                            x       y       z     vdW  Elec       q    Type
REMARK                         _______ _______ _______ _____ _____    ______ ____
ROOT
ATOM      1  O   UNL     1       2.162  10.670  17.626  0.00  0.00    +0.000 OA
ATOM      2  C   UNL     1       1.969   9.564  18.102  0.00  0.00    +0.000 C 
ATOM      3  N   UNL     1       0.970   9.257  19.041  0.00  0.00    +0.000 N 
ATOM      4  H   UNL     1       1.130   8.437  19.618  0.00  0.00    +0.000 HD
ENDROOT
BRANCH   3   5
ATOM      5  C   UNL     1      -0.011  10.176  19.468  0.00  0.00    +0.000 A 
ATOM      6  C   UNL     1       0.087  10.686  20.782  0.00  0.00    +0.000 A 
ATOM      7  C   UNL     1      -0.799  11.662  21.242  0.00  0.00    +0.000 A 
ATOM      8  C   UNL     1      -1.776  12.164  20.387  0.00  0.00    +0.000 A 
ATOM      9  C   UNL     1      -1.874  11.674  19.084  0.00  0.00    +0.000 A 
ATOM     10  C   UNL     1      -1.034  10.661  18.604  0.00  0.00    +0.000 A 
BRANCH  10  11
ATOM     11  N   UNL     1      -1.197  10.149  17.291  0.00  0.00    +0.000 N 
ATOM     12  H   UNL     1      -0.750  10.761  16.611  0.00  0.00    +0.000 HD
BRANCH  11  13
ATOM     13  C   UNL     1      -2.572   9.738  16.858  0.00  0.00    +0.000 C 
BRANCH  13  14
ATOM     14  C   UNL     1      -3.066  10.417  15.565  0.00  0.00    +0.000 C 
ATOM     15  F   UNL     1      -2.562  11.659  15.402  0.00  0.00    +0.000 F 
ATOM     16  F   UNL     1      -2.729   9.692  14.474  0.00  0.00    +0.000 F 
ATOM     17  F   UNL     1      -4.416  10.529  15.564  0.00  0.00    +0.000 F 
ENDBRANCH  13  14
ENDBRANCH  11  13
ENDBRANCH  10  11
ENDBRANCH   3   5
BRANCH   2  18
ATOM     18  C   UNL     1       2.898   8.384  17.745  0.00  0.00    +0.000 C 
BRANCH  18  19
ATOM     19  N   UNL     1       2.442   7.096  18.225  0.00  0.00    +0.000 N 
ATOM     20  C   UNL     1       3.304   6.032  18.245  0.00  0.00    +0.000 C 
ATOM     21  O   UNL     1       4.450   6.137  17.799  0.00  0.00    +0.000 OA
ATOM     22  H   UNL     1       1.447   6.968  18.399  0.00  0.00    +0.000 HD
BRANCH  20  23
ATOM     23  C   UNL     1       2.798   4.733  18.864  0.00  0.00    +0.000 C 
ATOM     24  C   UNL     1       1.885   5.029  20.074  0.00  0.00    +0.000 C 
ATOM     25  C   UNL     1       1.401   3.718  20.714  0.00  0.00    +0.000 C 
ATOM     26  C   UNL     1       0.601   2.911  19.677  0.00  0.00    +0.000 C 
ATOM     27  C   UNL     1       1.484   2.590  18.460  0.00  0.00    +0.000 C 
ATOM     28  C   UNL     1       2.696   1.765  18.921  0.00  0.00    +0.000 C 
ATOM     29  C   UNL     1       3.509   2.557  19.957  0.00  0.00    +0.000 C 
ATOM     30  C   UNL     1       2.617   2.891  21.165  0.00  0.00    +0.000 C 
ATOM     31  C   UNL     1       3.994   3.869  19.322  0.00  0.00    +0.000 C 
ATOM     32  C   UNL     1       1.974   3.907  17.831  0.00  0.00    +0.000 C 
ENDBRANCH  20  23
ENDBRANCH  18  19
ENDBRANCH   2  18
TORSDOF 7
ENDMDL
MODEL 3
REMARK VINA RESULT:      -8.6      2.703      3.727
REMARK  Name = 
REMARK  7 active torsions:
REMARK  status: ('A' for Active; 'I' for Inactive)
REMARK    1  A    between atoms: C_2  and  C_3
REMARK    2  A    between atoms: C_3  and  N_4
REMARK    3  A    between atoms: C_5  and  C_7
REMARK    4  A    between atoms: N_17  and  C_18
REMARK    5  A    between atoms: C_23  and  N_24
REMARK    6  A    between atoms: N_24  and  C_25
REMARK    7  A    between atoms: C_25  and  C_26
REMARK                            x       y       z     vdW  Elec       q    Type
REMARK                         _______ _______ _______ _____ _____    ______ ____
ROOT
ATOM      1  O   UNL     1       2.087  10.878  17.987  0.00  0.00    +0.000 OA
ATOM      2  C   UNL     1       1.832   9.729  18.305  0.00  0.00    +0.000 C 
ATOM      3  N   UNL     1       0.846   9.350  19.230  0.00  0.00    +0.000 N 
ATOM      4  H   UNL     1       0.967   8.445  19.674  0.00  0.00    +0.000 HD
ENDROOT
BRANCH   3   5
ATOM      5  C   UNL     1      -0.055  10.256  19.828  0.00  0.00    +0.000 A 
ATOM      6  C   UNL     1       0.082  10.510  21.211  0.00  0.00    +0.000 A 
ATOM      7  C   UNL     1      -0.719  11.458  21.850  0.00  0.00    +0.000 A 
ATOM      8  C   UNL     1      -1.646  12.188  21.113  0.00  0.00    +0.000 A 
ATOM      9  C   UNL     1      -1.781  11.953  19.743  0.00  0.00    +0.000 A 
ATOM     10  C   UNL     1      -1.028  10.975  19.078  0.00  0.00    +0.000 A 
BRANCH  10  11
ATOM     11  N   UNL     1      -1.230  10.726  17.696  0.00  0.00    +0.000 N 
ATOM     12  H   UNL     1      -1.198  11.596  17.168  0.00  0.00    +0.000 HD
BRANCH  11  13
ATOM     13  C   UNL     1      -2.391   9.867  17.295  0.00  0.00    +0.000 C 
BRANCH  13  14
ATOM     14  C   UNL     1      -3.085  10.298  15.986  0.00  0.00    +0.000 C 
ATOM     15  F   UNL     1      -3.088   9.323  15.051  0.00  0.00    +0.000 F 
ATOM     16  F   UNL     1      -4.369  10.655  16.211  0.00  0.00    +0.000 F 
ATOM     17  F   UNL     1      -2.464  11.372  15.442  0.00  0.00    +0.000 F 
ENDBRANCH  13  14
ENDBRANCH  11  13
ENDBRANCH  10  11
ENDBRANCH   3   5
BRANCH   2  18
ATOM     18  C   UNL     1       2.666   8.558  17.741  0.00  0.00    +0.000 C 
BRANCH  18  19
ATOM     19  N   UNL     1       2.276   7.253  18.235  0.00  0.00    +0.000 N 
ATOM     20  C   UNL     1       3.156   6.206  18.162  0.00  0.00    +0.000 C 
ATOM     21  O   UNL     1       4.257   6.341  17.621  0.00  0.00    +0.000 OA
ATOM     22  H   UNL     1       1.302   7.102  18.491  0.00  0.00    +0.000 HD
BRANCH  20  23
ATOM     23  C   UNL     1       2.728   4.888  18.798  0.00  0.00    +0.000 C 
ATOM     24  C   UNL     1       1.910   4.043  17.797  0.00  0.00    +0.000 C 
ATOM     25  C   UNL     1       1.455   2.728  18.451  0.00  0.00    +0.000 C 
ATOM     26  C   UNL     1       2.690   1.921  18.884  0.00  0.00    +0.000 C 
ATOM     27  C   UNL     1       3.524   2.731  19.891  0.00  0.00    +0.000 C 
ATOM     28  C   UNL     1       2.663   3.042  21.125  0.00  0.00    +0.000 C 
ATOM     29  C   UNL     1       1.423   3.850  20.711  0.00  0.00    +0.000 C 
ATOM     30  C   UNL     1       0.601   3.044  19.691  0.00  0.00    +0.000 C 
ATOM     31  C   UNL     1       1.874   5.164  20.056  0.00  0.00    +0.000 C 
ATOM     32  C   UNL     1       3.968   4.050  19.233  0.00  0.00    +0.000 C 
ENDBRANCH  20  23
ENDBRANCH  18  19
ENDBRANCH   2  18
TORSDOF 7
ENDMDL
MODEL 4
REMARK VINA RESULT:      -8.6      0.326      1.437
REMARK  Name = 
REMARK  7 active torsions:
REMARK  status: ('A' for Active; 'I' for Inactive)
REMARK    1  A    between atoms: C_2  and  C_3
REMARK    2  A    between atoms: C_3  and  N_4
REMARK    3  A    between atoms: C_5  and  C_7
REMARK    4  A    between atoms: N_17  and  C_18
REMARK    5  A    between atoms: C_23  and  N_24
REMARK    6  A    between atoms: N_24  and  C_25
REMARK    7  A    between atoms: C_25  and  C_26
REMARK                            x       y       z     vdW  Elec       q    Type
REMARK                         _______ _______ _______ _____ _____    ______ ____
ROOT
ATOM      1  O   UNL     1       2.214  10.802  17.656  0.00  0.00    +0.000 OA
ATOM      2  C   UNL     1       1.864   9.649  17.847  0.00  0.00    +0.000 C 
ATOM      3  N   UNL     1       0.571   9.254  18.227  0.00  0.00    +0.000 N 
ATOM      4  H   UNL     1       0.493   8.357  18.696  0.00  0.00    +0.000 HD
ENDROOT
BRANCH   3   5
ATOM      5  C   UNL     1      -0.520  10.142  18.326  0.00  0.00    +0.000 A 
ATOM      6  C   UNL     1      -1.529  10.064  17.340  0.00  0.00    +0.000 A 
ATOM      7  C   UNL     1      -2.678  10.852  17.423  0.00  0.00    +0.000 A 
ATOM      8  C   UNL     1      -2.851  11.707  18.508  0.00  0.00    +0.000 A 
ATOM      9  C   UNL     1      -1.865  11.784  19.493  0.00  0.00    +0.000 A 
ATOM     10  C   UNL     1      -0.677  11.043  19.417  0.00  0.00    +0.000 A 
BRANCH  10  11
ATOM     11  N   UNL     1       0.327  11.186  20.409  0.00  0.00    +0.000 N 
ATOM     12  H   UNL     1       1.098  10.544  20.231  0.00  0.00    +0.000 HD
BRANCH  11  13
ATOM     13  C   UNL     1      -0.094  11.172  21.848  0.00  0.00    +0.000 C 
BRANCH  13  14
ATOM     14  C   UNL     1      -0.190   9.766  22.474  0.00  0.00    +0.000 C 
ATOM     15  F   UNL     1      -0.550   8.820  21.580  0.00  0.00    +0.000 F 
ATOM     16  F   UNL     1       0.991   9.391  23.014  0.00  0.00    +0.000 F 
ATOM     17  F   UNL     1      -1.108   9.744  23.470  0.00  0.00    +0.000 F 
ENDBRANCH  13  14
ENDBRANCH  11  13
ENDBRANCH  10  11
ENDBRANCH   3   5
BRANCH   2  18
ATOM     18  C   UNL     1       2.886   8.495  17.752  0.00  0.00    +0.000 C 
BRANCH  18  19
ATOM     19  N   UNL     1       2.418   7.236  18.295  0.00  0.00    +0.000 N 
ATOM     20  C   UNL     1       3.161   6.100  18.118  0.00  0.00    +0.000 C 
ATOM     21  O   UNL     1       4.197   6.118  17.445  0.00  0.00    +0.000 OA
ATOM     22  H   UNL     1       1.472   7.191  18.669  0.00  0.00    +0.000 HD
BRANCH  20  23
ATOM     23  C   UNL     1       2.673   4.830  18.806  0.00  0.00    +0.000 C 
ATOM     24  C   UNL     1       1.925   5.175  20.112  0.00  0.00    +0.000 C 
ATOM     25  C   UNL     1       1.460   3.891  20.819  0.00  0.00    +0.000 C 
ATOM     26  C   UNL     1       0.506   3.117  19.893  0.00  0.00    +0.000 C 
ATOM     27  C   UNL     1       1.223   2.749  18.584  0.00  0.00    +0.000 C 
ATOM     28  C   UNL     1       2.442   1.870  18.907  0.00  0.00    +0.000 C 
ATOM     29  C   UNL     1       3.408   2.628  19.831  0.00  0.00    +0.000 C 
ATOM     30  C   UNL     1       2.681   3.010  21.132  0.00  0.00    +0.000 C 
ATOM     31  C   UNL     1       3.874   3.912  19.129  0.00  0.00    +0.000 C 
ATOM     32  C   UNL     1       1.695   4.038  17.887  0.00  0.00    +0.000 C 
ENDBRANCH  20  23
ENDBRANCH  18  19
ENDBRANCH   2  18
TORSDOF 7
ENDMDL
MODEL 5
REMARK VINA RESULT:      -8.6      2.474      3.686
REMARK  Name = 
REMARK  7 active torsions:
REMARK  status: ('A' for Active; 'I' for Inactive)
REMARK    1  A    between atoms: C_2  and  C_3
REMARK    2  A    between atoms: C_3  and  N_4
REMARK    3  A    between atoms: C_5  and  C_7
REMARK    4  A    between atoms: N_17  and  C_18
REMARK    5  A    between atoms: C_23  and  N_24
REMARK    6  A    between atoms: N_24  and  C_25
REMARK    7  A    between atoms: C_25  and  C_26
REMARK                            x       y       z     vdW  Elec       q    Type
REMARK                         _______ _______ _______ _____ _____    ______ ____
ROOT
ATOM      1  O   UNL     1       0.916   9.433  19.783  0.00  0.00    +0.000 OA
ATOM      2  C   UNL     1       1.406   9.811  18.733  0.00  0.00    +0.000 C 
ATOM      3  N   UNL     1       1.363  11.131  18.254  0.00  0.00    +0.000 N 
ATOM      4  H   UNL     1       1.469  11.251  17.251  0.00  0.00    +0.000 HD
ENDROOT
BRANCH   3   5
ATOM      5  C   UNL     1       0.839  12.213  18.991  0.00  0.00    +0.000 A 
ATOM      6  C   UNL     1       1.558  12.653  20.124  0.00  0.00    +0.000 A 
ATOM      7  C   UNL     1       1.143  13.771  20.850  0.00  0.00    +0.000 A 
ATOM      8  C   UNL     1       0.022  14.484  20.437  0.00  0.00    +0.000 A 
ATOM      9  C   UNL     1      -0.690  14.064  19.311  0.00  0.00    +0.000 A 
ATOM     10  C   UNL     1      -0.331  12.919  18.588  0.00  0.00    +0.000 A 
BRANCH  10  11
ATOM     11  N   UNL     1      -1.108  12.490  17.481  0.00  0.00    +0.000 N 
ATOM     12  H   UNL     1      -1.372  13.285  16.902  0.00  0.00    +0.000 HD
BRANCH  11  13
ATOM     13  C   UNL     1      -2.268  11.577  17.744  0.00  0.00    +0.000 C 
BRANCH  13  14
ATOM     14  C   UNL     1      -2.323  10.334  16.832  0.00  0.00    +0.000 C 
ATOM     15  F   UNL     1      -3.401   9.557  17.073  0.00  0.00    +0.000 F 
ATOM     16  F   UNL     1      -2.357  10.688  15.527  0.00  0.00    +0.000 F 
ATOM     17  F   UNL     1      -1.225   9.560  17.004  0.00  0.00    +0.000 F 
ENDBRANCH  13  14
ENDBRANCH  11  13
ENDBRANCH  10  11
ENDBRANCH   3   5
BRANCH   2  18
ATOM     18  C   UNL     1       2.077   8.803  17.774  0.00  0.00    +0.000 C 
BRANCH  18  19
ATOM     19  N   UNL     1       1.880   7.413  18.133  0.00  0.00    +0.000 N 
ATOM     20  C   UNL     1       2.939   6.545  18.101  0.00  0.00    +0.000 C 
ATOM     21  O   UNL     1       4.050   6.915  17.707  0.00  0.00    +0.000 OA
ATOM     22  H   UNL     1       0.928   7.075  18.258  0.00  0.00    +0.000 HD
BRANCH  20  23
ATOM     23  C   UNL     1       2.693   5.124  18.594  0.00  0.00    +0.000 C 
ATOM     24  C   UNL     1       1.543   4.465  17.800  0.00  0.00    +0.000 C 
ATOM     25  C   UNL     1       1.278   3.043  18.321  0.00  0.00    +0.000 C 
ATOM     26  C   UNL     1       2.547   2.193  18.148  0.00  0.00    +0.000 C 
ATOM     27  C   UNL     1       3.712   2.816  18.936  0.00  0.00    +0.000 C 
ATOM     28  C   UNL     1       3.339   2.876  20.425  0.00  0.00    +0.000 C 
ATOM     29  C   UNL     1       2.071   3.724  20.617  0.00  0.00    +0.000 C 
ATOM     30  C   UNL     1       0.913   3.106  19.814  0.00  0.00    +0.000 C 
ATOM     31  C   UNL     1       2.333   5.145  20.097  0.00  0.00    +0.000 C 
ATOM     32  C   UNL     1       3.966   4.243  18.417  0.00  0.00    +0.000 C 
ENDBRANCH  20  23
ENDBRANCH  18  19
ENDBRANCH   2  18
TORSDOF 7
ENDMDL
MODEL 6
REMARK VINA RESULT:      -8.5      2.049      3.362
REMARK  Name = 
REMARK  7 active torsions:
REMARK  status: ('A' for Active; 'I' for Inactive)
REMARK    1  A    between atoms: C_2  and  C_3
REMARK    2  A    between atoms: C_3  and  N_4
REMARK    3  A    between atoms: C_5  and  C_7
REMARK    4  A    between atoms: N_17  and  C_18
REMARK    5  A    between atoms: C_23  and  N_24
REMARK    6  A    between atoms: N_24  and  C_25
REMARK    7  A    between atoms: C_25  and  C_26
REMARK                            x       y       z     vdW  Elec       q    Type
REMARK                         _______ _______ _______ _____ _____    ______ ____
ROOT
ATOM      1  O   UNL     1       2.144  11.046  18.372  0.00  0.00    +0.000 OA
ATOM      2  C   UNL     1       1.694   9.914  18.417  0.00  0.00    +0.000 C 
ATOM      3  N   UNL     1       0.619   9.508  19.226  0.00  0.00    +0.000 N 
ATOM      4  H   UNL     1       0.573   8.520  19.453  0.00  0.00    +0.000 HD
ENDROOT
BRANCH   3   5
ATOM      5  C   UNL     1      -0.150  10.395  20.008  0.00  0.00    +0.000 A 
ATOM      6  C   UNL     1      -0.140  10.221  21.410  0.00  0.00    +0.000 A 
ATOM      7  C   UNL     1      -0.809  11.113  22.249  0.00  0.00    +0.000 A 
ATOM      8  C   UNL     1      -1.471  12.209  21.704  0.00  0.00    +0.000 A 
ATOM      9  C   UNL     1      -1.477  12.397  20.321  0.00  0.00    +0.000 A 
ATOM     10  C   UNL     1      -0.858  11.495  19.444  0.00  0.00    +0.000 A 
BRANCH  10  11
ATOM     11  N   UNL     1      -0.929  11.688  18.041  0.00  0.00    +0.000 N 
ATOM     12  H   UNL     1      -0.539  12.593  17.785  0.00  0.00    +0.000 HD
BRANCH  11  13
ATOM     13  C   UNL     1      -2.238  11.427  17.357  0.00  0.00    +0.000 C 
BRANCH  13  14
ATOM     14  C   UNL     1      -2.506   9.944  17.032  0.00  0.00    +0.000 C 
ATOM     15  F   UNL     1      -3.104   9.286  18.049  0.00  0.00    +0.000 F 
ATOM     16  F   UNL     1      -3.297   9.818  15.943  0.00  0.00    +0.000 F 
ATOM     17  F   UNL     1      -1.350   9.293  16.760  0.00  0.00    +0.000 F 
ENDBRANCH  13  14
ENDBRANCH  11  13
ENDBRANCH  10  11
ENDBRANCH   3   5
BRANCH   2  18
ATOM     18  C   UNL     1       2.353   8.776  17.608  0.00  0.00    +0.000 C 
BRANCH  18  19
ATOM     19  N   UNL     1       2.026   7.444  18.073  0.00  0.00    +0.000 N 
ATOM     20  C   UNL     1       3.008   6.493  18.161  0.00  0.00    +0.000 C 
ATOM     21  O   UNL     1       4.160   6.735  17.787  0.00  0.00    +0.000 OA
ATOM     22  H   UNL     1       1.045   7.196  18.185  0.00  0.00    +0.000 HD
BRANCH  20  23
ATOM     23  C   UNL     1       2.624   5.144  18.761  0.00  0.00    +0.000 C 
ATOM     24  C   UNL     1       1.899   5.339  20.110  0.00  0.00    +0.000 C 
ATOM     25  C   UNL     1       1.541   3.977  20.727  0.00  0.00    +0.000 C 
ATOM     26  C   UNL     1       0.608   3.214  19.771  0.00  0.00    +0.000 C 
ATOM     27  C   UNL     1       1.305   2.995  18.417  0.00  0.00    +0.000 C 
ATOM     28  C   UNL     1       2.587   2.177  18.637  0.00  0.00    +0.000 C 
ATOM     29  C   UNL     1       3.532   2.925  19.590  0.00  0.00    +0.000 C 
ATOM     30  C   UNL     1       2.825   3.158  20.937  0.00  0.00    +0.000 C 
ATOM     31  C   UNL     1       3.892   4.287  18.978  0.00  0.00    +0.000 C 
ATOM     32  C   UNL     1       1.670   4.362  17.810  0.00  0.00    +0.000 C 
ENDBRANCH  20  23
ENDBRANCH  18  19
ENDBRANCH   2  18
TORSDOF 7
ENDMDL
MODEL 7
REMARK VINA RESULT:      -8.5      2.402      3.820
REMARK  Name = 
REMARK  7 active torsions:
REMARK  status: ('A' for Active; 'I' for Inactive)
REMARK    1  A    between atoms: C_2  and  C_3
REMARK    2  A    between atoms: C_3  and  N_4
REMARK    3  A    between atoms: C_5  and  C_7
REMARK    4  A    between atoms: N_17  and  C_18
REMARK    5  A    between atoms: C_23  and  N_24
REMARK    6  A    between atoms: N_24  and  C_25
REMARK    7  A    between atoms: C_25  and  C_26
REMARK                            x       y       z     vdW  Elec       q    Type
REMARK                         _______ _______ _______ _____ _____    ______ ____
ROOT
ATOM      1  O   UNL     1      -0.727   8.470  21.620  0.00  0.00    +0.000 OA
ATOM      2  C   UNL     1       0.219   9.216  21.434  0.00  0.00    +0.000 C 
ATOM      3  N   UNL     1       0.136  10.617  21.369  0.00  0.00    +0.000 N 
ATOM      4  H   UNL     1       0.880  11.091  20.865  0.00  0.00    +0.000 HD
ENDROOT
BRANCH   3   5
ATOM      5  C   UNL     1      -1.045  11.344  21.626  0.00  0.00    +0.000 A 
ATOM      6  C   UNL     1      -1.525  11.379  22.954  0.00  0.00    +0.000 A 
ATOM      7  C   UNL     1      -2.639  12.148  23.296  0.00  0.00    +0.000 A 
ATOM      8  C   UNL     1      -3.272  12.916  22.323  0.00  0.00    +0.000 A 
ATOM      9  C   UNL     1      -2.799  12.896  21.009  0.00  0.00    +0.000 A 
ATOM     10  C   UNL     1      -1.713  12.100  20.620  0.00  0.00    +0.000 A 
BRANCH  10  11
ATOM     11  N   UNL     1      -1.293  12.063  19.266  0.00  0.00    +0.000 N 
ATOM     12  H   UNL     1      -0.858  12.946  19.004  0.00  0.00    +0.000 HD
BRANCH  11  13
ATOM     13  C   UNL     1      -2.273  11.591  18.234  0.00  0.00    +0.000 C 
BRANCH  13  14
ATOM     14  C   UNL     1      -1.983  10.185  17.672  0.00  0.00    +0.000 C 
ATOM     15  F   UNL     1      -0.816   9.673  18.119  0.00  0.00    +0.000 F 
ATOM     16  F   UNL     1      -2.965   9.316  18.004  0.00  0.00    +0.000 F 
ATOM     17  F   UNL     1      -1.916  10.210  16.320  0.00  0.00    +0.000 F 
ENDBRANCH  13  14
ENDBRANCH  11  13
ENDBRANCH  10  11
ENDBRANCH   3   5
BRANCH   2  18
ATOM     18  C   UNL     1       1.628   8.644  21.169  0.00  0.00    +0.000 C 
BRANCH  18  19
ATOM     19  N   UNL     1       1.654   7.225  20.881  0.00  0.00    +0.000 N 
ATOM     20  C   UNL     1       2.160   6.780  19.689  0.00  0.00    +0.000 C 
ATOM     21  O   UNL     1       2.538   7.576  18.825  0.00  0.00    +0.000 OA
ATOM     22  H   UNL     1       1.158   6.594  21.508  0.00  0.00    +0.000 HD
BRANCH  20  23
ATOM     23  C   UNL     1       2.262   5.271  19.492  0.00  0.00    +0.000 C 
ATOM     24  C   UNL     1       1.317   4.533  20.465  0.00  0.00    +0.000 C 
ATOM     25  C   UNL     1       1.444   3.011  20.284  0.00  0.00    +0.000 C 
ATOM     26  C   UNL     1       1.060   2.636  18.843  0.00  0.00    +0.000 C 
ATOM     27  C   UNL     1       1.990   3.348  17.846  0.00  0.00    +0.000 C 
ATOM     28  C   UNL     1       3.441   2.918  18.114  0.00  0.00    +0.000 C 
ATOM     29  C   UNL     1       3.842   3.287  19.552  0.00  0.00    +0.000 C 
ATOM     30  C   UNL     1       2.899   2.586  20.545  0.00  0.00    +0.000 C 
ATOM     31  C   UNL     1       3.715   4.806  19.736  0.00  0.00    +0.000 C 
ATOM     32  C   UNL     1       1.866   4.870  18.040  0.00  0.00    +0.000 C 
ENDBRANCH  20  23
ENDBRANCH  18  19
ENDBRANCH   2  18
TORSDOF 7
ENDMDL
MODEL 8
REMARK VINA RESULT:      -8.5      2.503      3.458
REMARK  Name = 
REMARK  7 active torsions:
REMARK  status: ('A' for Active; 'I' for Inactive)
REMARK    1  A    between atoms: C_2  and  C_3
REMARK    2  A    between atoms: C_3  and  N_4
REMARK    3  A    between atoms: C_5  and  C_7
REMARK    4  A    between atoms: N_17  and  C_18
REMARK    5  A    between atoms: C_23  and  N_24
REMARK    6  A    between atoms: N_24  and  C_25
REMARK    7  A    between atoms: C_25  and  C_26
REMARK                            x       y       z     vdW  Elec       q    Type
REMARK                         _______ _______ _______ _____ _____    ______ ____
ROOT
ATOM      1  O   UNL     1       2.263  10.790  17.977  0.00  0.00    +0.000 OA
ATOM      2  C   UNL     1       1.961   9.641  18.250  0.00  0.00    +0.000 C 
ATOM      3  N   UNL     1       0.975   9.268  19.179  0.00  0.00    +0.000 N 
ATOM      4  H   UNL     1       1.062   8.340  19.582  0.00  0.00    +0.000 HD
ENDROOT
BRANCH   3   5
ATOM      5  C   UNL     1       0.129  10.188  19.833  0.00  0.00    +0.000 A 
ATOM      6  C   UNL     1       0.473  10.587  21.144  0.00  0.00    +0.000 A 
ATOM      7  C   UNL     1      -0.271  11.557  21.819  0.00  0.00    +0.000 A 
ATOM      8  C   UNL     1      -1.348  12.166  21.183  0.00  0.00    +0.000 A 
ATOM      9  C   UNL     1      -1.689  11.787  19.883  0.00  0.00    +0.000 A 
ATOM     10  C   UNL     1      -0.996  10.783  19.194  0.00  0.00    +0.000 A 
BRANCH  10  11
ATOM     11  N   UNL     1      -1.403  10.385  17.894  0.00  0.00    +0.000 N 
ATOM     12  H   UNL     1      -0.602  10.069  17.351  0.00  0.00    +0.000 HD
BRANCH  11  13
ATOM     13  C   UNL     1      -2.281  11.317  17.113  0.00  0.00    +0.000 C 
BRANCH  13  14
ATOM     14  C   UNL     1      -3.146  10.630  16.037  0.00  0.00    +0.000 C 
ATOM     15  F   UNL     1      -2.648  10.782  14.790  0.00  0.00    +0.000 F 
ATOM     16  F   UNL     1      -3.255   9.303  16.273  0.00  0.00    +0.000 F 
ATOM     17  F   UNL     1      -4.401  11.137  16.031  0.00  0.00    +0.000 F 
ENDBRANCH  13  14
ENDBRANCH  11  13
ENDBRANCH  10  11
ENDBRANCH   3   5
BRANCH   2  18
ATOM     18  C   UNL     1       2.727   8.458  17.620  0.00  0.00    +0.000 C 
BRANCH  18  19
ATOM     19  N   UNL     1       2.310   7.154  18.093  0.00  0.00    +0.000 N 
ATOM     20  C   UNL     1       3.247   6.187  18.342  0.00  0.00    +0.000 C 
ATOM     21  O   UNL     1       4.443   6.389  18.109  0.00  0.00    +0.000 OA
ATOM     22  H   UNL     1       1.316   6.932  18.088  0.00  0.00    +0.000 HD
BRANCH  20  23
ATOM     23  C   UNL     1       2.755   4.874  18.941  0.00  0.00    +0.000 C 
ATOM     24  C   UNL     1       3.948   3.959  19.294  0.00  0.00    +0.000 C 
ATOM     25  C   UNL     1       3.448   2.624  19.869  0.00  0.00    +0.000 C 
ATOM     26  C   UNL     1       2.638   2.893  21.149  0.00  0.00    +0.000 C 
ATOM     27  C   UNL     1       1.434   3.796  20.831  0.00  0.00    +0.000 C 
ATOM     28  C   UNL     1       0.536   3.095  19.799  0.00  0.00    +0.000 C 
ATOM     29  C   UNL     1       1.331   2.819  18.512  0.00  0.00    +0.000 C 
ATOM     30  C   UNL     1       2.543   1.930  18.837  0.00  0.00    +0.000 C 
ATOM     31  C   UNL     1       1.833   4.150  17.935  0.00  0.00    +0.000 C 
ATOM     32  C   UNL     1       1.941   5.126  20.245  0.00  0.00    +0.000 C 
ENDBRANCH  20  23
ENDBRANCH  18  19
ENDBRANCH   2  18
TORSDOF 7
ENDMDL
MODEL 9
REMARK VINA RESULT:      -8.5      2.375      3.509
REMARK  Name = 
REMARK  7 active torsions:
REMARK  status: ('A' for Active; 'I' for Inactive)
REMARK    1  A    between atoms: C_2  and  C_3
REMARK    2  A    between atoms: C_3  and  N_4
REMARK    3  A    between atoms: C_5  and  C_7
REMARK    4  A    between atoms: N_17  and  C_18
REMARK    5  A    between atoms: C_23  and  N_24
REMARK    6  A    between atoms: N_24  and  C_25
REMARK    7  A    between atoms: C_25  and  C_26
REMARK                            x       y       z     vdW  Elec       q    Type
REMARK                         _______ _______ _______ _____ _____    ______ ____
ROOT
ATOM      1  O   UNL     1       0.882   9.507  19.797  0.00  0.00    +0.000 OA
ATOM      2  C   UNL     1       1.479   9.809  18.778  0.00  0.00    +0.000 C 
ATOM      3  N   UNL     1       1.530  11.102  18.230  0.00  0.00    +0.000 N 
ATOM      4  H   UNL     1       1.730  11.164  17.237  0.00  0.00    +0.000 HD
ENDROOT
BRANCH   3   5
ATOM      5  C   UNL     1       0.984  12.240  18.860  0.00  0.00    +0.000 A 
ATOM      6  C   UNL     1       1.734  12.850  19.891  0.00  0.00    +0.000 A 
ATOM      7  C   UNL     1       1.295  14.027  20.498  0.00  0.00    +0.000 A 
ATOM      8  C   UNL     1       0.117  14.630  20.065  0.00  0.00    +0.000 A 
ATOM      9  C   UNL     1      -0.625  14.041  19.039  0.00  0.00    +0.000 A 
ATOM     10  C   UNL     1      -0.240  12.834  18.440  0.00  0.00    +0.000 A 
BRANCH  10  11
ATOM     11  N   UNL     1      -1.046  12.237  17.437  0.00  0.00    +0.000 N 
ATOM     12  H   UNL     1      -1.246  12.905  16.695  0.00  0.00    +0.000 HD
BRANCH  11  13
ATOM     13  C   UNL     1      -2.274  11.493  17.868  0.00  0.00    +0.000 C 
BRANCH  13  14
ATOM     14  C   UNL     1      -2.415  10.082  17.260  0.00  0.00    +0.000 C 
ATOM     15  F   UNL     1      -3.106  10.080  16.100  0.00  0.00    +0.000 F 
ATOM     16  F   UNL     1      -1.203   9.534  17.015  0.00  0.00    +0.000 F 
ATOM     17  F   UNL     1      -3.062   9.252  18.112  0.00  0.00    +0.000 F 
ENDBRANCH  13  14
ENDBRANCH  11  13
ENDBRANCH  10  11
ENDBRANCH   3   5
BRANCH   2  18
ATOM     18  C   UNL     1       2.193   8.729  17.937  0.00  0.00    +0.000 C 
BRANCH  18  19
ATOM     19  N   UNL     1       1.939   7.369  18.369  0.00  0.00    +0.000 N 
ATOM     20  C   UNL     1       2.879   6.398  18.151  0.00  0.00    +0.000 C 
ATOM     21  O   UNL     1       3.917   6.649  17.531  0.00  0.00    +0.000 OA
ATOM     22  H   UNL     1       1.004   7.130  18.693  0.00  0.00    +0.000 HD
BRANCH  20  23
ATOM     23  C   UNL     1       2.601   5.013  18.725  0.00  0.00    +0.000 C 
ATOM     24  C   UNL     1       1.743   5.120  20.005  0.00  0.00    +0.000 C 
ATOM     25  C   UNL     1       1.490   3.725  20.599  0.00  0.00    +0.000 C 
ATOM     26  C   UNL     1       0.738   2.863  19.571  0.00  0.00    +0.000 C 
ATOM     27  C   UNL     1       1.570   2.727  18.285  0.00  0.00    +0.000 C 
ATOM     28  C   UNL     1       2.914   2.061  18.622  0.00  0.00    +0.000 C 
ATOM     29  C   UNL     1       3.680   2.911  19.648  0.00  0.00    +0.000 C 
ATOM     30  C   UNL     1       2.837   3.058  20.926  0.00  0.00    +0.000 C 
ATOM     31  C   UNL     1       3.934   4.306  19.059  0.00  0.00    +0.000 C 
ATOM     32  C   UNL     1       1.829   4.128  17.702  0.00  0.00    +0.000 C 
ENDBRANCH  20  23
ENDBRANCH  18  19
ENDBRANCH   2  18
TORSDOF 7
ENDMDL
