MODEL 1
REMARK VINA RESULT:      -7.6      0.000      0.000
REMARK  Name = 
REMARK  5 active torsions:
REMARK  status: ('A' for Active; 'I' for Inactive)
REMARK    1  A    between atoms: C_1  and  N_2
REMARK    2  A    between atoms: C_6  and  C_7
REMARK    3  A    between atoms: C_7  and  C_8
REMARK    4  A    between atoms: C_8  and  C_9
REMARK    5  A    between atoms: C_13  and  N_14
REMARK                            x       y       z     vdW  Elec       q    Type
REMARK                         _______ _______ _______ _____ _____    ______ ____
ROOT
ATOM      1  C   UNL     1      -1.365  12.876  22.668  0.00  0.00    +0.000 A 
ATOM      2  C   UNL     1      -1.809  11.603  23.074  0.00  0.00    +0.000 A 
ATOM      3  C   UNL     1      -1.061  10.444  22.865  0.00  0.00    +0.000 A 
ATOM      4  C   UNL     1       0.093  10.482  22.088  0.00  0.00    +0.000 A 
ATOM      5  C   UNL     1       0.441  11.671  21.445  0.00  0.00    +0.000 A 
ATOM      6  C   UNL     1      -0.194  12.872  21.875  0.00  0.00    +0.000 A 
ENDROOT
BRANCH   5   7
ATOM      7  N   UNL     1       1.080  11.617  20.110  0.00  0.00    +0.000 N 
ATOM      8  C   UNL     1       0.762  12.821  19.344  0.00  0.00    +0.000 C 
ATOM      9  C   UNL     1      -0.565  12.406  18.804  0.00  0.00    +0.000 A 
ATOM     10  C   UNL     1      -1.782  12.740  19.369  0.00  0.00    +0.000 A 
ATOM     11  C   UNL     1      -2.838  11.880  19.174  0.00  0.00    +0.000 A 
ATOM     12  C   UNL     1      -2.798  11.022  18.095  0.00  0.00    +0.000 A 
ATOM     13  C   UNL     1      -1.561  10.447  17.803  0.00  0.00    +0.000 A 
ATOM     14  C   UNL     1      -0.444  11.112  18.325  0.00  0.00    +0.000 A 
ATOM     15  C   UNL     1       0.652  10.541  19.209  0.00  0.00    +0.000 C 
ATOM     16  O   UNL     1       0.966   9.363  19.252  0.00  0.00    +0.000 OA
ATOM     17  C   UNL     1      -4.105  10.911  17.338  0.00  0.00    +0.000 C 
ATOM     18  C   UNL     1      -5.288  11.780  17.904  0.00  0.00    +0.000 C 
ATOM     19  F   UNL     1      -6.354  10.950  18.107  0.00  0.00    +0.000 F 
ATOM     20  F   UNL     1      -5.698  12.673  16.957  0.00  0.00    +0.000 F 
ATOM     21  C   UNL     1      -5.081  12.567  19.206  0.00  0.00    +0.000 C 
ATOM     22  C   UNL     1      -4.061  11.851  20.031  0.00  0.00    +0.000 C 
ENDBRANCH   5   7
BRANCH   1  23
ATOM     23  C   UNL     1      -2.152  14.226  23.137  0.00  0.00    +0.000 C 
ATOM     24  C   UNL     1      -1.206  15.395  23.574  0.00  0.00    +0.000 C 
ATOM     25  O   UNL     1      -1.788  16.294  22.611  0.00  0.00    +0.000 OA
ATOM     26  C   UNL     1      -2.557  15.223  22.024  0.00  0.00    +0.000 C 
BRANCH  23  27
ATOM     27  C   UNL     1      -3.219  14.050  24.243  0.00  0.00    +0.000 C 
BRANCH  27  33
ATOM     28  C   UNL     1      -5.775  15.957  23.944  0.00  0.00    +0.000 C 
ATOM     29  N   UNL     1      -5.707  14.529  23.787  0.00  0.00    +0.000 N 
ATOM     30  C   UNL     1      -6.790  13.725  23.581  0.00  0.00    +0.000 A 
ATOM     31  N   UNL     1      -6.402  12.478  23.503  0.00  0.00    +0.000 NA
ATOM     32  N   UNL     1      -5.048  12.461  23.696  0.00  0.00    +0.000 NA
ATOM     33  C   UNL     1      -4.615  13.695  23.854  0.00  0.00    +0.000 A 
ENDBRANCH  27  33
ENDBRANCH  23  27
ENDBRANCH   1  23
TORSDOF 4
ENDMDL
MODEL 2
REMARK VINA RESULT:      -7.3      4.447      8.271
REMARK  Name = 
REMARK  5 active torsions:
REMARK  status: ('A' for Active; 'I' for Inactive)
REMARK    1  A    between atoms: C_1  and  N_2
REMARK    2  A    between atoms: C_6  and  C_7
REMARK    3  A    between atoms: C_7  and  C_8
REMARK    4  A    between atoms: C_8  and  C_9
REMARK    5  A    between atoms: C_13  and  N_14
REMARK                            x       y       z     vdW  Elec       q    Type
REMARK                         _______ _______ _______ _____ _____    ______ ____
ROOT
ATOM      1  C   UNL     1       2.204   7.865  18.704  0.00  0.00    +0.000 A 
ATOM      2  C   UNL     1       1.853   8.693  17.621  0.00  0.00    +0.000 A 
ATOM      3  C   UNL     1       1.667  10.069  17.756  0.00  0.00    +0.000 A 
ATOM      4  C   UNL     1       1.659  10.657  19.018  0.00  0.00    +0.000 A 
ATOM      5  C   UNL     1       1.746   9.843  20.149  0.00  0.00    +0.000 A 
ATOM      6  C   UNL     1       2.177   8.497  19.969  0.00  0.00    +0.000 A 
ENDROOT
BRANCH   5   7
ATOM      7  N   UNL     1       1.004  10.218  21.374  0.00  0.00    +0.000 N 
ATOM      8  C   UNL     1      -0.101   9.288  21.605  0.00  0.00    +0.000 C 
ATOM      9  C   UNL     1      -1.119   9.915  20.712  0.00  0.00    +0.000 A 
ATOM     10  C   UNL     1      -1.377   9.517  19.413  0.00  0.00    +0.000 A 
ATOM     11  C   UNL     1      -1.855  10.460  18.535  0.00  0.00    +0.000 A 
ATOM     12  C   UNL     1      -2.488  11.576  19.045  0.00  0.00    +0.000 A 
ATOM     13  C   UNL     1      -1.933  12.131  20.200  0.00  0.00    +0.000 A 
ATOM     14  C   UNL     1      -1.105  11.281  20.945  0.00  0.00    +0.000 A 
ATOM     15  C   UNL     1       0.332  11.522  21.374  0.00  0.00    +0.000 C 
ATOM     16  O   UNL     1       0.840  12.622  21.514  0.00  0.00    +0.000 OA
ATOM     17  C   UNL     1      -3.751  11.969  18.309  0.00  0.00    +0.000 C 
ATOM     18  C   UNL     1      -4.131  11.053  17.087  0.00  0.00    +0.000 C 
ATOM     19  F   UNL     1      -4.299  11.861  15.999  0.00  0.00    +0.000 F 
ATOM     20  F   UNL     1      -5.349  10.478  17.304  0.00  0.00    +0.000 F 
ATOM     21  C   UNL     1      -3.171   9.931  16.666  0.00  0.00    +0.000 C 
ATOM     22  C   UNL     1      -1.783  10.331  17.048  0.00  0.00    +0.000 C 
ENDBRANCH   5   7
BRANCH   1  23
ATOM     23  C   UNL     1       2.641   6.311  18.463  0.00  0.00    +0.000 C 
ATOM     24  C   UNL     1       3.912   6.140  17.565  0.00  0.00    +0.000 C 
ATOM     25  O   UNL     1       4.595   5.388  18.587  0.00  0.00    +0.000 OA
ATOM     26  C   UNL     1       3.546   5.664  19.539  0.00  0.00    +0.000 C 
BRANCH  23  27
ATOM     27  C   UNL     1       1.548   5.368  17.909  0.00  0.00    +0.000 C 
BRANCH  27  33
ATOM     28  C   UNL     1       0.874   3.523  20.440  0.00  0.00    +0.000 C 
ATOM     29  N   UNL     1       1.466   3.134  19.189  0.00  0.00    +0.000 N 
ATOM     30  C   UNL     1       1.947   1.886  18.920  0.00  0.00    +0.000 A 
ATOM     31  N   UNL     1       2.441   1.858  17.709  0.00  0.00    +0.000 NA
ATOM     32  N   UNL     1       2.314   3.117  17.188  0.00  0.00    +0.000 NA
ATOM     33  C   UNL     1       1.714   3.892  18.068  0.00  0.00    +0.000 A 
ENDBRANCH  27  33
ENDBRANCH  23  27
ENDBRANCH   1  23
TORSDOF 4
ENDMDL
MODEL 3
REMARK VINA RESULT:      -7.3      4.312      8.746
REMARK  Name = 
REMARK  5 active torsions:
REMARK  status: ('A' for Active; 'I' for Inactive)
REMARK    1  A    between atoms: C_1  and  N_2
REMARK    2  A    between atoms: C_6  and  C_7
REMARK    3  A    between atoms: C_7  and  C_8
REMARK    4  A    between atoms: C_8  and  C_9
REMARK    5  A    between atoms: C_13  and  N_14
REMARK                            x       y       z     vdW  Elec       q    Type
REMARK                         _______ _______ _______ _____ _____    ______ ____
ROOT
ATOM      1  C   UNL     1       2.125   7.045  18.862  0.00  0.00    +0.000 A 
ATOM      2  C   UNL     1       1.790   7.782  17.710  0.00  0.00    +0.000 A 
ATOM      3  C   UNL     1       1.712   9.175  17.706  0.00  0.00    +0.000 A 
ATOM      4  C   UNL     1       1.803   9.889  18.897  0.00  0.00    +0.000 A 
ATOM      5  C   UNL     1       1.878   9.191  20.104  0.00  0.00    +0.000 A 
ATOM      6  C   UNL     1       2.201   7.804  20.053  0.00  0.00    +0.000 A 
ENDROOT
BRANCH   5   7
ATOM      7  N   UNL     1       1.221   9.747  21.308  0.00  0.00    +0.000 N 
ATOM      8  C   UNL     1       0.003   8.997  21.616  0.00  0.00    +0.000 C 
ATOM      9  C   UNL     1      -0.937   9.697  20.693  0.00  0.00    +0.000 A 
ATOM     10  C   UNL     1      -1.274   9.252  19.428  0.00  0.00    +0.000 A 
ATOM     11  C   UNL     1      -1.636  10.191  18.491  0.00  0.00    +0.000 A 
ATOM     12  C   UNL     1      -2.099  11.415  18.930  0.00  0.00    +0.000 A 
ATOM     13  C   UNL     1      -1.450  11.964  20.036  0.00  0.00    +0.000 A 
ATOM     14  C   UNL     1      -0.731  11.061  20.830  0.00  0.00    +0.000 A 
ATOM     15  C   UNL     1       0.734  11.129  21.226  0.00  0.00    +0.000 C 
ATOM     16  O   UNL     1       1.391  12.155  21.282  0.00  0.00    +0.000 OA
ATOM     17  C   UNL     1      -3.312  11.928  18.182  0.00  0.00    +0.000 C 
ATOM     18  C   UNL     1      -3.839  10.993  17.032  0.00  0.00    +0.000 C 
ATOM     19  F   UNL     1      -3.917  11.742  15.892  0.00  0.00    +0.000 F 
ATOM     20  F   UNL     1      -5.120  10.608  17.302  0.00  0.00    +0.000 F 
ATOM     21  C   UNL     1      -3.051   9.723  16.679  0.00  0.00    +0.000 C 
ATOM     22  C   UNL     1      -1.613   9.953  17.017  0.00  0.00    +0.000 C 
ENDBRANCH   5   7
BRANCH   1  23
ATOM     23  C   UNL     1       2.435   5.445  18.771  0.00  0.00    +0.000 C 
ATOM     24  C   UNL     1       1.614   4.579  19.784  0.00  0.00    +0.000 C 
ATOM     25  O   UNL     1       1.065   3.770  18.726  0.00  0.00    +0.000 OA
ATOM     26  C   UNL     1       1.635   4.636  17.722  0.00  0.00    +0.000 C 
BRANCH  23  27
ATOM     27  C   UNL     1       3.919   5.025  18.892  0.00  0.00    +0.000 C 
BRANCH  27  33
ATOM     28  C   UNL     1       7.040   5.582  19.345  0.00  0.00    +0.000 C 
ATOM     29  N   UNL     1       6.242   5.882  18.187  0.00  0.00    +0.000 N 
ATOM     30  C   UNL     1       6.692   6.574  17.101  0.00  0.00    +0.000 A 
ATOM     31  N   UNL     1       5.723   6.701  16.230  0.00  0.00    +0.000 NA
ATOM     32  N   UNL     1       4.612   6.114  16.770  0.00  0.00    +0.000 NA
ATOM     33  C   UNL     1       4.917   5.604  17.945  0.00  0.00    +0.000 A 
ENDBRANCH  27  33
ENDBRANCH  23  27
ENDBRANCH   1  23
TORSDOF 4
ENDMDL
MODEL 4
REMARK VINA RESULT:      -7.2      4.434      8.703
REMARK  Name = 
REMARK  5 active torsions:
REMARK  status: ('A' for Active; 'I' for Inactive)
REMARK    1  A    between atoms: C_1  and  N_2
REMARK    2  A    between atoms: C_6  and  C_7
REMARK    3  A    between atoms: C_7  and  C_8
REMARK    4  A    between atoms: C_8  and  C_9
REMARK    5  A    between atoms: C_13  and  N_14
REMARK                            x       y       z     vdW  Elec       q    Type
REMARK                         _______ _______ _______ _____ _____    ______ ____
ROOT
ATOM      1  C   UNL     1       2.025   6.821  19.242  0.00  0.00    +0.000 A 
ATOM      2  C   UNL     1       1.771   7.474  18.021  0.00  0.00    +0.000 A 
ATOM      3  C   UNL     1       1.763   8.864  17.901  0.00  0.00    +0.000 A 
ATOM      4  C   UNL     1       1.842   9.669  19.034  0.00  0.00    +0.000 A 
ATOM      5  C   UNL     1       1.836   9.071  20.295  0.00  0.00    +0.000 A 
ATOM      6  C   UNL     1       2.091   7.672  20.370  0.00  0.00    +0.000 A 
ENDROOT
BRANCH   5   7
ATOM      7  N   UNL     1       1.160   9.755  21.421  0.00  0.00    +0.000 N 
ATOM      8  C   UNL     1      -0.110   9.097  21.728  0.00  0.00    +0.000 C 
ATOM      9  C   UNL     1      -0.969   9.771  20.711  0.00  0.00    +0.000 A 
ATOM     10  C   UNL     1      -1.276   9.245  19.470  0.00  0.00    +0.000 A 
ATOM     11  C   UNL     1      -1.545  10.124  18.448  0.00  0.00    +0.000 A 
ATOM     12  C   UNL     1      -1.956  11.402  18.769  0.00  0.00    +0.000 A 
ATOM     13  C   UNL     1      -1.325  12.002  19.859  0.00  0.00    +0.000 A 
ATOM     14  C   UNL     1      -0.692  11.128  20.752  0.00  0.00    +0.000 A 
ATOM     15  C   UNL     1       0.756  11.149  21.210  0.00  0.00    +0.000 C 
ATOM     16  O   UNL     1       1.466  12.140  21.218  0.00  0.00    +0.000 OA
ATOM     17  C   UNL     1      -3.105  11.918  17.928  0.00  0.00    +0.000 C 
ATOM     18  C   UNL     1      -3.635  10.924  16.829  0.00  0.00    +0.000 C 
ATOM     19  F   UNL     1      -3.622  11.583  15.632  0.00  0.00    +0.000 F 
ATOM     20  F   UNL     1      -4.945  10.630  17.068  0.00  0.00    +0.000 F 
ATOM     21  C   UNL     1      -2.905   9.590  16.612  0.00  0.00    +0.000 C 
ATOM     22  C   UNL     1      -1.473   9.770  16.998  0.00  0.00    +0.000 C 
ENDBRANCH   5   7
BRANCH   1  23
ATOM     23  C   UNL     1       2.259   5.206  19.294  0.00  0.00    +0.000 C 
ATOM     24  C   UNL     1       2.600   4.658  20.721  0.00  0.00    +0.000 C 
ATOM     25  O   UNL     1       1.490   3.741  20.690  0.00  0.00    +0.000 OA
ATOM     26  C   UNL     1       0.999   4.322  19.463  0.00  0.00    +0.000 C 
BRANCH  23  27
ATOM     27  C   UNL     1       3.304   4.631  18.311  0.00  0.00    +0.000 C 
BRANCH  27  33
ATOM     28  C   UNL     1       5.043   6.759  16.665  0.00  0.00    +0.000 C 
ATOM     29  N   UNL     1       5.476   5.883  17.720  0.00  0.00    +0.000 N 
ATOM     30  C   UNL     1       6.771   5.746  18.124  0.00  0.00    +0.000 A 
ATOM     31  N   UNL     1       6.841   4.859  19.083  0.00  0.00    +0.000 NA
ATOM     32  N   UNL     1       5.575   4.381  19.287  0.00  0.00    +0.000 NA
ATOM     33  C   UNL     1       4.740   5.002  18.479  0.00  0.00    +0.000 A 
ENDBRANCH  27  33
ENDBRANCH  23  27
ENDBRANCH   1  23
TORSDOF 4
ENDMDL
MODEL 5
REMARK VINA RESULT:      -7.1      1.321      1.600
REMARK  Name = 
REMARK  5 active torsions:
REMARK  status: ('A' for Active; 'I' for Inactive)
REMARK    1  A    between atoms: C_1  and  N_2
REMARK    2  A    between atoms: C_6  and  C_7
REMARK    3  A    between atoms: C_7  and  C_8
REMARK    4  A    between atoms: C_8  and  C_9
REMARK    5  A    between atoms: C_13  and  N_14
REMARK                            x       y       z     vdW  Elec       q    Type
REMARK                         _______ _______ _______ _____ _____    ______ ____
ROOT
ATOM      1  C   UNL     1      -0.905  13.545  22.601  0.00  0.00    +0.000 A 
ATOM      2  C   UNL     1      -1.743  12.468  22.947  0.00  0.00    +0.000 A 
ATOM      3  C   UNL     1      -1.388  11.138  22.722  0.00  0.00    +0.000 A 
ATOM      4  C   UNL     1      -0.248  10.828  21.987  0.00  0.00    +0.000 A 
ATOM      5  C   UNL     1       0.483  11.861  21.397  0.00  0.00    +0.000 A 
ATOM      6  C   UNL     1       0.239  13.191  21.848  0.00  0.00    +0.000 A 
ENDROOT
BRANCH   5   7
ATOM      7  N   UNL     1       1.129  11.639  20.084  0.00  0.00    +0.000 N 
ATOM      8  C   UNL     1       0.837  12.750  19.179  0.00  0.00    +0.000 C 
ATOM      9  C   UNL     1      -0.494  12.295  18.680  0.00  0.00    +0.000 A 
ATOM     10  C   UNL     1      -1.709  12.713  19.191  0.00  0.00    +0.000 A 
ATOM     11  C   UNL     1      -2.778  11.854  19.091  0.00  0.00    +0.000 A 
ATOM     12  C   UNL     1      -2.746  10.873  18.121  0.00  0.00    +0.000 A 
ATOM     13  C   UNL     1      -1.517  10.248  17.909  0.00  0.00    +0.000 A 
ATOM     14  C   UNL     1      -0.392  10.951  18.358  0.00  0.00    +0.000 A 
ATOM     15  C   UNL     1       0.688  10.472  19.312  0.00  0.00    +0.000 C 
ATOM     16  O   UNL     1       0.982   9.302  19.497  0.00  0.00    +0.000 OA
ATOM     17  C   UNL     1      -4.050  10.694  17.371  0.00  0.00    +0.000 C 
ATOM     18  C   UNL     1      -5.221  11.643  17.821  0.00  0.00    +0.000 C 
ATOM     19  F   UNL     1      -6.302  10.860  18.112  0.00  0.00    +0.000 F 
ATOM     20  F   UNL     1      -5.610  12.424  16.772  0.00  0.00    +0.000 F 
ATOM     21  C   UNL     1      -5.009  12.575  19.023  0.00  0.00    +0.000 C 
ATOM     22  C   UNL     1      -4.007  11.946  19.935  0.00  0.00    +0.000 C 
ENDBRANCH   5   7
BRANCH   1  23
ATOM     23  C   UNL     1      -1.248  15.063  23.091  0.00  0.00    +0.000 C 
ATOM     24  C   UNL     1       0.003  16.000  23.186  0.00  0.00    +0.000 C 
ATOM     25  O   UNL     1      -0.584  16.960  22.287  0.00  0.00    +0.000 OA
ATOM     26  C   UNL     1      -1.682  16.070  21.998  0.00  0.00    +0.000 C 
BRANCH  23  27
ATOM     27  C   UNL     1      -2.032  15.197  24.417  0.00  0.00    +0.000 C 
BRANCH  27  33
ATOM     28  C   UNL     1      -2.889  18.104  25.453  0.00  0.00    +0.000 C 
ATOM     29  N   UNL     1      -3.727  17.073  24.905  0.00  0.00    +0.000 N 
ATOM     30  C   UNL     1      -5.088  17.142  24.839  0.00  0.00    +0.000 A 
ATOM     31  N   UNL     1      -5.558  16.040  24.311  0.00  0.00    +0.000 NA
ATOM     32  N   UNL     1      -4.491  15.222  24.061  0.00  0.00    +0.000 NA
ATOM     33  C   UNL     1      -3.379  15.840  24.402  0.00  0.00    +0.000 A 
ENDBRANCH  27  33
ENDBRANCH  23  27
ENDBRANCH   1  23
TORSDOF 4
ENDMDL
MODEL 6
REMARK VINA RESULT:      -7.1      0.912      1.501
REMARK  Name = 
REMARK  5 active torsions:
REMARK  status: ('A' for Active; 'I' for Inactive)
REMARK    1  A    between atoms: C_1  and  N_2
REMARK    2  A    between atoms: C_6  and  C_7
REMARK    3  A    between atoms: C_7  and  C_8
REMARK    4  A    between atoms: C_8  and  C_9
REMARK    5  A    between atoms: C_13  and  N_14
REMARK                            x       y       z     vdW  Elec       q    Type
REMARK                         _______ _______ _______ _____ _____    ______ ____
ROOT
ATOM      1  C   UNL     1      -1.432  13.355  22.792  0.00  0.00    +0.000 A 
ATOM      2  C   UNL     1      -2.124  12.176  23.129  0.00  0.00    +0.000 A 
ATOM      3  C   UNL     1      -1.576  10.906  22.950  0.00  0.00    +0.000 A 
ATOM      4  C   UNL     1      -0.373  10.748  22.268  0.00  0.00    +0.000 A 
ATOM      5  C   UNL     1       0.230  11.864  21.684  0.00  0.00    +0.000 A 
ATOM      6  C   UNL     1      -0.219  13.153  22.094  0.00  0.00    +0.000 A 
ENDROOT
BRANCH   5   7
ATOM      7  N   UNL     1       0.956  11.713  20.403  0.00  0.00    +0.000 N 
ATOM      8  C   UNL     1       0.697  12.859  19.533  0.00  0.00    +0.000 C 
ATOM      9  C   UNL     1      -0.593  12.406  18.935  0.00  0.00    +0.000 A 
ATOM     10  C   UNL     1      -1.844  12.779  19.391  0.00  0.00    +0.000 A 
ATOM     11  C   UNL     1      -2.888  11.908  19.189  0.00  0.00    +0.000 A 
ATOM     12  C   UNL     1      -2.780  10.974  18.179  0.00  0.00    +0.000 A 
ATOM     13  C   UNL     1      -1.529  10.379  18.014  0.00  0.00    +0.000 A 
ATOM     14  C   UNL     1      -0.446  11.080  18.561  0.00  0.00    +0.000 A 
ATOM     15  C   UNL     1       0.585  10.575  19.555  0.00  0.00    +0.000 C 
ATOM     16  O   UNL     1       0.889   9.403  19.705  0.00  0.00    +0.000 OA
ATOM     17  C   UNL     1      -4.034  10.808  17.346  0.00  0.00    +0.000 C 
ATOM     18  C   UNL     1      -5.248  11.716  17.766  0.00  0.00    +0.000 C 
ATOM     19  F   UNL     1      -6.329  10.903  17.956  0.00  0.00    +0.000 F 
ATOM     20  F   UNL     1      -5.588  12.538  16.732  0.00  0.00    +0.000 F 
ATOM     21  C   UNL     1      -5.125  12.596  19.019  0.00  0.00    +0.000 C 
ATOM     22  C   UNL     1      -4.167  11.942  19.961  0.00  0.00    +0.000 C 
ENDBRANCH   5   7
BRANCH   1  23
ATOM     23  C   UNL     1      -2.006  14.817  23.232  0.00  0.00    +0.000 C 
ATOM     24  C   UNL     1      -2.364  14.929  24.752  0.00  0.00    +0.000 C 
ATOM     25  O   UNL     1      -1.484  16.055  24.929  0.00  0.00    +0.000 OA
ATOM     26  C   UNL     1      -0.960  15.900  23.594  0.00  0.00    +0.000 C 
BRANCH  23  27
ATOM     27  C   UNL     1      -3.213  15.352  22.427  0.00  0.00    +0.000 C 
BRANCH  27  33
ATOM     28  C   UNL     1      -5.625  13.330  23.022  0.00  0.00    +0.000 C 
ATOM     29  N   UNL     1      -5.544  14.733  23.329  0.00  0.00    +0.000 N 
ATOM     30  C   UNL     1      -6.570  15.467  23.847  0.00  0.00    +0.000 A 
ATOM     31  N   UNL     1      -6.191  16.711  23.990  0.00  0.00    +0.000 NA
ATOM     32  N   UNL     1      -4.907  16.801  23.524  0.00  0.00    +0.000 NA
ATOM     33  C   UNL     1      -4.502  15.610  23.136  0.00  0.00    +0.000 A 
ENDBRANCH  27  33
ENDBRANCH  23  27
ENDBRANCH   1  23
TORSDOF 4
ENDMDL
MODEL 7
REMARK VINA RESULT:      -7.1      4.393      8.177
REMARK  Name = 
REMARK  5 active torsions:
REMARK  status: ('A' for Active; 'I' for Inactive)
REMARK    1  A    between atoms: C_1  and  N_2
REMARK    2  A    between atoms: C_6  and  C_7
REMARK    3  A    between atoms: C_7  and  C_8
REMARK    4  A    between atoms: C_8  and  C_9
REMARK    5  A    between atoms: C_13  and  N_14
REMARK                            x       y       z     vdW  Elec       q    Type
REMARK                         _______ _______ _______ _____ _____    ______ ____
ROOT
ATOM      1  C   UNL     1       2.297   7.812  18.727  0.00  0.00    +0.000 A 
ATOM      2  C   UNL     1       1.924   8.617  17.634  0.00  0.00    +0.000 A 
ATOM      3  C   UNL     1       1.699   9.988  17.754  0.00  0.00    +0.000 A 
ATOM      4  C   UNL     1       1.674  10.591  19.008  0.00  0.00    +0.000 A 
ATOM      5  C   UNL     1       1.782   9.793  20.148  0.00  0.00    +0.000 A 
ATOM      6  C   UNL     1       2.251   8.458  19.985  0.00  0.00    +0.000 A 
ENDROOT
BRANCH   5   7
ATOM      7  N   UNL     1       1.029  10.161  21.369  0.00  0.00    +0.000 N 
ATOM      8  C   UNL     1      -0.078   9.231  21.584  0.00  0.00    +0.000 C 
ATOM      9  C   UNL     1      -1.088   9.864  20.685  0.00  0.00    +0.000 A 
ATOM     10  C   UNL     1      -1.334   9.473  19.382  0.00  0.00    +0.000 A 
ATOM     11  C   UNL     1      -1.803  10.422  18.505  0.00  0.00    +0.000 A 
ATOM     12  C   UNL     1      -2.440  11.535  19.016  0.00  0.00    +0.000 A 
ATOM     13  C   UNL     1      -1.896  12.083  20.178  0.00  0.00    +0.000 A 
ATOM     14  C   UNL     1      -1.075  11.229  20.926  0.00  0.00    +0.000 A 
ATOM     15  C   UNL     1       0.358  11.466  21.371  0.00  0.00    +0.000 C 
ATOM     16  O   UNL     1       0.865  12.565  21.521  0.00  0.00    +0.000 OA
ATOM     17  C   UNL     1      -3.696  11.933  18.270  0.00  0.00    +0.000 C 
ATOM     18  C   UNL     1      -4.066  11.024  17.039  0.00  0.00    +0.000 C 
ATOM     19  F   UNL     1      -4.223  11.839  15.954  0.00  0.00    +0.000 F 
ATOM     20  F   UNL     1      -5.286  10.449  17.242  0.00  0.00    +0.000 F 
ATOM     21  C   UNL     1      -3.102   9.904  16.621  0.00  0.00    +0.000 C 
ATOM     22  C   UNL     1      -1.717  10.302  17.018  0.00  0.00    +0.000 C 
ENDBRANCH   5   7
BRANCH   1  23
ATOM     23  C   UNL     1       2.777   6.268  18.504  0.00  0.00    +0.000 C 
ATOM     24  C   UNL     1       3.791   6.081  17.326  0.00  0.00    +0.000 C 
ATOM     25  O   UNL     1       4.765   5.469  18.193  0.00  0.00    +0.000 OA
ATOM     26  C   UNL     1       3.972   5.777  19.358  0.00  0.00    +0.000 C 
BRANCH  23  27
ATOM     27  C   UNL     1       1.656   5.218  18.328  0.00  0.00    +0.000 C 
BRANCH  27  33
ATOM     28  C   UNL     1       2.711   2.228  17.877  0.00  0.00    +0.000 C 
ATOM     29  N   UNL     1       2.014   2.762  19.015  0.00  0.00    +0.000 N 
ATOM     30  C   UNL     1       1.587   2.018  20.075  0.00  0.00    +0.000 A 
ATOM     31  N   UNL     1       0.969   2.790  20.932  0.00  0.00    +0.000 NA
ATOM     32  N   UNL     1       0.960   4.054  20.409  0.00  0.00    +0.000 NA
ATOM     33  C   UNL     1       1.601   4.052  19.258  0.00  0.00    +0.000 A 
ENDBRANCH  27  33
ENDBRANCH  23  27
ENDBRANCH   1  23
TORSDOF 4
ENDMDL
MODEL 8
REMARK VINA RESULT:      -7.0      3.321      4.888
REMARK  Name = 
REMARK  5 active torsions:
REMARK  status: ('A' for Active; 'I' for Inactive)
REMARK    1  A    between atoms: C_1  and  N_2
REMARK    2  A    between atoms: C_6  and  C_7
REMARK    3  A    between atoms: C_7  and  C_8
REMARK    4  A    between atoms: C_8  and  C_9
REMARK    5  A    between atoms: C_13  and  N_14
REMARK                            x       y       z     vdW  Elec       q    Type
REMARK                         _______ _______ _______ _____ _____    ______ ____
ROOT
ATOM      1  C   UNL     1      -2.370  12.289  20.737  0.00  0.00    +0.000 A 
ATOM      2  C   UNL     1      -2.725  12.635  19.419  0.00  0.00    +0.000 A 
ATOM      3  C   UNL     1      -2.337  11.878  18.313  0.00  0.00    +0.000 A 
ATOM      4  C   UNL     1      -1.434  10.830  18.459  0.00  0.00    +0.000 A 
ATOM      5  C   UNL     1      -0.849  10.605  19.707  0.00  0.00    +0.000 A 
ATOM      6  C   UNL     1      -1.445  11.224  20.843  0.00  0.00    +0.000 A 
ENDROOT
BRANCH   5   7
ATOM      7  N   UNL     1       0.552  10.133  19.780  0.00  0.00    +0.000 N 
ATOM      8  C   UNL     1       1.260  10.805  20.869  0.00  0.00    +0.000 C 
ATOM      9  C   UNL     1       1.645  12.057  20.155  0.00  0.00    +0.000 A 
ATOM     10  C   UNL     1       0.935  13.243  20.210  0.00  0.00    +0.000 A 
ATOM     11  C   UNL     1       1.014  14.090  19.130  0.00  0.00    +0.000 A 
ATOM     12  C   UNL     1       2.102  13.984  18.287  0.00  0.00    +0.000 A 
ATOM     13  C   UNL     1       2.546  12.691  18.005  0.00  0.00    +0.000 A 
ATOM     14  C   UNL     1       2.151  11.701  18.915  0.00  0.00    +0.000 A 
ATOM     15  C   UNL     1       1.410  10.408  18.622  0.00  0.00    +0.000 C 
ATOM     16  O   UNL     1       1.419   9.831  17.547  0.00  0.00    +0.000 OA
ATOM     17  C   UNL     1       2.700  15.311  17.870  0.00  0.00    +0.000 C 
ATOM     18  C   UNL     1       1.987  16.585  18.456  0.00  0.00    +0.000 C 
ATOM     19  F   UNL     1       1.670  17.402  17.408  0.00  0.00    +0.000 F 
ATOM     20  F   UNL     1       2.868  17.296  19.217  0.00  0.00    +0.000 F 
ATOM     21  C   UNL     1       0.709  16.411  19.288  0.00  0.00    +0.000 C 
ATOM     22  C   UNL     1       0.019  15.165  18.836  0.00  0.00    +0.000 C 
ENDBRANCH   5   7
BRANCH   1  23
ATOM     23  C   UNL     1      -3.035  13.059  22.013  0.00  0.00    +0.000 C 
ATOM     24  C   UNL     1      -4.601  13.090  21.993  0.00  0.00    +0.000 C 
ATOM     25  O   UNL     1      -4.680  12.461  23.286  0.00  0.00    +0.000 OA
ATOM     26  C   UNL     1      -3.257  12.223  23.297  0.00  0.00    +0.000 C 
BRANCH  23  27
ATOM     27  C   UNL     1      -2.543  14.501  22.277  0.00  0.00    +0.000 C 
BRANCH  27  33
ATOM     28  C   UNL     1      -4.230  15.911  24.607  0.00  0.00    +0.000 C 
ATOM     29  N   UNL     1      -2.843  15.534  24.617  0.00  0.00    +0.000 N 
ATOM     30  C   UNL     1      -1.974  15.828  25.626  0.00  0.00    +0.000 A 
ATOM     31  N   UNL     1      -0.784  15.370  25.328  0.00  0.00    +0.000 NA
ATOM     32  N   UNL     1      -0.868  14.798  24.088  0.00  0.00    +0.000 NA
ATOM     33  C   UNL     1      -2.109  14.878  23.655  0.00  0.00    +0.000 A 
ENDBRANCH  27  33
ENDBRANCH  23  27
ENDBRANCH   1  23
TORSDOF 4
ENDMDL
MODEL 9
REMARK VINA RESULT:      -7.0      2.162      5.962
REMARK  Name = 
REMARK  5 active torsions:
REMARK  status: ('A' for Active; 'I' for Inactive)
REMARK    1  A    between atoms: C_1  and  N_2
REMARK    2  A    between atoms: C_6  and  C_7
REMARK    3  A    between atoms: C_7  and  C_8
REMARK    4  A    between atoms: C_8  and  C_9
REMARK    5  A    between atoms: C_13  and  N_14
REMARK                            x       y       z     vdW  Elec       q    Type
REMARK                         _______ _______ _______ _____ _____    ______ ____
ROOT
ATOM      1  C   UNL     1      -0.644  14.008  21.060  0.00  0.00    +0.000 A 
ATOM      2  C   UNL     1      -1.494  14.745  20.213  0.00  0.00    +0.000 A 
ATOM      3  C   UNL     1      -2.380  15.710  20.694  0.00  0.00    +0.000 A 
ATOM      4  C   UNL     1      -2.577  15.866  22.062  0.00  0.00    +0.000 A 
ATOM      5  C   UNL     1      -1.951  14.983  22.945  0.00  0.00    +0.000 A 
ATOM      6  C   UNL     1      -0.881  14.188  22.443  0.00  0.00    +0.000 A 
ENDROOT
BRANCH   5   7
ATOM      7  N   UNL     1      -2.649  14.576  24.184  0.00  0.00    +0.000 N 
ATOM      8  C   UNL     1      -2.726  13.118  24.270  0.00  0.00    +0.000 C 
ATOM      9  C   UNL     1      -3.941  12.902  23.431  0.00  0.00    +0.000 A 
ATOM     10  C   UNL     1      -3.921  12.580  22.087  0.00  0.00    +0.000 A 
ATOM     11  C   UNL     1      -4.991  12.969  21.316  0.00  0.00    +0.000 A 
ATOM     12  C   UNL     1      -6.196  13.220  21.940  0.00  0.00    +0.000 A 
ATOM     13  C   UNL     1      -6.134  13.879  23.168  0.00  0.00    +0.000 A 
ATOM     14  C   UNL     1      -4.900  13.821  23.828  0.00  0.00    +0.000 A 
ATOM     15  C   UNL     1      -4.052  14.979  24.324  0.00  0.00    +0.000 C 
ATOM     16  O   UNL     1      -4.485  16.083  24.611  0.00  0.00    +0.000 OA
ATOM     17  C   UNL     1      -7.401  12.651  21.221  0.00  0.00    +0.000 C 
ATOM     18  C   UNL     1      -7.087  11.878  19.887  0.00  0.00    +0.000 C 
ATOM     19  F   UNL     1      -7.860  12.422  18.900  0.00  0.00    +0.000 F 
ATOM     20  F   UNL     1      -7.498  10.582  19.997  0.00  0.00    +0.000 F 
ATOM     21  C   UNL     1      -5.645  11.851  19.360  0.00  0.00    +0.000 C 
ATOM     22  C   UNL     1      -4.949  13.088  19.827  0.00  0.00    +0.000 C 
ENDBRANCH   5   7
BRANCH   1  23
ATOM     23  C   UNL     1       0.537  13.065  20.445  0.00  0.00    +0.000 C 
ATOM     24  C   UNL     1       0.976  13.459  18.995  0.00  0.00    +0.000 C 
ATOM     25  O   UNL     1       2.349  13.621  19.399  0.00  0.00    +0.000 OA
ATOM     26  C   UNL     1       1.995  13.456  20.788  0.00  0.00    +0.000 C 
BRANCH  23  27
ATOM     27  C   UNL     1       0.274  11.541  20.455  0.00  0.00    +0.000 C 
BRANCH  27  33
ATOM     28  C   UNL     1       1.072   9.567  18.062  0.00  0.00    +0.000 C 
ATOM     29  N   UNL     1      -0.214  10.144  18.348  0.00  0.00    +0.000 N 
ATOM     30  C   UNL     1      -1.310  10.014  17.547  0.00  0.00    +0.000 A 
ATOM     31  N   UNL     1      -2.315  10.671  18.069  0.00  0.00    +0.000 NA
ATOM     32  N   UNL     1      -1.859  11.270  19.211  0.00  0.00    +0.000 NA
ATOM     33  C   UNL     1      -0.596  10.947  19.398  0.00  0.00    +0.000 A 
ENDBRANCH  27  33
ENDBRANCH  23  27
ENDBRANCH   1  23
TORSDOF 4
ENDMDL
