MODEL 1
REMARK VINA RESULT:      -9.4      0.000      0.000
REMARK  Name = 
REMARK  5 active torsions:
REMARK  status: ('A' for Active; 'I' for Inactive)
REMARK    1  A    between atoms: C_1  and  C_2
REMARK    2  A    between atoms: C_2  and  C_3
REMARK    3  A    between atoms: C_7  and  C_8
REMARK    4  A    between atoms: C_11  and  C_12
REMARK    5  A    between atoms: C_14  and  C_15
REMARK                            x       y       z     vdW  Elec       q    Type
REMARK                         _______ _______ _______ _____ _____    ______ ____
ROOT
ATOM      1  C   UNL     1       5.090   5.802  17.276  0.00  0.00    +0.000 A 
ATOM      2  C   UNL     1       4.414   4.597  17.519  0.00  0.00    +0.000 A 
ATOM      3  C   UNL     1       3.087   4.591  17.957  0.00  0.00    +0.000 A 
ATOM      4  C   UNL     1       2.409   5.794  18.159  0.00  0.00    +0.000 A 
ATOM      5  C   UNL     1       3.042   7.011  17.897  0.00  0.00    +0.000 A 
ATOM      6  C   UNL     1       4.366   6.999  17.428  0.00  0.00    +0.000 A 
ENDROOT
BRANCH   1   8
ATOM      7  C   UNL     1       6.867   4.929  15.696  0.00  0.00    +0.000 C 
ATOM      8  C   UNL     1       6.570   5.826  16.891  0.00  0.00    +0.000 C 
ATOM      9  N   UNL     1       7.041   7.184  16.672  0.00  0.00    +0.000 N 
ATOM     10  C   UNL     1       7.762   7.669  17.733  0.00  0.00    +0.000 C 
ATOM     11  O   UNL     1       8.143   8.819  17.849  0.00  0.00    +0.000 OA
ATOM     12  N   UNL     1       8.004   6.654  18.589  0.00  0.00    +0.000 N 
ATOM     13  C   UNL     1       7.486   5.497  18.104  0.00  0.00    +0.000 C 
ATOM     14  O   UNL     1       7.688   4.391  18.589  0.00  0.00    +0.000 OA
ATOM     15  H   UNL     1       6.704   7.818  15.958  0.00  0.00    +0.000 HD
ATOM     16  H   UNL     1       8.597   6.728  19.396  0.00  0.00    +0.000 HD
ENDBRANCH   1   8
BRANCH   5  17
ATOM     17  C   UNL     1       2.396   8.287  18.184  0.00  0.00    +0.000 A 
ATOM     18  N   UNL     1       2.207   9.265  17.285  0.00  0.00    +0.000 NA
ATOM     19  O   UNL     1       1.433  10.200  17.973  0.00  0.00    +0.000 OA
ATOM     20  C   UNL     1       1.244   9.705  19.232  0.00  0.00    +0.000 A 
ATOM     21  N   UNL     1       1.837   8.550  19.417  0.00  0.00    +0.000 NA
BRANCH  20  22
ATOM     22  C   UNL     1       0.408  10.358  20.321  0.00  0.00    +0.000 C 
ATOM     23  C   UNL     1      -0.754   9.569  20.883  0.00  0.00    +0.000 C 
ATOM     24  C   UNL     1      -1.026  10.808  20.086  0.00  0.00    +0.000 C 
BRANCH  24  25
ATOM     25  C   UNL     1      -1.680  10.740  18.726  0.00  0.00    +0.000 A 
ATOM     26  C   UNL     1      -2.386   9.601  18.296  0.00  0.00    +0.000 A 
ATOM     27  C   UNL     1      -3.002   9.555  17.044  0.00  0.00    +0.000 A 
ATOM     28  C   UNL     1      -2.931  10.659  16.207  0.00  0.00    +0.000 A 
ATOM     29  F   UNL     1      -3.529  10.620  15.009  0.00  0.00    +0.000 F 
ATOM     30  C   UNL     1      -2.256  11.805  16.601  0.00  0.00    +0.000 A 
ATOM     31  C   UNL     1      -1.636  11.842  17.853  0.00  0.00    +0.000 A 
ENDBRANCH  24  25
ENDBRANCH  20  22
ENDBRANCH   5  17
TORSDOF 4
ENDMDL
MODEL 2
REMARK VINA RESULT:      -9.4      1.850      2.258
REMARK  Name = 
REMARK  5 active torsions:
REMARK  status: ('A' for Active; 'I' for Inactive)
REMARK    1  A    between atoms: C_1  and  C_2
REMARK    2  A    between atoms: C_2  and  C_3
REMARK    3  A    between atoms: C_7  and  C_8
REMARK    4  A    between atoms: C_11  and  C_12
REMARK    5  A    between atoms: C_14  and  C_15
REMARK                            x       y       z     vdW  Elec       q    Type
REMARK                         _______ _______ _______ _____ _____    ______ ____
ROOT
ATOM      1  C   UNL     1       5.053   5.443  17.089  0.00  0.00    +0.000 A 
ATOM      2  C   UNL     1       4.395   4.211  16.955  0.00  0.00    +0.000 A 
ATOM      3  C   UNL     1       3.080   4.045  17.398  0.00  0.00    +0.000 A 
ATOM      4  C   UNL     1       2.396   5.110  17.983  0.00  0.00    +0.000 A 
ATOM      5  C   UNL     1       3.009   6.360  18.103  0.00  0.00    +0.000 A 
ATOM      6  C   UNL     1       4.320   6.519  17.625  0.00  0.00    +0.000 A 
ENDROOT
BRANCH   1   8
ATOM      7  C   UNL     1       6.895   4.767  15.488  0.00  0.00    +0.000 C 
ATOM      8  C   UNL     1       6.522   5.613  16.698  0.00  0.00    +0.000 C 
ATOM      9  N   UNL     1       6.861   7.013  16.500  0.00  0.00    +0.000 N 
ATOM     10  C   UNL     1       7.539   7.547  17.566  0.00  0.00    +0.000 C 
ATOM     11  O   UNL     1       7.809   8.726  17.699  0.00  0.00    +0.000 OA
ATOM     12  N   UNL     1       7.880   6.546  18.404  0.00  0.00    +0.000 N 
ATOM     13  C   UNL     1       7.471   5.353  17.902  0.00  0.00    +0.000 C 
ATOM     14  O   UNL     1       7.780   4.263  18.368  0.00  0.00    +0.000 OA
ATOM     15  H   UNL     1       6.462   7.623  15.798  0.00  0.00    +0.000 HD
ATOM     16  H   UNL     1       8.468   6.663  19.210  0.00  0.00    +0.000 HD
ENDBRANCH   1   8
BRANCH   5  17
ATOM     17  C   UNL     1       2.359   7.469  18.791  0.00  0.00    +0.000 A 
ATOM     18  N   UNL     1       1.811   8.530  18.178  0.00  0.00    +0.000 NA
ATOM     19  O   UNL     1       1.194   9.227  19.217  0.00  0.00    +0.000 OA
ATOM     20  C   UNL     1       1.446   8.530  20.364  0.00  0.00    +0.000 A 
ATOM     21  N   UNL     1       2.177   7.462  20.158  0.00  0.00    +0.000 NA
BRANCH  20  22
ATOM     22  C   UNL     1       0.919   8.884  21.746  0.00  0.00    +0.000 C 
ATOM     23  C   UNL     1      -0.580   8.883  21.948  0.00  0.00    +0.000 C 
ATOM     24  C   UNL     1       0.170  10.179  22.024  0.00  0.00    +0.000 C 
BRANCH  24  25
ATOM     25  C   UNL     1      -0.006  11.251  20.974  0.00  0.00    +0.000 A 
ATOM     26  C   UNL     1      -1.168  11.337  20.186  0.00  0.00    +0.000 A 
ATOM     27  C   UNL     1      -1.327  12.343  19.231  0.00  0.00    +0.000 A 
ATOM     28  C   UNL     1      -0.326  13.288  19.060  0.00  0.00    +0.000 A 
ATOM     29  F   UNL     1      -0.481  14.259  18.151  0.00  0.00    +0.000 F 
ATOM     30  C   UNL     1       0.828  13.244  19.828  0.00  0.00    +0.000 A 
ATOM     31  C   UNL     1       0.985  12.231  20.778  0.00  0.00    +0.000 A 
ENDBRANCH  24  25
ENDBRANCH  20  22
ENDBRANCH   5  17
TORSDOF 4
ENDMDL
MODEL 3
REMARK VINA RESULT:      -9.4      2.718      3.979
REMARK  Name = 
REMARK  5 active torsions:
REMARK  status: ('A' for Active; 'I' for Inactive)
REMARK    1  A    between atoms: C_1  and  C_2
REMARK    2  A    between atoms: C_2  and  C_3
REMARK    3  A    between atoms: C_7  and  C_8
REMARK    4  A    between atoms: C_11  and  C_12
REMARK    5  A    between atoms: C_14  and  C_15
REMARK                            x       y       z     vdW  Elec       q    Type
REMARK                         _______ _______ _______ _____ _____    ______ ____
ROOT
ATOM      1  C   UNL     1       3.346   4.075  18.341  0.00  0.00    +0.000 A 
ATOM      2  C   UNL     1       4.325   4.027  17.337  0.00  0.00    +0.000 A 
ATOM      3  C   UNL     1       4.746   5.190  16.685  0.00  0.00    +0.000 A 
ATOM      4  C   UNL     1       4.195   6.425  17.028  0.00  0.00    +0.000 A 
ATOM      5  C   UNL     1       3.242   6.513  18.045  0.00  0.00    +0.000 A 
ATOM      6  C   UNL     1       2.852   5.340  18.711  0.00  0.00    +0.000 A 
ENDROOT
BRANCH   1   8
ATOM      7  C   UNL     1       3.267   1.545  18.269  0.00  0.00    +0.000 C 
ATOM      8  C   UNL     1       2.807   2.802  18.995  0.00  0.00    +0.000 C 
ATOM      9  N   UNL     1       3.130   2.753  20.412  0.00  0.00    +0.000 N 
ATOM     10  C   UNL     1       2.064   3.087  21.207  0.00  0.00    +0.000 C 
ATOM     11  O   UNL     1       2.119   3.253  22.411  0.00  0.00    +0.000 OA
ATOM     12  N   UNL     1       0.958   3.157  20.437  0.00  0.00    +0.000 N 
ATOM     13  C   UNL     1       1.260   2.847  19.151  0.00  0.00    +0.000 C 
ATOM     14  O   UNL     1       0.430   2.676  18.267  0.00  0.00    +0.000 OA
ATOM     15  H   UNL     1       4.063   2.722  20.803  0.00  0.00    +0.000 HD
ATOM     16  H   UNL     1       0.030   3.289  20.797  0.00  0.00    +0.000 HD
ENDBRANCH   1   8
BRANCH   5  17
ATOM     17  C   UNL     1       2.579   7.772  18.366  0.00  0.00    +0.000 A 
ATOM     18  N   UNL     1       2.287   8.730  17.473  0.00  0.00    +0.000 NA
ATOM     19  O   UNL     1       1.539   9.650  18.209  0.00  0.00    +0.000 OA
ATOM     20  C   UNL     1       1.468   9.168  19.486  0.00  0.00    +0.000 A 
ATOM     21  N   UNL     1       2.111   8.036  19.637  0.00  0.00    +0.000 NA
BRANCH  20  22
ATOM     22  C   UNL     1       0.699   9.810  20.629  0.00  0.00    +0.000 C 
ATOM     23  C   UNL     1      -0.573   9.134  21.088  0.00  0.00    +0.000 C 
ATOM     24  C   UNL     1      -0.654  10.477  20.428  0.00  0.00    +0.000 C 
BRANCH  24  25
ATOM     25  C   UNL     1      -1.275  10.644  19.060  0.00  0.00    +0.000 A 
ATOM     26  C   UNL     1      -2.021   9.618  18.452  0.00  0.00    +0.000 A 
ATOM     27  C   UNL     1      -2.606   9.790  17.196  0.00  0.00    +0.000 A 
ATOM     28  C   UNL     1      -2.462  11.001  16.535  0.00  0.00    +0.000 A 
ATOM     29  F   UNL     1      -3.030  11.172  15.333  0.00  0.00    +0.000 F 
ATOM     30  C   UNL     1      -1.744  12.041  17.109  0.00  0.00    +0.000 A 
ATOM     31  C   UNL     1      -1.156  11.861  18.364  0.00  0.00    +0.000 A 
ENDBRANCH  24  25
ENDBRANCH  20  22
ENDBRANCH   5  17
TORSDOF 4
ENDMDL
MODEL 4
REMARK VINA RESULT:      -9.3      3.604      8.609
REMARK  Name = 
REMARK  5 active torsions:
REMARK  status: ('A' for Active; 'I' for Inactive)
REMARK    1  A    between atoms: C_1  and  C_2
REMARK    2  A    between atoms: C_2  and  C_3
REMARK    3  A    between atoms: C_7  and  C_8
REMARK    4  A    between atoms: C_11  and  C_12
REMARK    5  A    between atoms: C_14  and  C_15
REMARK                            x       y       z     vdW  Elec       q    Type
REMARK                         _______ _______ _______ _____ _____    ______ ____
ROOT
ATOM      1  C   UNL     1       0.583  10.161  19.893  0.00  0.00    +0.000 A 
ATOM      2  C   UNL     1       0.403  10.408  21.262  0.00  0.00    +0.000 A 
ATOM      3  C   UNL     1       0.796   9.470  22.221  0.00  0.00    +0.000 A 
ATOM      4  C   UNL     1       1.380   8.265  21.827  0.00  0.00    +0.000 A 
ATOM      5  C   UNL     1       1.603   8.001  20.473  0.00  0.00    +0.000 A 
ATOM      6  C   UNL     1       1.230   8.966  19.524  0.00  0.00    +0.000 A 
ENDROOT
BRANCH   1   8
ATOM      7  C   UNL     1       1.068  12.248  18.542  0.00  0.00    +0.000 C 
ATOM      8  C   UNL     1       0.071  11.134  18.829  0.00  0.00    +0.000 C 
ATOM      9  N   UNL     1      -0.321  10.437  17.615  0.00  0.00    +0.000 N 
ATOM     10  C   UNL     1      -1.680  10.291  17.506  0.00  0.00    +0.000 C 
ATOM     11  O   UNL     1      -2.243   9.626  16.656  0.00  0.00    +0.000 OA
ATOM     12  N   UNL     1      -2.271  11.032  18.466  0.00  0.00    +0.000 N 
ATOM     13  C   UNL     1      -1.334  11.694  19.193  0.00  0.00    +0.000 C 
ATOM     14  O   UNL     1      -1.585  12.558  20.023  0.00  0.00    +0.000 OA
ATOM     15  H   UNL     1       0.295   9.898  17.020  0.00  0.00    +0.000 HD
ATOM     16  H   UNL     1      -3.263  11.172  18.538  0.00  0.00    +0.000 HD
ENDBRANCH   1   8
BRANCH   5  17
ATOM     17  C   UNL     1       2.126   6.717  20.020  0.00  0.00    +0.000 A 
ATOM     18  N   UNL     1       2.289   5.641  20.804  0.00  0.00    +0.000 NA
ATOM     19  O   UNL     1       2.663   4.636  19.911  0.00  0.00    +0.000 OA
ATOM     20  C   UNL     1       2.709   5.208  18.671  0.00  0.00    +0.000 A 
ATOM     21  N   UNL     1       2.414   6.485  18.691  0.00  0.00    +0.000 NA
BRANCH  20  22
ATOM     22  C   UNL     1       3.014   4.478  17.373  0.00  0.00    +0.000 C 
ATOM     23  C   UNL     1       3.898   3.253  17.448  0.00  0.00    +0.000 C 
ATOM     24  C   UNL     1       4.402   4.478  16.747  0.00  0.00    +0.000 C 
BRANCH  24  25
ATOM     25  C   UNL     1       5.541   5.293  17.312  0.00  0.00    +0.000 A 
ATOM     26  C   UNL     1       6.385   4.793  18.321  0.00  0.00    +0.000 A 
ATOM     27  C   UNL     1       7.446   5.548  18.823  0.00  0.00    +0.000 A 
ATOM     28  C   UNL     1       7.688   6.814  18.310  0.00  0.00    +0.000 A 
ATOM     29  F   UNL     1       8.712   7.537  18.783  0.00  0.00    +0.000 F 
ATOM     30  C   UNL     1       6.886   7.336  17.305  0.00  0.00    +0.000 A 
ATOM     31  C   UNL     1       5.821   6.578  16.811  0.00  0.00    +0.000 A 
ENDBRANCH  24  25
ENDBRANCH  20  22
ENDBRANCH   5  17
TORSDOF 4
ENDMDL
MODEL 5
REMARK VINA RESULT:      -9.2      1.495      2.333
REMARK  Name = 
REMARK  5 active torsions:
REMARK  status: ('A' for Active; 'I' for Inactive)
REMARK    1  A    between atoms: C_1  and  C_2
REMARK    2  A    between atoms: C_2  and  C_3
REMARK    3  A    between atoms: C_7  and  C_8
REMARK    4  A    between atoms: C_11  and  C_12
REMARK    5  A    between atoms: C_14  and  C_15
REMARK                            x       y       z     vdW  Elec       q    Type
REMARK                         _______ _______ _______ _____ _____    ______ ____
ROOT
ATOM      1  C   UNL     1       4.655   4.948  17.408  0.00  0.00    +0.000 A 
ATOM      2  C   UNL     1       3.824   3.848  17.669  0.00  0.00    +0.000 A 
ATOM      3  C   UNL     1       2.522   4.027  18.147  0.00  0.00    +0.000 A 
ATOM      4  C   UNL     1       2.026   5.311  18.371  0.00  0.00    +0.000 A 
ATOM      5  C   UNL     1       2.816   6.430  18.091  0.00  0.00    +0.000 A 
ATOM      6  C   UNL     1       4.111   6.234  17.583  0.00  0.00    +0.000 A 
ENDROOT
BRANCH   1   8
ATOM      7  C   UNL     1       7.033   4.516  18.164  0.00  0.00    +0.000 C 
ATOM      8  C   UNL     1       6.111   4.765  16.978  0.00  0.00    +0.000 C 
ATOM      9  N   UNL     1       6.241   3.726  15.969  0.00  0.00    +0.000 N 
ATOM     10  C   UNL     1       6.391   4.236  14.704  0.00  0.00    +0.000 C 
ATOM     11  O   UNL     1       6.381   3.576  13.682  0.00  0.00    +0.000 OA
ATOM     12  N   UNL     1       6.588   5.567  14.797  0.00  0.00    +0.000 N 
ATOM     13  C   UNL     1       6.604   5.951  16.100  0.00  0.00    +0.000 C 
ATOM     14  O   UNL     1       6.919   7.068  16.489  0.00  0.00    +0.000 OA
ATOM     15  H   UNL     1       6.013   2.748  16.096  0.00  0.00    +0.000 HD
ATOM     16  H   UNL     1       6.822   6.157  14.019  0.00  0.00    +0.000 HD
ENDBRANCH   1   8
BRANCH   5  17
ATOM     17  C   UNL     1       2.366   7.782  18.399  0.00  0.00    +0.000 A 
ATOM     18  N   UNL     1       2.282   8.779  17.506  0.00  0.00    +0.000 NA
ATOM     19  O   UNL     1       1.671   9.811  18.220  0.00  0.00    +0.000 OA
ATOM     20  C   UNL     1       1.461   9.343  19.486  0.00  0.00    +0.000 A 
ATOM     21  N   UNL     1       1.894   8.116  19.652  0.00  0.00    +0.000 NA
BRANCH  20  22
ATOM     22  C   UNL     1       0.765  10.103  20.604  0.00  0.00    +0.000 C 
ATOM     23  C   UNL     1      -0.494   9.498  21.184  0.00  0.00    +0.000 C 
ATOM     24  C   UNL     1      -0.585  10.778  20.410  0.00  0.00    +0.000 C 
BRANCH  24  25
ATOM     25  C   UNL     1      -1.273  10.836  19.066  0.00  0.00    +0.000 A 
ATOM     26  C   UNL     1      -1.187  11.968  18.235  0.00  0.00    +0.000 A 
ATOM     27  C   UNL     1      -1.811  12.003  16.987  0.00  0.00    +0.000 A 
ATOM     28  C   UNL     1      -2.521  10.896  16.545  0.00  0.00    +0.000 A 
ATOM     29  F   UNL     1      -3.113  10.925  15.344  0.00  0.00    +0.000 F 
ATOM     30  C   UNL     1      -2.617   9.757  17.331  0.00  0.00    +0.000 A 
ATOM     31  C   UNL     1      -1.995   9.729  18.582  0.00  0.00    +0.000 A 
ENDBRANCH  24  25
ENDBRANCH  20  22
ENDBRANCH   5  17
TORSDOF 4
ENDMDL
MODEL 6
REMARK VINA RESULT:      -9.1      2.316      3.030
REMARK  Name = 
REMARK  5 active torsions:
REMARK  status: ('A' for Active; 'I' for Inactive)
REMARK    1  A    between atoms: C_1  and  C_2
REMARK    2  A    between atoms: C_2  and  C_3
REMARK    3  A    between atoms: C_7  and  C_8
REMARK    4  A    between atoms: C_11  and  C_12
REMARK    5  A    between atoms: C_14  and  C_15
REMARK                            x       y       z     vdW  Elec       q    Type
REMARK                         _______ _______ _______ _____ _____    ______ ____
ROOT
ATOM      1  C   UNL     1       5.024   5.788  17.199  0.00  0.00    +0.000 A 
ATOM      2  C   UNL     1       4.368   4.556  17.338  0.00  0.00    +0.000 A 
ATOM      3  C   UNL     1       3.044   4.491  17.783  0.00  0.00    +0.000 A 
ATOM      4  C   UNL     1       2.351   5.660  18.096  0.00  0.00    +0.000 A 
ATOM      5  C   UNL     1       2.964   6.906  17.939  0.00  0.00    +0.000 A 
ATOM      6  C   UNL     1       4.284   6.956  17.462  0.00  0.00    +0.000 A 
ENDROOT
BRANCH   1   8
ATOM      7  C   UNL     1       6.810   5.043  15.564  0.00  0.00    +0.000 C 
ATOM      8  C   UNL     1       6.501   5.868  16.807  0.00  0.00    +0.000 C 
ATOM      9  N   UNL     1       6.937   7.247  16.658  0.00  0.00    +0.000 N 
ATOM     10  C   UNL     1       7.655   7.692  17.740  0.00  0.00    +0.000 C 
ATOM     11  O   UNL     1       8.008   8.843  17.915  0.00  0.00    +0.000 OA
ATOM     12  N   UNL     1       7.926   6.639  18.539  0.00  0.00    +0.000 N 
ATOM     13  C   UNL     1       7.432   5.497  17.996  0.00  0.00    +0.000 C 
ATOM     14  O   UNL     1       7.665   4.372  18.419  0.00  0.00    +0.000 OA
ATOM     15  H   UNL     1       6.581   7.910  15.982  0.00  0.00    +0.000 HD
ATOM     16  H   UNL     1       8.523   6.684  19.345  0.00  0.00    +0.000 HD
ENDBRANCH   1   8
BRANCH   5  17
ATOM     17  C   UNL     1       2.303   8.142  18.343  0.00  0.00    +0.000 A 
ATOM     18  N   UNL     1       2.063   9.180  17.528  0.00  0.00    +0.000 NA
ATOM     19  O   UNL     1       1.294  10.042  18.310  0.00  0.00    +0.000 OA
ATOM     20  C   UNL     1       1.158   9.449  19.533  0.00  0.00    +0.000 A 
ATOM     21  N   UNL     1       1.780   8.297  19.610  0.00  0.00    +0.000 NA
BRANCH  20  22
ATOM     22  C   UNL     1       0.346   9.998  20.695  0.00  0.00    +0.000 C 
ATOM     23  C   UNL     1      -0.940  10.726  20.371  0.00  0.00    +0.000 C 
ATOM     24  C   UNL     1       0.207  11.491  20.957  0.00  0.00    +0.000 C 
BRANCH  24  25
ATOM     25  C   UNL     1       0.957  12.525  20.149  0.00  0.00    +0.000 A 
ATOM     26  C   UNL     1       0.389  13.138  19.018  0.00  0.00    +0.000 A 
ATOM     27  C   UNL     1       1.084  14.106  18.289  0.00  0.00    +0.000 A 
ATOM     28  C   UNL     1       2.356  14.484  18.693  0.00  0.00    +0.000 A 
ATOM     29  F   UNL     1       3.020  15.418  18.001  0.00  0.00    +0.000 F 
ATOM     30  C   UNL     1       2.943  13.910  19.812  0.00  0.00    +0.000 A 
ATOM     31  C   UNL     1       2.245  12.938  20.534  0.00  0.00    +0.000 A 
ENDBRANCH  24  25
ENDBRANCH  20  22
ENDBRANCH   5  17
TORSDOF 4
ENDMDL
MODEL 7
REMARK VINA RESULT:      -9.1      2.284      3.107
REMARK  Name = 
REMARK  5 active torsions:
REMARK  status: ('A' for Active; 'I' for Inactive)
REMARK    1  A    between atoms: C_1  and  C_2
REMARK    2  A    between atoms: C_2  and  C_3
REMARK    3  A    between atoms: C_7  and  C_8
REMARK    4  A    between atoms: C_11  and  C_12
REMARK    5  A    between atoms: C_14  and  C_15
REMARK                            x       y       z     vdW  Elec       q    Type
REMARK                         _______ _______ _______ _____ _____    ______ ____
ROOT
ATOM      1  C   UNL     1       4.545   4.732  17.200  0.00  0.00    +0.000 A 
ATOM      2  C   UNL     1       3.675   3.640  17.066  0.00  0.00    +0.000 A 
ATOM      3  C   UNL     1       2.352   3.714  17.512  0.00  0.00    +0.000 A 
ATOM      4  C   UNL     1       1.874   4.884  18.101  0.00  0.00    +0.000 A 
ATOM      5  C   UNL     1       2.705   6.002  18.221  0.00  0.00    +0.000 A 
ATOM      6  C   UNL     1       4.022   5.922  17.741  0.00  0.00    +0.000 A 
ENDROOT
BRANCH   1   8
ATOM      7  C   UNL     1       6.923   4.404  18.010  0.00  0.00    +0.000 C 
ATOM      8  C   UNL     1       6.020   4.634  16.805  0.00  0.00    +0.000 C 
ATOM      9  N   UNL     1       6.229   3.627  15.778  0.00  0.00    +0.000 N 
ATOM     10  C   UNL     1       6.385   4.173  14.529  0.00  0.00    +0.000 C 
ATOM     11  O   UNL     1       6.435   3.537  13.492  0.00  0.00    +0.000 OA
ATOM     12  N   UNL     1       6.511   5.510  14.657  0.00  0.00    +0.000 N 
ATOM     13  C   UNL     1       6.473   5.863  15.967  0.00  0.00    +0.000 C 
ATOM     14  O   UNL     1       6.720   6.986  16.389  0.00  0.00    +0.000 OA
ATOM     15  H   UNL     1       6.049   2.636  15.877  0.00  0.00    +0.000 HD
ATOM     16  H   UNL     1       6.735   6.129  13.898  0.00  0.00    +0.000 HD
ENDBRANCH   1   8
BRANCH   5  17
ATOM     17  C   UNL     1       2.268   7.209  18.913  0.00  0.00    +0.000 A 
ATOM     18  N   UNL     1       1.999   8.377  18.311  0.00  0.00    +0.000 NA
ATOM     19  O   UNL     1       1.485   9.168  19.340  0.00  0.00    +0.000 OA
ATOM     20  C   UNL     1       1.511   8.405  20.473  0.00  0.00    +0.000 A 
ATOM     21  N   UNL     1       2.006   7.209  20.268  0.00  0.00    +0.000 NA
BRANCH  20  22
ATOM     22  C   UNL     1       0.990   8.832  21.836  0.00  0.00    +0.000 C 
ATOM     23  C   UNL     1      -0.507   8.826  22.049  0.00  0.00    +0.000 C 
ATOM     24  C   UNL     1       0.228  10.132  22.045  0.00  0.00    +0.000 C 
BRANCH  24  25
ATOM     25  C   UNL     1       0.032  11.140  20.937  0.00  0.00    +0.000 A 
ATOM     26  C   UNL     1      -1.093  11.108  20.093  0.00  0.00    +0.000 A 
ATOM     27  C   UNL     1      -1.273  12.055  19.083  0.00  0.00    +0.000 A 
ATOM     28  C   UNL     1      -0.331  13.060  18.913  0.00  0.00    +0.000 A 
ATOM     29  F   UNL     1      -0.506  13.975  17.950  0.00  0.00    +0.000 F 
ATOM     30  C   UNL     1       0.785  13.131  19.734  0.00  0.00    +0.000 A 
ATOM     31  C   UNL     1       0.962  12.177  20.739  0.00  0.00    +0.000 A 
ENDBRANCH  24  25
ENDBRANCH  20  22
ENDBRANCH   5  17
TORSDOF 4
ENDMDL
MODEL 8
REMARK VINA RESULT:      -9.1      2.507      3.593
REMARK  Name = 
REMARK  5 active torsions:
REMARK  status: ('A' for Active; 'I' for Inactive)
REMARK    1  A    between atoms: C_1  and  C_2
REMARK    2  A    between atoms: C_2  and  C_3
REMARK    3  A    between atoms: C_7  and  C_8
REMARK    4  A    between atoms: C_11  and  C_12
REMARK    5  A    between atoms: C_14  and  C_15
REMARK                            x       y       z     vdW  Elec       q    Type
REMARK                         _______ _______ _______ _____ _____    ______ ____
ROOT
ATOM      1  C   UNL     1       3.623   4.148  18.035  0.00  0.00    +0.000 A 
ATOM      2  C   UNL     1       4.583   4.194  17.013  0.00  0.00    +0.000 A 
ATOM      3  C   UNL     1       4.947   5.407  16.421  0.00  0.00    +0.000 A 
ATOM      4  C   UNL     1       4.358   6.599  16.843  0.00  0.00    +0.000 A 
ATOM      5  C   UNL     1       3.422   6.593  17.880  0.00  0.00    +0.000 A 
ATOM      6  C   UNL     1       3.090   5.370  18.485  0.00  0.00    +0.000 A 
ENDROOT
BRANCH   1   8
ATOM      7  C   UNL     1       2.293   2.029  17.641  0.00  0.00    +0.000 C 
ATOM      8  C   UNL     1       3.145   2.820  18.625  0.00  0.00    +0.000 C 
ATOM      9  N   UNL     1       4.258   2.031  19.128  0.00  0.00    +0.000 N 
ATOM     10  C   UNL     1       4.371   2.092  20.494  0.00  0.00    +0.000 C 
ATOM     11  O   UNL     1       5.297   1.633  21.137  0.00  0.00    +0.000 OA
ATOM     12  N   UNL     1       3.276   2.704  20.990  0.00  0.00    +0.000 N 
ATOM     13  C   UNL     1       2.420   3.024  19.986  0.00  0.00    +0.000 C 
ATOM     14  O   UNL     1       1.282   3.442  20.153  0.00  0.00    +0.000 OA
ATOM     15  H   UNL     1       5.021   1.666  18.574  0.00  0.00    +0.000 HD
ATOM     16  H   UNL     1       3.072   2.784  21.970  0.00  0.00    +0.000 HD
ENDBRANCH   1   8
BRANCH   5  17
ATOM     17  C   UNL     1       2.719   7.806  18.284  0.00  0.00    +0.000 A 
ATOM     18  N   UNL     1       2.396   8.811  17.457  0.00  0.00    +0.000 NA
ATOM     19  O   UNL     1       1.620   9.655  18.252  0.00  0.00    +0.000 OA
ATOM     20  C   UNL     1       1.564   9.087  19.493  0.00  0.00    +0.000 A 
ATOM     21  N   UNL     1       2.243   7.968  19.569  0.00  0.00    +0.000 NA
BRANCH  20  22
ATOM     22  C   UNL     1       0.776   9.625  20.676  0.00  0.00    +0.000 C 
ATOM     23  C   UNL     1      -0.487   8.893  21.070  0.00  0.00    +0.000 C 
ATOM     24  C   UNL     1      -0.588  10.281  20.515  0.00  0.00    +0.000 C 
BRANCH  24  25
ATOM     25  C   UNL     1      -1.202  10.542  19.159  0.00  0.00    +0.000 A 
ATOM     26  C   UNL     1      -1.942   9.559  18.477  0.00  0.00    +0.000 A 
ATOM     27  C   UNL     1      -2.521   9.817  17.232  0.00  0.00    +0.000 A 
ATOM     28  C   UNL     1      -2.377  11.072  16.658  0.00  0.00    +0.000 A 
ATOM     29  F   UNL     1      -2.939  11.324  15.468  0.00  0.00    +0.000 F 
ATOM     30  C   UNL     1      -1.665  12.070  17.307  0.00  0.00    +0.000 A 
ATOM     31  C   UNL     1      -1.083  11.805  18.550  0.00  0.00    +0.000 A 
ENDBRANCH  24  25
ENDBRANCH  20  22
ENDBRANCH   5  17
TORSDOF 4
ENDMDL
MODEL 9
REMARK VINA RESULT:      -8.9      3.460      4.904
REMARK  Name = 
REMARK  5 active torsions:
REMARK  status: ('A' for Active; 'I' for Inactive)
REMARK    1  A    between atoms: C_1  and  C_2
REMARK    2  A    between atoms: C_2  and  C_3
REMARK    3  A    between atoms: C_7  and  C_8
REMARK    4  A    between atoms: C_11  and  C_12
REMARK    5  A    between atoms: C_14  and  C_15
REMARK                            x       y       z     vdW  Elec       q    Type
REMARK                         _______ _______ _______ _____ _____    ______ ____
ROOT
ATOM      1  C   UNL     1       3.384   4.321  18.319  0.00  0.00    +0.000 A 
ATOM      2  C   UNL     1       4.442   4.353  17.399  0.00  0.00    +0.000 A 
ATOM      3  C   UNL     1       4.855   5.557  16.818  0.00  0.00    +0.000 A 
ATOM      4  C   UNL     1       4.216   6.752  17.150  0.00  0.00    +0.000 A 
ATOM      5  C   UNL     1       3.179   6.759  18.087  0.00  0.00    +0.000 A 
ATOM      6  C   UNL     1       2.797   5.547  18.684  0.00  0.00    +0.000 A 
ENDROOT
BRANCH   1   8
ATOM      7  C   UNL     1       3.348   1.798  18.093  0.00  0.00    +0.000 C 
ATOM      8  C   UNL     1       2.859   3.001  18.888  0.00  0.00    +0.000 C 
ATOM      9  N   UNL     1       3.169   2.872  20.303  0.00  0.00    +0.000 N 
ATOM     10  C   UNL     1       2.089   3.140  21.105  0.00  0.00    +0.000 C 
ATOM     11  O   UNL     1       2.129   3.234  22.318  0.00  0.00    +0.000 OA
ATOM     12  N   UNL     1       0.990   3.239  20.329  0.00  0.00    +0.000 N 
ATOM     13  C   UNL     1       1.310   3.012  19.029  0.00  0.00    +0.000 C 
ATOM     14  O   UNL     1       0.493   2.882  18.127  0.00  0.00    +0.000 OA
ATOM     15  H   UNL     1       4.098   2.832  20.703  0.00  0.00    +0.000 HD
ATOM     16  H   UNL     1       0.056   3.333  20.686  0.00  0.00    +0.000 HD
ENDBRANCH   1   8
BRANCH   5  17
ATOM     17  C   UNL     1       2.429   7.973  18.389  0.00  0.00    +0.000 A 
ATOM     18  N   UNL     1       2.190   8.959  17.512  0.00  0.00    +0.000 NA
ATOM     19  O   UNL     1       1.327   9.812  18.202  0.00  0.00    +0.000 OA
ATOM     20  C   UNL     1       1.142   9.266  19.441  0.00  0.00    +0.000 A 
ATOM     21  N   UNL     1       1.816   8.155  19.612  0.00  0.00    +0.000 NA
BRANCH  20  22
ATOM     22  C   UNL     1       0.227   9.821  20.521  0.00  0.00    +0.000 C 
ATOM     23  C   UNL     1      -1.022  10.548  20.078  0.00  0.00    +0.000 C 
ATOM     24  C   UNL     1       0.067  11.314  20.764  0.00  0.00    +0.000 C 
BRANCH  24  25
ATOM     25  C   UNL     1       0.889  12.345  20.025  0.00  0.00    +0.000 A 
ATOM     26  C   UNL     1       0.441  12.934  18.828  0.00  0.00    +0.000 A 
ATOM     27  C   UNL     1       1.200  13.898  18.163  0.00  0.00    +0.000 A 
ATOM     28  C   UNL     1       2.417  14.297  18.695  0.00  0.00    +0.000 A 
ATOM     29  F   UNL     1       3.143  15.229  18.063  0.00  0.00    +0.000 F 
ATOM     30  C   UNL     1       2.886  13.748  19.880  0.00  0.00    +0.000 A 
ATOM     31  C   UNL     1       2.124  12.779  20.539  0.00  0.00    +0.000 A 
ENDBRANCH  24  25
ENDBRANCH  20  22
ENDBRANCH   5  17
TORSDOF 4
ENDMDL
