MODEL 1
REMARK VINA RESULT:      -8.6      0.000      0.000
REMARK  Name = 
REMARK  2 active torsions:
REMARK  status: ('A' for Active; 'I' for Inactive)
REMARK    1  A    between atoms: C_2  and  C_3
REMARK    2  A    between atoms: C_6  and  N_7
REMARK                            x       y       z     vdW  Elec       q    Type
REMARK                         _______ _______ _______ _____ _____    ______ ____
ROOT
ATOM      1  C   UNL     1       4.622  15.296  19.192  0.00  0.00    +0.000 A 
ATOM      2  C   UNL     1       4.442  14.826  20.499  0.00  0.00    +0.000 A 
ATOM      3  C   UNL     1       3.328  14.039  20.800  0.00  0.00    +0.000 A 
ATOM      4  C   UNL     1       2.320  13.915  19.819  0.00  0.00    +0.000 A 
ATOM      5  C   UNL     1       2.682  14.078  18.477  0.00  0.00    +0.000 A 
ATOM      6  C   UNL     1       3.853  14.770  18.160  0.00  0.00    +0.000 A 
ENDROOT
BRANCH   1   8
ATOM      7  O   UNL     1       5.000  17.606  19.040  0.00  0.00    +0.000 OA
ATOM      8  C   UNL     1       5.509  16.488  18.973  0.00  0.00    +0.000 C 
ATOM      9  N   UNL     1       6.870  16.274  18.625  0.00  0.00    +0.000 N 
ATOM     10  C   UNL     1       7.683  17.467  18.554  0.00  0.00    +0.000 C 
ATOM     11  C   UNL     1       9.207  17.308  18.512  0.00  0.00    +0.000 C 
ATOM     12  C   UNL     1       9.926  16.046  19.012  0.00  0.00    +0.000 C 
ATOM     13  N   UNL     1       9.453  14.718  18.659  0.00  0.00    +0.000 N 
ATOM     14  C   UNL     1       8.285  14.396  18.003  0.00  0.00    +0.000 A 
ATOM     15  C   UNL     1       8.322  13.036  17.785  0.00  0.00    +0.000 A 
ATOM     16  C   UNL     1       9.277  12.486  18.645  0.00  0.00    +0.000 A 
ATOM     17  C   UNL     1       9.517  11.176  19.086  0.00  0.00    +0.000 A 
ATOM     18  C   UNL     1      10.650  10.915  19.847  0.00  0.00    +0.000 A 
ATOM     19  C   UNL     1      11.559  11.936  20.108  0.00  0.00    +0.000 A 
ATOM     20  C   UNL     1      11.297  13.269  19.731  0.00  0.00    +0.000 A 
ATOM     21  C   UNL     1      10.097  13.543  19.052  0.00  0.00    +0.000 A 
ATOM     22  C   UNL     1       7.176  15.283  17.607  0.00  0.00    +0.000 C 
ENDBRANCH   1   8
BRANCH   4  23
ATOM     23  N   UNL     1       0.952  14.302  20.200  0.00  0.00    +0.000 N 
ATOM     24  C   UNL     1       0.463  13.424  21.162  0.00  0.00    +0.000 C 
ATOM     25  O   UNL     1       0.573  13.456  22.366  0.00  0.00    +0.000 OA
ATOM     26  C   UNL     1      -0.315  12.412  20.436  0.00  0.00    +0.000 A 
ATOM     27  C   UNL     1      -0.358  11.042  20.604  0.00  0.00    +0.000 A 
ATOM     28  C   UNL     1      -0.793  10.276  19.517  0.00  0.00    +0.000 A 
ATOM     29  C   UNL     1      -1.226  10.897  18.327  0.00  0.00    +0.000 A 
ATOM     30  C   UNL     1      -1.179  12.282  18.180  0.00  0.00    +0.000 A 
ATOM     31  C   UNL     1      -0.681  13.009  19.239  0.00  0.00    +0.000 A 
ATOM     32  C   UNL     1       0.020  14.298  19.187  0.00  0.00    +0.000 C 
ATOM     33  O   UNL     1      -0.167  15.118  18.302  0.00  0.00    +0.000 OA
ENDBRANCH   4  23
TORSDOF 2
ENDMDL
MODEL 2
REMARK VINA RESULT:      -8.6      6.369      9.303
REMARK  Name = 
REMARK  2 active torsions:
REMARK  status: ('A' for Active; 'I' for Inactive)
REMARK    1  A    between atoms: C_2  and  C_3
REMARK    2  A    between atoms: C_6  and  N_7
REMARK                            x       y       z     vdW  Elec       q    Type
REMARK                         _______ _______ _______ _____ _____    ______ ____
ROOT
ATOM      1  C   UNL     1       1.807   6.272  20.206  0.00  0.00    +0.000 A 
ATOM      2  C   UNL     1       2.097   7.004  19.049  0.00  0.00    +0.000 A 
ATOM      3  C   UNL     1       1.950   8.392  19.057  0.00  0.00    +0.000 A 
ATOM      4  C   UNL     1       1.322   8.985  20.174  0.00  0.00    +0.000 A 
ATOM      5  C   UNL     1       1.380   8.310  21.399  0.00  0.00    +0.000 A 
ATOM      6  C   UNL     1       1.634   6.937  21.415  0.00  0.00    +0.000 A 
ENDROOT
BRANCH   1   8
ATOM      7  O   UNL     1       0.465   4.384  20.579  0.00  0.00    +0.000 OA
ATOM      8  C   UNL     1       1.505   4.807  20.074  0.00  0.00    +0.000 C 
ATOM      9  N   UNL     1       2.461   3.964  19.445  0.00  0.00    +0.000 N 
ATOM     10  C   UNL     1       2.041   2.595  19.247  0.00  0.00    +0.000 C 
ATOM     11  C   UNL     1       2.860   1.713  18.298  0.00  0.00    +0.000 C 
ATOM     12  C   UNL     1       3.772   2.290  17.205  0.00  0.00    +0.000 C 
ATOM     13  N   UNL     1       4.677   3.392  17.481  0.00  0.00    +0.000 N 
ATOM     14  C   UNL     1       4.748   4.145  18.633  0.00  0.00    +0.000 A 
ATOM     15  C   UNL     1       5.827   4.987  18.485  0.00  0.00    +0.000 A 
ATOM     16  C   UNL     1       6.150   5.042  17.126  0.00  0.00    +0.000 A 
ATOM     17  C   UNL     1       6.913   5.939  16.365  0.00  0.00    +0.000 A 
ATOM     18  C   UNL     1       7.172   5.647  15.031  0.00  0.00    +0.000 A 
ATOM     19  C   UNL     1       6.726   4.446  14.487  0.00  0.00    +0.000 A 
ATOM     20  C   UNL     1       5.900   3.568  15.218  0.00  0.00    +0.000 A 
ATOM     21  C   UNL     1       5.557   3.921  16.535  0.00  0.00    +0.000 A 
ATOM     22  C   UNL     1       3.860   4.112  19.810  0.00  0.00    +0.000 C 
ENDBRANCH   1   8
BRANCH   4  23
ATOM     23  N   UNL     1       0.138   9.822  19.922  0.00  0.00    +0.000 N 
ATOM     24  C   UNL     1       0.251  10.439  18.680  0.00  0.00    +0.000 C 
ATOM     25  O   UNL     1      -0.069  10.037  17.585  0.00  0.00    +0.000 OA
ATOM     26  C   UNL     1       0.807  11.774  18.933  0.00  0.00    +0.000 A 
ATOM     27  C   UNL     1       1.786  12.469  18.252  0.00  0.00    +0.000 A 
ATOM     28  C   UNL     1       2.454  13.484  18.947  0.00  0.00    +0.000 A 
ATOM     29  C   UNL     1       2.085  13.814  20.267  0.00  0.00    +0.000 A 
ATOM     30  C   UNL     1       1.089  13.104  20.935  0.00  0.00    +0.000 A 
ATOM     31  C   UNL     1       0.497  12.063  20.254  0.00  0.00    +0.000 A 
ATOM     32  C   UNL     1      -0.084  10.840  20.821  0.00  0.00    +0.000 C 
ATOM     33  O   UNL     1      -0.558  10.792  21.945  0.00  0.00    +0.000 OA
ENDBRANCH   4  23
TORSDOF 2
ENDMDL
MODEL 3
REMARK VINA RESULT:      -8.5      5.732      9.186
REMARK  Name = 
REMARK  2 active torsions:
REMARK  status: ('A' for Active; 'I' for Inactive)
REMARK    1  A    between atoms: C_2  and  C_3
REMARK    2  A    between atoms: C_6  and  N_7
REMARK                            x       y       z     vdW  Elec       q    Type
REMARK                         _______ _______ _______ _____ _____    ______ ____
ROOT
ATOM      1  C   UNL     1       1.963   7.801  19.692  0.00  0.00    +0.000 A 
ATOM      2  C   UNL     1       2.950   6.974  20.244  0.00  0.00    +0.000 A 
ATOM      3  C   UNL     1       3.716   6.163  19.405  0.00  0.00    +0.000 A 
ATOM      4  C   UNL     1       3.330   6.058  18.051  0.00  0.00    +0.000 A 
ATOM      5  C   UNL     1       2.614   7.120  17.485  0.00  0.00    +0.000 A 
ATOM      6  C   UNL     1       1.929   8.008  18.318  0.00  0.00    +0.000 A 
ENDROOT
BRANCH   1   8
ATOM      7  O   UNL     1       0.245   7.460  21.253  0.00  0.00    +0.000 OA
ATOM      8  C   UNL     1       0.856   8.291  20.581  0.00  0.00    +0.000 C 
ATOM      9  N   UNL     1       0.512   9.669  20.551  0.00  0.00    +0.000 N 
ATOM     10  C   UNL     1      -0.475  10.080  21.524  0.00  0.00    +0.000 C 
ATOM     11  C   UNL     1      -0.662  11.579  21.783  0.00  0.00    +0.000 C 
ATOM     12  C   UNL     1       0.420  12.620  21.459  0.00  0.00    +0.000 C 
ATOM     13  N   UNL     1       1.132  12.599  20.193  0.00  0.00    +0.000 N 
ATOM     14  C   UNL     1       1.073  11.626  19.219  0.00  0.00    +0.000 A 
ATOM     15  C   UNL     1       1.817  12.091  18.157  0.00  0.00    +0.000 A 
ATOM     16  C   UNL     1       2.644  13.117  18.624  0.00  0.00    +0.000 A 
ATOM     17  C   UNL     1       3.796  13.722  18.101  0.00  0.00    +0.000 A 
ATOM     18  C   UNL     1       4.327  14.835  18.743  0.00  0.00    +0.000 A 
ATOM     19  C   UNL     1       3.678  15.370  19.851  0.00  0.00    +0.000 A 
ATOM     20  C   UNL     1       2.559  14.733  20.428  0.00  0.00    +0.000 A 
ATOM     21  C   UNL     1       2.090  13.548  19.834  0.00  0.00    +0.000 A 
ATOM     22  C   UNL     1       0.384  10.323  19.259  0.00  0.00    +0.000 C 
ENDBRANCH   1   8
BRANCH   4  23
ATOM     23  N   UNL     1       3.065   4.711  17.523  0.00  0.00    +0.000 N 
ATOM     24  C   UNL     1       1.742   4.358  17.768  0.00  0.00    +0.000 C 
ATOM     25  O   UNL     1       0.749   4.573  17.111  0.00  0.00    +0.000 OA
ATOM     26  C   UNL     1       1.750   3.575  19.010  0.00  0.00    +0.000 A 
ATOM     27  C   UNL     1       0.891   3.621  20.090  0.00  0.00    +0.000 A 
ATOM     28  C   UNL     1       1.369   3.134  21.312  0.00  0.00    +0.000 A 
ATOM     29  C   UNL     1       2.655   2.563  21.404  0.00  0.00    +0.000 A 
ATOM     30  C   UNL     1       3.505   2.521  20.300  0.00  0.00    +0.000 A 
ATOM     31  C   UNL     1       3.037   3.072  19.127  0.00  0.00    +0.000 A 
ATOM     32  C   UNL     1       3.824   3.694  18.055  0.00  0.00    +0.000 C 
ATOM     33  O   UNL     1       4.981   3.384  17.819  0.00  0.00    +0.000 OA
ENDBRANCH   4  23
TORSDOF 2
ENDMDL
MODEL 4
REMARK VINA RESULT:      -8.3      2.060      3.234
REMARK  Name = 
REMARK  2 active torsions:
REMARK  status: ('A' for Active; 'I' for Inactive)
REMARK    1  A    between atoms: C_2  and  C_3
REMARK    2  A    between atoms: C_6  and  N_7
REMARK                            x       y       z     vdW  Elec       q    Type
REMARK                         _______ _______ _______ _____ _____    ______ ____
ROOT
ATOM      1  C   UNL     1       1.939  14.847  19.509  0.00  0.00    +0.000 A 
ATOM      2  C   UNL     1       2.534  13.579  19.512  0.00  0.00    +0.000 A 
ATOM      3  C   UNL     1       1.788  12.467  19.118  0.00  0.00    +0.000 A 
ATOM      4  C   UNL     1       0.399  12.636  18.923  0.00  0.00    +0.000 A 
ATOM      5  C   UNL     1      -0.068  13.912  18.584  0.00  0.00    +0.000 A 
ATOM      6  C   UNL     1       0.717  15.030  18.873  0.00  0.00    +0.000 A 
ENDROOT
BRANCH   1   8
ATOM      7  O   UNL     1       1.810  16.547  21.119  0.00  0.00    +0.000 OA
ATOM      8  C   UNL     1       2.549  15.929  20.352  0.00  0.00    +0.000 C 
ATOM      9  N   UNL     1       3.923  16.244  20.176  0.00  0.00    +0.000 N 
ATOM     10  C   UNL     1       4.460  17.207  21.110  0.00  0.00    +0.000 C 
ATOM     11  C   UNL     1       5.982  17.358  21.206  0.00  0.00    +0.000 C 
ATOM     12  C   UNL     1       6.957  16.260  20.755  0.00  0.00    +0.000 C 
ATOM     13  N   UNL     1       6.781  15.567  19.490  0.00  0.00    +0.000 N 
ATOM     14  C   UNL     1       5.709  15.662  18.630  0.00  0.00    +0.000 A 
ATOM     15  C   UNL     1       6.037  14.924  17.514  0.00  0.00    +0.000 A 
ATOM     16  C   UNL     1       7.090  14.069  17.854  0.00  0.00    +0.000 A 
ATOM     17  C   UNL     1       7.607  12.912  17.253  0.00  0.00    +0.000 A 
ATOM     18  C   UNL     1       8.771  12.348  17.762  0.00  0.00    +0.000 A 
ATOM     19  C   UNL     1       9.439  12.969  18.813  0.00  0.00    +0.000 A 
ATOM     20  C   UNL     1       8.895  14.091  19.471  0.00  0.00    +0.000 A 
ATOM     21  C   UNL     1       7.663  14.594  19.017  0.00  0.00    +0.000 A 
ATOM     22  C   UNL     1       4.434  16.377  18.822  0.00  0.00    +0.000 C 
ENDBRANCH   1   8
BRANCH   4  23
ATOM     23  N   UNL     1      -0.505  11.771  19.696  0.00  0.00    +0.000 N 
ATOM     24  C   UNL     1      -0.457  10.472  19.199  0.00  0.00    +0.000 C 
ATOM     25  O   UNL     1       0.294   9.565  19.476  0.00  0.00    +0.000 OA
ATOM     26  C   UNL     1      -1.579  10.350  18.260  0.00  0.00    +0.000 A 
ATOM     27  C   UNL     1      -1.630   9.758  17.014  0.00  0.00    +0.000 A 
ATOM     28  C   UNL     1      -2.644  10.177  16.145  0.00  0.00    +0.000 A 
ATOM     29  C   UNL     1      -3.607  11.119  16.565  0.00  0.00    +0.000 A 
ATOM     30  C   UNL     1      -3.541  11.700  17.830  0.00  0.00    +0.000 A 
ATOM     31  C   UNL     1      -2.492  11.323  18.640  0.00  0.00    +0.000 A 
ATOM     32  C   UNL     1      -1.836  12.123  19.682  0.00  0.00    +0.000 C 
ATOM     33  O   UNL     1      -2.411  13.004  20.300  0.00  0.00    +0.000 OA
ENDBRANCH   4  23
TORSDOF 2
ENDMDL
MODEL 5
REMARK VINA RESULT:      -8.2      5.280      8.413
REMARK  Name = 
REMARK  2 active torsions:
REMARK  status: ('A' for Active; 'I' for Inactive)
REMARK    1  A    between atoms: C_2  and  C_3
REMARK    2  A    between atoms: C_6  and  N_7
REMARK                            x       y       z     vdW  Elec       q    Type
REMARK                         _______ _______ _______ _____ _____    ______ ____
ROOT
ATOM      1  C   UNL     1       1.002   9.207  18.723  0.00  0.00    +0.000 A 
ATOM      2  C   UNL     1       0.954   9.026  20.111  0.00  0.00    +0.000 A 
ATOM      3  C   UNL     1      -0.122   9.543  20.836  0.00  0.00    +0.000 A 
ATOM      4  C   UNL     1      -1.020  10.402  20.167  0.00  0.00    +0.000 A 
ATOM      5  C   UNL     1      -1.149  10.270  18.779  0.00  0.00    +0.000 A 
ATOM      6  C   UNL     1      -0.128   9.657  18.049  0.00  0.00    +0.000 A 
ENDROOT
BRANCH   1   8
ATOM      7  O   UNL     1       2.825  10.111  17.556  0.00  0.00    +0.000 OA
ATOM      8  C   UNL     1       2.327   9.089  18.028  0.00  0.00    +0.000 C 
ATOM      9  N   UNL     1       2.910   7.802  17.877  0.00  0.00    +0.000 N 
ATOM     10  C   UNL     1       4.240   7.789  17.310  0.00  0.00    +0.000 C 
ATOM     11  C   UNL     1       5.063   6.500  17.415  0.00  0.00    +0.000 C 
ATOM     12  C   UNL     1       4.782   5.416  18.466  0.00  0.00    +0.000 C 
ATOM     13  N   UNL     1       3.430   4.957  18.733  0.00  0.00    +0.000 N 
ATOM     14  C   UNL     1       2.256   5.487  18.242  0.00  0.00    +0.000 A 
ATOM     15  C   UNL     1       1.244   4.656  18.667  0.00  0.00    +0.000 A 
ATOM     16  C   UNL     1       1.733   3.885  19.726  0.00  0.00    +0.000 A 
ATOM     17  C   UNL     1       1.099   3.130  20.724  0.00  0.00    +0.000 A 
ATOM     18  C   UNL     1       1.872   2.344  21.573  0.00  0.00    +0.000 A 
ATOM     19  C   UNL     1       3.248   2.269  21.383  0.00  0.00    +0.000 A 
ATOM     20  C   UNL     1       3.906   3.075  20.430  0.00  0.00    +0.000 A 
ATOM     21  C   UNL     1       3.128   3.944  19.645  0.00  0.00    +0.000 A 
ATOM     22  C   UNL     1       2.063   6.706  17.436  0.00  0.00    +0.000 C 
ENDBRANCH   1   8
BRANCH   4  23
ATOM     23  N   UNL     1      -1.231  11.741  20.739  0.00  0.00    +0.000 N 
ATOM     24  C   UNL     1      -1.373  12.675  19.717  0.00  0.00    +0.000 C 
ATOM     25  O   UNL     1      -2.363  13.016  19.112  0.00  0.00    +0.000 OA
ATOM     26  C   UNL     1      -0.045  13.267  19.516  0.00  0.00    +0.000 A 
ATOM     27  C   UNL     1       0.621  13.570  18.345  0.00  0.00    +0.000 A 
ATOM     28  C   UNL     1       2.015  13.677  18.408  0.00  0.00    +0.000 A 
ATOM     29  C   UNL     1       2.691  13.542  19.638  0.00  0.00    +0.000 A 
ATOM     30  C   UNL     1       2.000  13.242  20.811  0.00  0.00    +0.000 A 
ATOM     31  C   UNL     1       0.637  13.072  20.708  0.00  0.00    +0.000 A 
ATOM     32  C   UNL     1      -0.222  12.221  21.542  0.00  0.00    +0.000 C 
ATOM     33  O   UNL     1       0.044  11.945  22.700  0.00  0.00    +0.000 OA
ENDBRANCH   4  23
TORSDOF 2
ENDMDL
MODEL 6
REMARK VINA RESULT:      -8.2      1.061      1.146
REMARK  Name = 
REMARK  2 active torsions:
REMARK  status: ('A' for Active; 'I' for Inactive)
REMARK    1  A    between atoms: C_2  and  C_3
REMARK    2  A    between atoms: C_6  and  N_7
REMARK                            x       y       z     vdW  Elec       q    Type
REMARK                         _______ _______ _______ _____ _____    ______ ____
ROOT
ATOM      1  C   UNL     1       5.024  16.321  19.172  0.00  0.00    +0.000 A 
ATOM      2  C   UNL     1       4.895  15.165  19.952  0.00  0.00    +0.000 A 
ATOM      3  C   UNL     1       3.716  14.421  19.890  0.00  0.00    +0.000 A 
ATOM      4  C   UNL     1       2.619  14.974  19.192  0.00  0.00    +0.000 A 
ATOM      5  C   UNL     1       2.884  15.897  18.173  0.00  0.00    +0.000 A 
ATOM      6  C   UNL     1       4.106  16.573  18.159  0.00  0.00    +0.000 A 
ENDROOT
BRANCH   1   8
ATOM      7  O   UNL     1       5.634  18.449  19.948  0.00  0.00    +0.000 OA
ATOM      8  C   UNL     1       6.042  17.349  19.574  0.00  0.00    +0.000 C 
ATOM      9  N   UNL     1       7.421  17.040  19.433  0.00  0.00    +0.000 N 
ATOM     10  C   UNL     1       8.333  18.032  19.957  0.00  0.00    +0.000 C 
ATOM     11  C   UNL     1       9.803  17.643  20.145  0.00  0.00    +0.000 C 
ATOM     12  C   UNL     1      10.267  16.185  20.275  0.00  0.00    +0.000 C 
ATOM     13  N   UNL     1       9.773  15.153  19.380  0.00  0.00    +0.000 N 
ATOM     14  C   UNL     1       8.768  15.271  18.445  0.00  0.00    +0.000 A 
ATOM     15  C   UNL     1       8.732  14.079  17.757  0.00  0.00    +0.000 A 
ATOM     16  C   UNL     1       9.404  13.118  18.519  0.00  0.00    +0.000 A 
ATOM     17  C   UNL     1       9.414  11.716  18.487  0.00  0.00    +0.000 A 
ATOM     18  C   UNL     1      10.309  11.027  19.298  0.00  0.00    +0.000 A 
ATOM     19  C   UNL     1      11.219  11.733  20.079  0.00  0.00    +0.000 A 
ATOM     20  C   UNL     1      11.175  13.139  20.174  0.00  0.00    +0.000 A 
ATOM     21  C   UNL     1      10.198  13.824  19.429  0.00  0.00    +0.000 A 
ATOM     22  C   UNL     1       7.868  16.413  18.200  0.00  0.00    +0.000 C 
ENDBRANCH   1   8
BRANCH   4  23
ATOM     23  N   UNL     1       1.354  15.125  19.927  0.00  0.00    +0.000 N 
ATOM     24  C   UNL     1       1.325  14.248  21.006  0.00  0.00    +0.000 C 
ATOM     25  O   UNL     1       1.744  14.392  22.132  0.00  0.00    +0.000 OA
ATOM     26  C   UNL     1       0.602  13.056  20.546  0.00  0.00    +0.000 A 
ATOM     27  C   UNL     1       0.880  11.719  20.750  0.00  0.00    +0.000 A 
ATOM     28  C   UNL     1       0.335  10.804  19.842  0.00  0.00    +0.000 A 
ATOM     29  C   UNL     1      -0.516  11.241  18.805  0.00  0.00    +0.000 A 
ATOM     30  C   UNL     1      -0.789  12.595  18.620  0.00  0.00    +0.000 A 
ATOM     31  C   UNL     1      -0.182  13.481  19.484  0.00  0.00    +0.000 A 
ATOM     32  C   UNL     1       0.206  14.870  19.212  0.00  0.00    +0.000 C 
ATOM     33  O   UNL     1      -0.371  15.571  18.396  0.00  0.00    +0.000 OA
ENDBRANCH   4  23
TORSDOF 2
ENDMDL
MODEL 7
REMARK VINA RESULT:      -8.1      2.064      8.823
REMARK  Name = 
REMARK  2 active torsions:
REMARK  status: ('A' for Active; 'I' for Inactive)
REMARK    1  A    between atoms: C_2  and  C_3
REMARK    2  A    between atoms: C_6  and  N_7
REMARK                            x       y       z     vdW  Elec       q    Type
REMARK                         _______ _______ _______ _____ _____    ______ ____
ROOT
ATOM      1  C   UNL     1       5.144  15.519  19.532  0.00  0.00    +0.000 A 
ATOM      2  C   UNL     1       5.772  15.138  18.339  0.00  0.00    +0.000 A 
ATOM      3  C   UNL     1       7.036  14.547  18.386  0.00  0.00    +0.000 A 
ATOM      4  C   UNL     1       7.719  14.539  19.622  0.00  0.00    +0.000 A 
ATOM      5  C   UNL     1       6.958  14.587  20.796  0.00  0.00    +0.000 A 
ATOM      6  C   UNL     1       5.650  15.075  20.748  0.00  0.00    +0.000 A 
ENDROOT
BRANCH   1   8
ATOM      7  O   UNL     1       4.378  17.728  19.333  0.00  0.00    +0.000 OA
ATOM      8  C   UNL     1       4.053  16.549  19.472  0.00  0.00    +0.000 C 
ATOM      9  N   UNL     1       2.707  16.132  19.655  0.00  0.00    +0.000 N 
ATOM     10  C   UNL     1       1.710  17.161  19.459  0.00  0.00    +0.000 C 
ATOM     11  C   UNL     1       0.245  16.736  19.311  0.00  0.00    +0.000 C 
ATOM     12  C   UNL     1      -0.173  15.322  18.883  0.00  0.00    +0.000 C 
ATOM     13  N   UNL     1       0.447  14.144  19.465  0.00  0.00    +0.000 N 
ATOM     14  C   UNL     1       1.533  14.104  20.311  0.00  0.00    +0.000 A 
ATOM     15  C   UNL     1       1.683  12.790  20.694  0.00  0.00    +0.000 A 
ATOM     16  C   UNL     1       0.977  11.992  19.789  0.00  0.00    +0.000 A 
ATOM     17  C   UNL     1       1.025  10.622  19.491  0.00  0.00    +0.000 A 
ATOM     18  C   UNL     1       0.083  10.085  18.621  0.00  0.00    +0.000 A 
ATOM     19  C   UNL     1      -0.926  10.895  18.109  0.00  0.00    +0.000 A 
ATOM     20  C   UNL     1      -0.946  12.286  18.344  0.00  0.00    +0.000 A 
ATOM     21  C   UNL     1       0.071  12.838  19.141  0.00  0.00    +0.000 A 
ATOM     22  C   UNL     1       2.408  15.212  20.739  0.00  0.00    +0.000 C 
ENDBRANCH   1   8
BRANCH   4  23
ATOM     23  N   UNL     1       9.058  15.148  19.661  0.00  0.00    +0.000 N 
ATOM     24  C   UNL     1       9.633  15.110  18.395  0.00  0.00    +0.000 C 
ATOM     25  O   UNL     1       9.541  15.895  17.480  0.00  0.00    +0.000 OA
ATOM     26  C   UNL     1      10.476  13.908  18.364  0.00  0.00    +0.000 A 
ATOM     27  C   UNL     1      10.633  12.963  17.370  0.00  0.00    +0.000 A 
ATOM     28  C   UNL     1      11.108  11.703  17.752  0.00  0.00    +0.000 A 
ATOM     29  C   UNL     1      11.469  11.446  19.091  0.00  0.00    +0.000 A 
ATOM     30  C   UNL     1      11.309  12.417  20.079  0.00  0.00    +0.000 A 
ATOM     31  C   UNL     1      10.772  13.625  19.689  0.00  0.00    +0.000 A 
ATOM     32  C   UNL     1       9.969  14.548  20.500  0.00  0.00    +0.000 C 
ATOM     33  O   UNL     1      10.074  14.626  21.714  0.00  0.00    +0.000 OA
ENDBRANCH   4  23
TORSDOF 2
ENDMDL
MODEL 8
REMARK VINA RESULT:      -8.1      6.050      8.849
REMARK  Name = 
REMARK  2 active torsions:
REMARK  status: ('A' for Active; 'I' for Inactive)
REMARK    1  A    between atoms: C_2  and  C_3
REMARK    2  A    between atoms: C_6  and  N_7
REMARK                            x       y       z     vdW  Elec       q    Type
REMARK                         _______ _______ _______ _____ _____    ______ ____
ROOT
ATOM      1  C   UNL     1       1.845   7.248  19.914  0.00  0.00    +0.000 A 
ATOM      2  C   UNL     1       2.352   7.688  18.685  0.00  0.00    +0.000 A 
ATOM      3  C   UNL     1       2.304   9.046  18.366  0.00  0.00    +0.000 A 
ATOM      4  C   UNL     1       1.562   9.899  19.212  0.00  0.00    +0.000 A 
ATOM      5  C   UNL     1       1.392   9.518  20.549  0.00  0.00    +0.000 A 
ATOM      6  C   UNL     1       1.544   8.176  20.905  0.00  0.00    +0.000 A 
ENDROOT
BRANCH   1   8
ATOM      7  O   UNL     1       0.415   5.540  20.647  0.00  0.00    +0.000 OA
ATOM      8  C   UNL     1       1.464   5.804  20.059  0.00  0.00    +0.000 C 
ATOM      9  N   UNL     1       2.360   4.808  19.586  0.00  0.00    +0.000 N 
ATOM     10  C   UNL     1       1.864   3.451  19.650  0.00  0.00    +0.000 C 
ATOM     11  C   UNL     1       2.613   2.365  18.871  0.00  0.00    +0.000 C 
ATOM     12  C   UNL     1       3.529   2.678  17.679  0.00  0.00    +0.000 C 
ATOM     13  N   UNL     1       4.497   3.760  17.734  0.00  0.00    +0.000 N 
ATOM     14  C   UNL     1       4.633   4.707  18.726  0.00  0.00    +0.000 A 
ATOM     15  C   UNL     1       5.752   5.446  18.410  0.00  0.00    +0.000 A 
ATOM     16  C   UNL     1       6.046   5.231  17.060  0.00  0.00    +0.000 A 
ATOM     17  C   UNL     1       6.838   5.928  16.137  0.00  0.00    +0.000 A 
ATOM     18  C   UNL     1       7.051   5.380  14.876  0.00  0.00    +0.000 A 
ATOM     19  C   UNL     1       6.530   4.127  14.571  0.00  0.00    +0.000 A 
ATOM     20  C   UNL     1       5.676   3.446  15.462  0.00  0.00    +0.000 A 
ATOM     21  C   UNL     1       5.381   4.055  16.695  0.00  0.00    +0.000 A 
ATOM     22  C   UNL     1       3.773   4.942  19.900  0.00  0.00    +0.000 C 
ENDBRANCH   1   8
BRANCH   4  23
ATOM     23  N   UNL     1       0.490  10.699  18.598  0.00  0.00    +0.000 N 
ATOM     24  C   UNL     1       0.800  12.052  18.685  0.00  0.00    +0.000 C 
ATOM     25  O   UNL     1       1.449  12.747  17.937  0.00  0.00    +0.000 OA
ATOM     26  C   UNL     1       0.118  12.553  19.884  0.00  0.00    +0.000 A 
ATOM     27  C   UNL     1       0.572  13.410  20.868  0.00  0.00    +0.000 A 
ATOM     28  C   UNL     1      -0.071  13.358  22.110  0.00  0.00    +0.000 A 
ATOM     29  C   UNL     1      -1.177  12.507  22.313  0.00  0.00    +0.000 A 
ATOM     30  C   UNL     1      -1.623  11.654  21.304  0.00  0.00    +0.000 A 
ATOM     31  C   UNL     1      -0.929  11.673  20.115  0.00  0.00    +0.000 A 
ATOM     32  C   UNL     1      -0.759  10.569  19.162  0.00  0.00    +0.000 C 
ATOM     33  O   UNL     1      -1.577   9.671  19.036  0.00  0.00    +0.000 OA
ENDBRANCH   4  23
TORSDOF 2
ENDMDL
MODEL 9
REMARK VINA RESULT:      -8.0      6.992     11.759
REMARK  Name = 
REMARK  2 active torsions:
REMARK  status: ('A' for Active; 'I' for Inactive)
REMARK    1  A    between atoms: C_2  and  C_3
REMARK    2  A    between atoms: C_6  and  N_7
REMARK                            x       y       z     vdW  Elec       q    Type
REMARK                         _______ _______ _______ _____ _____    ______ ____
ROOT
ATOM      1  C   UNL     1      -2.577  11.945  18.702  0.00  0.00    +0.000 A 
ATOM      2  C   UNL     1      -2.895  13.002  19.564  0.00  0.00    +0.000 A 
ATOM      3  C   UNL     1      -1.872  13.685  20.224  0.00  0.00    +0.000 A 
ATOM      4  C   UNL     1      -0.566  13.152  20.151  0.00  0.00    +0.000 A 
ATOM      5  C   UNL     1      -0.238  12.358  19.045  0.00  0.00    +0.000 A 
ATOM      6  C   UNL     1      -1.258  11.754  18.306  0.00  0.00    +0.000 A 
ENDROOT
BRANCH   1   8
ATOM      7  O   UNL     1      -3.332   9.982  17.663  0.00  0.00    +0.000 OA
ATOM      8  C   UNL     1      -3.640  10.935  18.379  0.00  0.00    +0.000 C 
ATOM      9  N   UNL     1      -4.963  11.160  18.846  0.00  0.00    +0.000 N 
ATOM     10  C   UNL     1      -5.895  10.083  18.600  0.00  0.00    +0.000 C 
ATOM     11  C   UNL     1      -7.235  10.095  19.345  0.00  0.00    +0.000 C 
ATOM     12  C   UNL     1      -7.453  10.873  20.651  0.00  0.00    +0.000 C 
ATOM     13  N   UNL     1      -6.988  12.241  20.801  0.00  0.00    +0.000 N 
ATOM     14  C   UNL     1      -6.200  12.955  19.925  0.00  0.00    +0.000 A 
ATOM     15  C   UNL     1      -6.120  14.235  20.426  0.00  0.00    +0.000 A 
ATOM     16  C   UNL     1      -6.496  14.198  21.772  0.00  0.00    +0.000 A 
ATOM     17  C   UNL     1      -6.311  15.093  22.836  0.00  0.00    +0.000 A 
ATOM     18  C   UNL     1      -6.933  14.836  24.053  0.00  0.00    +0.000 A 
ATOM     19  C   UNL     1      -7.775  13.736  24.181  0.00  0.00    +0.000 A 
ATOM     20  C   UNL     1      -7.916  12.792  23.143  0.00  0.00    +0.000 A 
ATOM     21  C   UNL     1      -7.202  13.004  21.951  0.00  0.00    +0.000 A 
ATOM     22  C   UNL     1      -5.534  12.488  18.696  0.00  0.00    +0.000 C 
ENDBRANCH   1   8
BRANCH   4  23
ATOM     23  N   UNL     1       0.118  12.855  21.420  0.00  0.00    +0.000 N 
ATOM     24  C   UNL     1      -0.476  11.755  22.030  0.00  0.00    +0.000 C 
ATOM     25  O   UNL     1      -0.252  10.575  21.885  0.00  0.00    +0.000 OA
ATOM     26  C   UNL     1      -1.446  12.293  22.992  0.00  0.00    +0.000 A 
ATOM     27  C   UNL     1      -2.735  11.884  23.271  0.00  0.00    +0.000 A 
ATOM     28  C   UNL     1      -3.592  12.820  23.861  0.00  0.00    +0.000 A 
ATOM     29  C   UNL     1      -3.124  14.104  24.208  0.00  0.00    +0.000 A 
ATOM     30  C   UNL     1      -1.816  14.496  23.923  0.00  0.00    +0.000 A 
ATOM     31  C   UNL     1      -1.015  13.580  23.278  0.00  0.00    +0.000 A 
ATOM     32  C   UNL     1       0.100  13.856  22.364  0.00  0.00    +0.000 C 
ATOM     33  O   UNL     1       0.771  14.874  22.427  0.00  0.00    +0.000 OA
ENDBRANCH   4  23
TORSDOF 2
ENDMDL
