MODEL 1
REMARK VINA RESULT:      -8.8      0.000      0.000
REMARK  Name = 
REMARK  7 active torsions:
REMARK  status: ('A' for Active; 'I' for Inactive)
REMARK    1  A    between atoms: C_5  and  C_6
REMARK    2  A    between atoms: N_8  and  C_9
REMARK    3  A    between atoms: C_13  and  C_14
REMARK    4  A    between atoms: C_14  and  C_15
REMARK    5  A    between atoms: C_14  and  S_16
REMARK    6  A    between atoms: S_16  and  C_17
REMARK    7  A    between atoms: N_21  and  C_22
REMARK                            x       y       z     vdW  Elec       q    Type
REMARK                         _______ _______ _______ _____ _____    ______ ____
ROOT
ATOM      1  C   UNL     1       2.707   6.672  18.346  0.00  0.00    +0.000 A 
ATOM      2  C   UNL     1       1.998   5.468  18.317  0.00  0.00    +0.000 A 
ATOM      3  C   UNL     1       2.541   4.333  17.717  0.00  0.00    +0.000 A 
ATOM      4  C   UNL     1       3.803   4.389  17.139  0.00  0.00    +0.000 A 
ATOM      5  C   UNL     1       4.523   5.593  17.112  0.00  0.00    +0.000 A 
ATOM      6  C   UNL     1       3.946   6.739  17.694  0.00  0.00    +0.000 A 
ENDROOT
BRANCH   1   9
ATOM      7  C   UNL     1       1.730   8.955  18.470  0.00  0.00    +0.000 C 
ATOM      8  O   UNL     1       1.609   9.154  17.264  0.00  0.00    +0.000 OA
ATOM      9  N   UNL     1       2.257   7.816  19.052  0.00  0.00    +0.000 N 
ATOM     10  H   UNL     1       2.152   7.701  20.052  0.00  0.00    +0.000 HD
BRANCH   7  15
ATOM     11  C   UNL     1      -0.166  13.167  21.846  0.00  0.00    +0.000 C 
ATOM     12  C   UNL     1       0.234  12.105  21.125  0.00  0.00    +0.000 A 
ATOM     13  C   UNL     1       0.932  12.387  19.868  0.00  0.00    +0.000 A 
ATOM     14  C   UNL     1       1.350  11.386  19.078  0.00  0.00    +0.000 A 
ATOM     15  C   UNL     1       1.156   9.978  19.422  0.00  0.00    +0.000 A 
ATOM     16  C   UNL     1       0.557   9.639  20.582  0.00  0.00    +0.000 A 
ATOM     17  C   UNL     1       0.031  10.680  21.506  0.00  0.00    +0.000 A 
ATOM     18  C   UNL     1      -0.595  10.256  22.621  0.00  0.00    +0.000 C 
ATOM     19  F   UNL     1      -0.725   8.933  22.867  0.00  0.00    +0.000 F 
ATOM     20  F   UNL     1      -1.113  11.118  23.525  0.00  0.00    +0.000 F 
ENDBRANCH   7  15
ENDBRANCH   1   9
BRANCH   5  21
ATOM     21  C   UNL     1       5.936   5.647  16.550  0.00  0.00    +0.000 C 
ATOM     22  C   UNL     1       6.943   5.873  17.687  0.00  0.00    +0.000 C 
BRANCH  21  23
ATOM     23  S   UNL     1       6.402   4.114  15.662  0.00  0.00    +0.000 S 
BRANCH  23  24
ATOM     24  C   UNL     1       7.100   4.739  14.212  0.00  0.00    +0.000 A 
ATOM     25  N   UNL     1       8.037   5.652  14.109  0.00  0.00    +0.000 NA
ATOM     26  N   UNL     1       8.340   5.792  12.772  0.00  0.00    +0.000 NA
ATOM     27  C   UNL     1       7.579   4.955  12.102  0.00  0.00    +0.000 A 
ATOM     28  N   UNL     1       6.770   4.282  12.968  0.00  0.00    +0.000 N 
ATOM     29  C   UNL     1       5.776   3.308  12.605  0.00  0.00    +0.000 C 
ENDBRANCH  23  24
ENDBRANCH  21  23
ENDBRANCH   5  21
TORSDOF 5
ENDMDL
MODEL 2
REMARK VINA RESULT:      -8.5      1.021      1.036
REMARK  Name = 
REMARK  7 active torsions:
REMARK  status: ('A' for Active; 'I' for Inactive)
REMARK    1  A    between atoms: C_5  and  C_6
REMARK    2  A    between atoms: N_8  and  C_9
REMARK    3  A    between atoms: C_13  and  C_14
REMARK    4  A    between atoms: C_14  and  C_15
REMARK    5  A    between atoms: C_14  and  S_16
REMARK    6  A    between atoms: S_16  and  C_17
REMARK    7  A    between atoms: N_21  and  C_22
REMARK                            x       y       z     vdW  Elec       q    Type
REMARK                         _______ _______ _______ _____ _____    ______ ____
ROOT
ATOM      1  C   UNL     1       2.955   6.067  19.376  0.00  0.00    +0.000 A 
ATOM      2  C   UNL     1       2.847   4.816  19.992  0.00  0.00    +0.000 A 
ATOM      3  C   UNL     1       3.658   3.754  19.600  0.00  0.00    +0.000 A 
ATOM      4  C   UNL     1       4.592   3.930  18.586  0.00  0.00    +0.000 A 
ATOM      5  C   UNL     1       4.696   5.159  17.917  0.00  0.00    +0.000 A 
ATOM      6  C   UNL     1       3.845   6.214  18.304  0.00  0.00    +0.000 A 
ENDROOT
BRANCH   1   9
ATOM      7  C   UNL     1       1.895   8.289  19.030  0.00  0.00    +0.000 C 
ATOM      8  O   UNL     1       2.177   8.429  17.842  0.00  0.00    +0.000 OA
ATOM      9  N   UNL     1       2.246   7.210  19.821  0.00  0.00    +0.000 N 
ATOM     10  H   UNL     1       1.817   7.133  20.735  0.00  0.00    +0.000 HD
BRANCH   7  15
ATOM     11  C   UNL     1      -1.445  12.462  21.071  0.00  0.00    +0.000 C 
ATOM     12  C   UNL     1      -0.663  11.435  20.693  0.00  0.00    +0.000 A 
ATOM     13  C   UNL     1      -0.255  11.401  19.286  0.00  0.00    +0.000 A 
ATOM     14  C   UNL     1       0.511  10.402  18.820  0.00  0.00    +0.000 A 
ATOM     15  C   UNL     1       0.992   9.315  19.673  0.00  0.00    +0.000 A 
ATOM     16  C   UNL     1       0.690   9.300  20.987  0.00  0.00    +0.000 A 
ATOM     17  C   UNL     1      -0.180  10.346  21.587  0.00  0.00    +0.000 A 
ATOM     18  C   UNL     1      -0.470  10.232  22.897  0.00  0.00    +0.000 C 
ATOM     19  F   UNL     1       0.023   9.197  23.615  0.00  0.00    +0.000 F 
ATOM     20  F   UNL     1      -1.255  11.126  23.539  0.00  0.00    +0.000 F 
ENDBRANCH   7  15
ENDBRANCH   1   9
BRANCH   5  21
ATOM     21  C   UNL     1       5.765   5.386  16.858  0.00  0.00    +0.000 C 
ATOM     22  C   UNL     1       7.115   5.672  17.531  0.00  0.00    +0.000 C 
BRANCH  21  23
ATOM     23  S   UNL     1       5.970   3.947  15.744  0.00  0.00    +0.000 S 
BRANCH  23  24
ATOM     24  C   UNL     1       6.853   4.634  14.430  0.00  0.00    +0.000 A 
ATOM     25  N   UNL     1       7.808   5.532  14.497  0.00  0.00    +0.000 NA
ATOM     26  N   UNL     1       8.279   5.739  13.218  0.00  0.00    +0.000 NA
ATOM     27  C   UNL     1       7.596   4.956  12.412  0.00  0.00    +0.000 A 
ATOM     28  N   UNL     1       6.676   4.254  13.131  0.00  0.00    +0.000 N 
ATOM     29  C   UNL     1       5.722   3.322  12.591  0.00  0.00    +0.000 C 
ENDBRANCH  23  24
ENDBRANCH  21  23
ENDBRANCH   5  21
TORSDOF 5
ENDMDL
MODEL 3
REMARK VINA RESULT:      -8.4      3.053      4.002
REMARK  Name = 
REMARK  7 active torsions:
REMARK  status: ('A' for Active; 'I' for Inactive)
REMARK    1  A    between atoms: C_5  and  C_6
REMARK    2  A    between atoms: N_8  and  C_9
REMARK    3  A    between atoms: C_13  and  C_14
REMARK    4  A    between atoms: C_14  and  C_15
REMARK    5  A    between atoms: C_14  and  S_16
REMARK    6  A    between atoms: S_16  and  C_17
REMARK    7  A    between atoms: N_21  and  C_22
REMARK                            x       y       z     vdW  Elec       q    Type
REMARK                         _______ _______ _______ _____ _____    ______ ____
ROOT
ATOM      1  C   UNL     1       2.005   5.125  20.691  0.00  0.00    +0.000 A 
ATOM      2  C   UNL     1       1.949   3.986  21.499  0.00  0.00    +0.000 A 
ATOM      3  C   UNL     1       2.586   2.807  21.118  0.00  0.00    +0.000 A 
ATOM      4  C   UNL     1       3.289   2.753  19.921  0.00  0.00    +0.000 A 
ATOM      5  C   UNL     1       3.329   3.865  19.065  0.00  0.00    +0.000 A 
ATOM      6  C   UNL     1       2.653   5.039  19.451  0.00  0.00    +0.000 A 
ENDROOT
BRANCH   1   9
ATOM      7  C   UNL     1       1.673   7.575  20.415  0.00  0.00    +0.000 C 
ATOM      8  O   UNL     1       2.344   7.723  19.396  0.00  0.00    +0.000 OA
ATOM      9  N   UNL     1       1.485   6.382  21.091  0.00  0.00    +0.000 N 
ATOM     10  H   UNL     1       0.782   6.355  21.818  0.00  0.00    +0.000 HD
BRANCH   7  15
ATOM     11  C   UNL     1      -1.362  11.807  22.783  0.00  0.00    +0.000 C 
ATOM     12  C   UNL     1      -0.664  10.862  22.127  0.00  0.00    +0.000 A 
ATOM     13  C   UNL     1      -0.066   9.801  22.942  0.00  0.00    +0.000 A 
ATOM     14  C   UNL     1       0.662   8.829  22.371  0.00  0.00    +0.000 A 
ATOM     15  C   UNL     1       0.885   8.756  20.927  0.00  0.00    +0.000 A 
ATOM     16  C   UNL     1       0.332   9.675  20.109  0.00  0.00    +0.000 A 
ATOM     17  C   UNL     1      -0.462  10.809  20.653  0.00  0.00    +0.000 A 
ATOM     18  C   UNL     1      -0.940  11.708  19.771  0.00  0.00    +0.000 C 
ATOM     19  F   UNL     1      -0.693  11.561  18.450  0.00  0.00    +0.000 F 
ATOM     20  F   UNL     1      -1.670  12.777  20.161  0.00  0.00    +0.000 F 
ENDBRANCH   7  15
ENDBRANCH   1   9
BRANCH   5  21
ATOM     21  C   UNL     1       4.159   3.841  17.790  0.00  0.00    +0.000 C 
ATOM     22  C   UNL     1       3.298   3.355  16.616  0.00  0.00    +0.000 C 
BRANCH  21  23
ATOM     23  S   UNL     1       4.841   5.486  17.362  0.00  0.00    +0.000 S 
BRANCH  23  24
ATOM     24  C   UNL     1       6.176   5.613  18.448  0.00  0.00    +0.000 A 
ATOM     25  N   UNL     1       6.391   4.903  19.532  0.00  0.00    +0.000 NA
ATOM     26  N   UNL     1       7.609   5.289  20.051  0.00  0.00    +0.000 NA
ATOM     27  C   UNL     1       8.099   6.221  19.263  0.00  0.00    +0.000 A 
ATOM     28  N   UNL     1       7.222   6.468  18.249  0.00  0.00    +0.000 N 
ATOM     29  C   UNL     1       7.394   7.448  17.210  0.00  0.00    +0.000 C 
ENDBRANCH  23  24
ENDBRANCH  21  23
ENDBRANCH   5  21
TORSDOF 5
ENDMDL
MODEL 4
REMARK VINA RESULT:      -8.3      1.593      2.070
REMARK  Name = 
REMARK  7 active torsions:
REMARK  status: ('A' for Active; 'I' for Inactive)
REMARK    1  A    between atoms: C_5  and  C_6
REMARK    2  A    between atoms: N_8  and  C_9
REMARK    3  A    between atoms: C_13  and  C_14
REMARK    4  A    between atoms: C_14  and  C_15
REMARK    5  A    between atoms: C_14  and  S_16
REMARK    6  A    between atoms: S_16  and  C_17
REMARK    7  A    between atoms: N_21  and  C_22
REMARK                            x       y       z     vdW  Elec       q    Type
REMARK                         _______ _______ _______ _____ _____    ______ ____
ROOT
ATOM      1  C   UNL     1       2.787   5.714  19.467  0.00  0.00    +0.000 A 
ATOM      2  C   UNL     1       2.887   4.442  20.039  0.00  0.00    +0.000 A 
ATOM      3  C   UNL     1       3.613   3.431  19.412  0.00  0.00    +0.000 A 
ATOM      4  C   UNL     1       4.251   3.682  18.203  0.00  0.00    +0.000 A 
ATOM      5  C   UNL     1       4.135   4.934  17.581  0.00  0.00    +0.000 A 
ATOM      6  C   UNL     1       3.370   5.935  18.212  0.00  0.00    +0.000 A 
ENDROOT
BRANCH   1   9
ATOM      7  C   UNL     1       1.824   8.006  19.522  0.00  0.00    +0.000 C 
ATOM      8  O   UNL     1       2.032   8.306  18.349  0.00  0.00    +0.000 OA
ATOM      9  N   UNL     1       2.170   6.809  20.123  0.00  0.00    +0.000 N 
ATOM     10  H   UNL     1       1.801   6.616  21.045  0.00  0.00    +0.000 HD
BRANCH   7  15
ATOM     11  C   UNL     1      -1.183  11.302  23.103  0.00  0.00    +0.000 C 
ATOM     12  C   UNL     1      -0.509  10.595  22.179  0.00  0.00    +0.000 A 
ATOM     13  C   UNL     1       0.278   9.459  22.664  0.00  0.00    +0.000 A 
ATOM     14  C   UNL     1       0.996   8.710  21.812  0.00  0.00    +0.000 A 
ATOM     15  C   UNL     1       1.022   8.963  20.371  0.00  0.00    +0.000 A 
ATOM     16  C   UNL     1       0.291   9.968  19.846  0.00  0.00    +0.000 A 
ATOM     17  C   UNL     1      -0.509  10.872  20.715  0.00  0.00    +0.000 A 
ATOM     18  C   UNL     1      -1.174  11.877  20.115  0.00  0.00    +0.000 C 
ATOM     19  F   UNL     1      -1.100  12.036  18.775  0.00  0.00    +0.000 F 
ATOM     20  F   UNL     1      -1.926  12.757  20.813  0.00  0.00    +0.000 F 
ENDBRANCH   7  15
ENDBRANCH   1   9
BRANCH   5  21
ATOM     21  C   UNL     1       4.891   5.242  16.297  0.00  0.00    +0.000 C 
ATOM     22  C   UNL     1       5.574   6.613  16.409  0.00  0.00    +0.000 C 
BRANCH  21  23
ATOM     23  S   UNL     1       6.171   3.989  15.913  0.00  0.00    +0.000 S 
BRANCH  23  24
ATOM     24  C   UNL     1       6.933   4.671  14.523  0.00  0.00    +0.000 A 
ATOM     25  N   UNL     1       7.915   5.541  14.499  0.00  0.00    +0.000 NA
ATOM     26  N   UNL     1       8.256   5.752  13.180  0.00  0.00    +0.000 NA
ATOM     27  C   UNL     1       7.472   4.999  12.441  0.00  0.00    +0.000 A 
ATOM     28  N   UNL     1       6.611   4.312  13.244  0.00  0.00    +0.000 N 
ATOM     29  C   UNL     1       5.580   3.415  12.797  0.00  0.00    +0.000 C 
ENDBRANCH  23  24
ENDBRANCH  21  23
ENDBRANCH   5  21
TORSDOF 5
ENDMDL
MODEL 5
REMARK VINA RESULT:      -8.3      1.630      2.141
REMARK  Name = 
REMARK  7 active torsions:
REMARK  status: ('A' for Active; 'I' for Inactive)
REMARK    1  A    between atoms: C_5  and  C_6
REMARK    2  A    between atoms: N_8  and  C_9
REMARK    3  A    between atoms: C_13  and  C_14
REMARK    4  A    between atoms: C_14  and  C_15
REMARK    5  A    between atoms: C_14  and  S_16
REMARK    6  A    between atoms: S_16  and  C_17
REMARK    7  A    between atoms: N_21  and  C_22
REMARK                            x       y       z     vdW  Elec       q    Type
REMARK                         _______ _______ _______ _____ _____    ______ ____
ROOT
ATOM      1  C   UNL     1       2.584   6.372  18.652  0.00  0.00    +0.000 A 
ATOM      2  C   UNL     1       1.856   5.186  18.781  0.00  0.00    +0.000 A 
ATOM      3  C   UNL     1       2.352   3.984  18.278  0.00  0.00    +0.000 A 
ATOM      4  C   UNL     1       3.585   3.955  17.639  0.00  0.00    +0.000 A 
ATOM      5  C   UNL     1       4.322   5.135  17.455  0.00  0.00    +0.000 A 
ATOM      6  C   UNL     1       3.792   6.347  17.941  0.00  0.00    +0.000 A 
ENDROOT
BRANCH   1   9
ATOM      7  C   UNL     1       1.829   8.740  18.572  0.00  0.00    +0.000 C 
ATOM      8  O   UNL     1       1.839   8.880  17.351  0.00  0.00    +0.000 OA
ATOM      9  N   UNL     1       2.187   7.591  19.256  0.00  0.00    +0.000 N 
ATOM     10  H   UNL     1       1.981   7.544  20.245  0.00  0.00    +0.000 HD
BRANCH   7  15
ATOM     11  C   UNL     1      -0.533  12.659  22.006  0.00  0.00    +0.000 C 
ATOM     12  C   UNL     1       0.057  11.822  21.134  0.00  0.00    +0.000 A 
ATOM     13  C   UNL     1       0.007  10.393  21.456  0.00  0.00    +0.000 A 
ATOM     14  C   UNL     1       0.586   9.490  20.650  0.00  0.00    +0.000 A 
ATOM     15  C   UNL     1       1.274   9.864  19.414  0.00  0.00    +0.000 A 
ATOM     16  C   UNL     1       1.328  11.157  19.032  0.00  0.00    +0.000 A 
ATOM     17  C   UNL     1       0.744  12.231  19.878  0.00  0.00    +0.000 A 
ATOM     18  C   UNL     1       0.881  13.500  19.446  0.00  0.00    +0.000 C 
ATOM     19  F   UNL     1       1.527  13.757  18.287  0.00  0.00    +0.000 F 
ATOM     20  F   UNL     1       0.390  14.551  20.141  0.00  0.00    +0.000 F 
ENDBRANCH   7  15
ENDBRANCH   1   9
BRANCH   5  21
ATOM     21  C   UNL     1       5.707   5.102  16.825  0.00  0.00    +0.000 C 
ATOM     22  C   UNL     1       6.768   4.864  17.909  0.00  0.00    +0.000 C 
BRANCH  21  23
ATOM     23  S   UNL     1       5.874   3.792  15.556  0.00  0.00    +0.000 S 
BRANCH  23  24
ATOM     24  C   UNL     1       6.866   4.565  14.373  0.00  0.00    +0.000 A 
ATOM     25  N   UNL     1       7.792   5.472  14.580  0.00  0.00    +0.000 NA
ATOM     26  N   UNL     1       8.379   5.756  13.366  0.00  0.00    +0.000 NA
ATOM     27  C   UNL     1       7.793   5.008  12.457  0.00  0.00    +0.000 A 
ATOM     28  N   UNL     1       6.822   4.254  13.044  0.00  0.00    +0.000 N 
ATOM     29  C   UNL     1       5.943   3.340  12.365  0.00  0.00    +0.000 C 
ENDBRANCH  23  24
ENDBRANCH  21  23
ENDBRANCH   5  21
TORSDOF 5
ENDMDL
MODEL 6
REMARK VINA RESULT:      -8.3      4.657      9.452
REMARK  Name = 
REMARK  7 active torsions:
REMARK  status: ('A' for Active; 'I' for Inactive)
REMARK    1  A    between atoms: C_5  and  C_6
REMARK    2  A    between atoms: N_8  and  C_9
REMARK    3  A    between atoms: C_13  and  C_14
REMARK    4  A    between atoms: C_14  and  C_15
REMARK    5  A    between atoms: C_14  and  S_16
REMARK    6  A    between atoms: S_16  and  C_17
REMARK    7  A    between atoms: N_21  and  C_22
REMARK                            x       y       z     vdW  Elec       q    Type
REMARK                         _______ _______ _______ _____ _____    ______ ____
ROOT
ATOM      1  C   UNL     1       1.214   8.700  20.680  0.00  0.00    +0.000 A 
ATOM      2  C   UNL     1       1.232   8.688  22.078  0.00  0.00    +0.000 A 
ATOM      3  C   UNL     1       0.490   9.613  22.810  0.00  0.00    +0.000 A 
ATOM      4  C   UNL     1      -0.282  10.562  22.151  0.00  0.00    +0.000 A 
ATOM      5  C   UNL     1      -0.288  10.629  20.749  0.00  0.00    +0.000 A 
ATOM      6  C   UNL     1       0.494   9.707  20.025  0.00  0.00    +0.000 A 
ENDROOT
BRANCH   1   9
ATOM      7  C   UNL     1       2.334   7.894  18.611  0.00  0.00    +0.000 C 
ATOM      8  O   UNL     1       2.257   8.934  17.960  0.00  0.00    +0.000 OA
ATOM      9  N   UNL     1       1.847   7.706  19.892  0.00  0.00    +0.000 N 
ATOM     10  H   UNL     1       2.114   6.862  20.382  0.00  0.00    +0.000 HD
BRANCH   7  15
ATOM     11  C   UNL     1       5.524   3.869  16.091  0.00  0.00    +0.000 C 
ATOM     12  C   UNL     1       4.716   4.733  16.732  0.00  0.00    +0.000 A 
ATOM     13  C   UNL     1       4.998   6.159  16.548  0.00  0.00    +0.000 A 
ATOM     14  C   UNL     1       4.253   7.088  17.165  0.00  0.00    +0.000 A 
ATOM     15  C   UNL     1       3.122   6.746  18.028  0.00  0.00    +0.000 A 
ATOM     16  C   UNL     1       2.778   5.455  18.214  0.00  0.00    +0.000 A 
ATOM     17  C   UNL     1       3.565   4.354  17.598  0.00  0.00    +0.000 A 
ATOM     18  C   UNL     1       3.181   3.092  17.870  0.00  0.00    +0.000 C 
ATOM     19  F   UNL     1       2.118   2.864  18.674  0.00  0.00    +0.000 F 
ATOM     20  F   UNL     1       3.830   2.020  17.364  0.00  0.00    +0.000 F 
ENDBRANCH   7  15
ENDBRANCH   1   9
BRANCH   5  21
ATOM     21  C   UNL     1      -1.187  11.614  20.017  0.00  0.00    +0.000 C 
ATOM     22  C   UNL     1      -0.630  13.037  20.161  0.00  0.00    +0.000 C 
BRANCH  21  23
ATOM     23  S   UNL     1      -1.345  11.233  18.232  0.00  0.00    +0.000 S 
BRANCH  23  24
ATOM     24  C   UNL     1      -3.035  11.458  17.967  0.00  0.00    +0.000 A 
ATOM     25  N   UNL     1      -3.936  11.830  18.845  0.00  0.00    +0.000 NA
ATOM     26  N   UNL     1      -5.141  11.949  18.185  0.00  0.00    +0.000 NA
ATOM     27  C   UNL     1      -4.933  11.648  16.922  0.00  0.00    +0.000 A 
ATOM     28  N   UNL     1      -3.623  11.317  16.742  0.00  0.00    +0.000 N 
ATOM     29  C   UNL     1      -3.026  10.897  15.503  0.00  0.00    +0.000 C 
ENDBRANCH  23  24
ENDBRANCH  21  23
ENDBRANCH   5  21
TORSDOF 5
ENDMDL
MODEL 7
REMARK VINA RESULT:      -8.3      5.804      7.975
REMARK  Name = 
REMARK  7 active torsions:
REMARK  status: ('A' for Active; 'I' for Inactive)
REMARK    1  A    between atoms: C_5  and  C_6
REMARK    2  A    between atoms: N_8  and  C_9
REMARK    3  A    between atoms: C_13  and  C_14
REMARK    4  A    between atoms: C_14  and  C_15
REMARK    5  A    between atoms: C_14  and  S_16
REMARK    6  A    between atoms: S_16  and  C_17
REMARK    7  A    between atoms: N_21  and  C_22
REMARK                            x       y       z     vdW  Elec       q    Type
REMARK                         _______ _______ _______ _____ _____    ______ ____
ROOT
ATOM      1  C   UNL     1       7.807   7.952  17.921  0.00  0.00    +0.000 A 
ATOM      2  C   UNL     1       8.366   7.095  18.873  0.00  0.00    +0.000 A 
ATOM      3  C   UNL     1       8.003   5.751  18.926  0.00  0.00    +0.000 A 
ATOM      4  C   UNL     1       7.074   5.246  18.024  0.00  0.00    +0.000 A 
ATOM      5  C   UNL     1       6.461   6.088  17.084  0.00  0.00    +0.000 A 
ATOM      6  C   UNL     1       6.816   7.452  17.065  0.00  0.00    +0.000 A 
ENDROOT
BRANCH   1   9
ATOM      7  C   UNL     1       8.884  10.055  18.696  0.00  0.00    +0.000 C 
ATOM      8  O   UNL     1       9.151   9.698  19.842  0.00  0.00    +0.000 OA
ATOM      9  N   UNL     1       8.235   9.291  17.743  0.00  0.00    +0.000 N 
ATOM     10  H   UNL     1       8.220   9.633  16.790  0.00  0.00    +0.000 HD
BRANCH   7  15
ATOM     11  C   UNL     1      11.293  14.942  16.951  0.00  0.00    +0.000 C 
ATOM     12  C   UNL     1      10.632  13.851  17.378  0.00  0.00    +0.000 A 
ATOM     13  C   UNL     1      11.371  12.586  17.363  0.00  0.00    +0.000 A 
ATOM     14  C   UNL     1      10.782  11.445  17.754  0.00  0.00    +0.000 A 
ATOM     15  C   UNL     1       9.400  11.396  18.230  0.00  0.00    +0.000 A 
ATOM     16  C   UNL     1       8.669  12.527  18.309  0.00  0.00    +0.000 A 
ATOM     17  C   UNL     1       9.225  13.832  17.865  0.00  0.00    +0.000 A 
ATOM     18  C   UNL     1       8.414  14.905  17.935  0.00  0.00    +0.000 C 
ATOM     19  F   UNL     1       7.149  14.772  18.394  0.00  0.00    +0.000 F 
ATOM     20  F   UNL     1       8.819  16.137  17.553  0.00  0.00    +0.000 F 
ENDBRANCH   7  15
ENDBRANCH   1   9
BRANCH   5  21
ATOM     21  C   UNL     1       5.500   5.532  16.044  0.00  0.00    +0.000 C 
ATOM     22  C   UNL     1       6.287   5.003  14.837  0.00  0.00    +0.000 C 
BRANCH  21  23
ATOM     23  S   UNL     1       4.462   4.172  16.698  0.00  0.00    +0.000 S 
BRANCH  23  24
ATOM     24  C   UNL     1       3.673   4.933  18.031  0.00  0.00    +0.000 A 
ATOM     25  N   UNL     1       3.059   6.093  18.035  0.00  0.00    +0.000 NA
ATOM     26  N   UNL     1       2.514   6.274  19.289  0.00  0.00    +0.000 NA
ATOM     27  C   UNL     1       2.813   5.214  20.008  0.00  0.00    +0.000 A 
ATOM     28  N   UNL     1       3.556   4.350  19.260  0.00  0.00    +0.000 N 
ATOM     29  C   UNL     1       4.098   3.098  19.715  0.00  0.00    +0.000 C 
ENDBRANCH  23  24
ENDBRANCH  21  23
ENDBRANCH   5  21
TORSDOF 5
ENDMDL
MODEL 8
REMARK VINA RESULT:      -8.2      2.426      3.354
REMARK  Name = 
REMARK  7 active torsions:
REMARK  status: ('A' for Active; 'I' for Inactive)
REMARK    1  A    between atoms: C_5  and  C_6
REMARK    2  A    between atoms: N_8  and  C_9
REMARK    3  A    between atoms: C_13  and  C_14
REMARK    4  A    between atoms: C_14  and  C_15
REMARK    5  A    between atoms: C_14  and  S_16
REMARK    6  A    between atoms: S_16  and  C_17
REMARK    7  A    between atoms: N_21  and  C_22
REMARK                            x       y       z     vdW  Elec       q    Type
REMARK                         _______ _______ _______ _____ _____    ______ ____
ROOT
ATOM      1  C   UNL     1       1.996   4.891  20.706  0.00  0.00    +0.000 A 
ATOM      2  C   UNL     1       2.088   4.000  21.780  0.00  0.00    +0.000 A 
ATOM      3  C   UNL     1       2.660   2.740  21.616  0.00  0.00    +0.000 A 
ATOM      4  C   UNL     1       3.148   2.355  20.373  0.00  0.00    +0.000 A 
ATOM      5  C   UNL     1       3.031   3.208  19.264  0.00  0.00    +0.000 A 
ATOM      6  C   UNL     1       2.421   4.466  19.440  0.00  0.00    +0.000 A 
ENDROOT
BRANCH   1   9
ATOM      7  C   UNL     1       1.962   7.298  20.081  0.00  0.00    +0.000 C 
ATOM      8  O   UNL     1       2.813   7.255  19.195  0.00  0.00    +0.000 OA
ATOM      9  N   UNL     1       1.541   6.226  20.849  0.00  0.00    +0.000 N 
ATOM     10  H   UNL     1       0.723   6.351  21.430  0.00  0.00    +0.000 HD
BRANCH   7  15
ATOM     11  C   UNL     1      -0.655  12.371  20.460  0.00  0.00    +0.000 C 
ATOM     12  C   UNL     1      -0.069  11.160  20.477  0.00  0.00    +0.000 A 
ATOM     13  C   UNL     1       0.543  10.707  19.226  0.00  0.00    +0.000 A 
ATOM     14  C   UNL     1       1.133   9.504  19.150  0.00  0.00    +0.000 A 
ATOM     15  C   UNL     1       1.218   8.595  20.292  0.00  0.00    +0.000 A 
ATOM     16  C   UNL     1       0.711   8.959  21.488  0.00  0.00    +0.000 A 
ATOM     17  C   UNL     1       0.009  10.259  21.660  0.00  0.00    +0.000 A 
ATOM     18  C   UNL     1      -0.507  10.526  22.875  0.00  0.00    +0.000 C 
ATOM     19  F   UNL     1      -0.377   9.631  23.880  0.00  0.00    +0.000 F 
ATOM     20  F   UNL     1      -1.167  11.677  23.137  0.00  0.00    +0.000 F 
ENDBRANCH   7  15
ENDBRANCH   1   9
BRANCH   5  21
ATOM     21  C   UNL     1       3.629   2.828  17.918  0.00  0.00    +0.000 C 
ATOM     22  C   UNL     1       2.586   2.081  17.075  0.00  0.00    +0.000 C 
BRANCH  21  23
ATOM     23  S   UNL     1       4.207   4.283  16.966  0.00  0.00    +0.000 S 
BRANCH  23  24
ATOM     24  C   UNL     1       5.764   4.564  17.654  0.00  0.00    +0.000 A 
ATOM     25  N   UNL     1       6.059   4.709  18.925  0.00  0.00    +0.000 NA
ATOM     26  N   UNL     1       7.428   4.843  19.025  0.00  0.00    +0.000 NA
ATOM     27  C   UNL     1       7.924   4.770  17.809  0.00  0.00    +0.000 A 
ATOM     28  N   UNL     1       6.910   4.611  16.912  0.00  0.00    +0.000 N 
ATOM     29  C   UNL     1       7.058   4.528  15.484  0.00  0.00    +0.000 C 
ENDBRANCH  23  24
ENDBRANCH  21  23
ENDBRANCH   5  21
TORSDOF 5
ENDMDL
MODEL 9
REMARK VINA RESULT:      -8.1      3.069      4.335
REMARK  Name = 
REMARK  7 active torsions:
REMARK  status: ('A' for Active; 'I' for Inactive)
REMARK    1  A    between atoms: C_5  and  C_6
REMARK    2  A    between atoms: N_8  and  C_9
REMARK    3  A    between atoms: C_13  and  C_14
REMARK    4  A    between atoms: C_14  and  C_15
REMARK    5  A    between atoms: C_14  and  S_16
REMARK    6  A    between atoms: S_16  and  C_17
REMARK    7  A    between atoms: N_21  and  C_22
REMARK                            x       y       z     vdW  Elec       q    Type
REMARK                         _______ _______ _______ _____ _____    ______ ____
ROOT
ATOM      1  C   UNL     1       1.274   8.896  19.491  0.00  0.00    +0.000 A 
ATOM      2  C   UNL     1       1.696   9.285  18.217  0.00  0.00    +0.000 A 
ATOM      3  C   UNL     1       2.579   8.495  17.484  0.00  0.00    +0.000 A 
ATOM      4  C   UNL     1       3.053   7.303  18.018  0.00  0.00    +0.000 A 
ATOM      5  C   UNL     1       2.684   6.905  19.313  0.00  0.00    +0.000 A 
ATOM      6  C   UNL     1       1.815   7.731  20.053  0.00  0.00    +0.000 A 
ENDROOT
BRANCH   1   9
ATOM      7  C   UNL     1       0.390  10.901  20.666  0.00  0.00    +0.000 C 
ATOM      8  O   UNL     1       1.370  11.629  20.522  0.00  0.00    +0.000 OA
ATOM      9  N   UNL     1       0.282   9.595  20.223  0.00  0.00    +0.000 N 
ATOM     10  H   UNL     1      -0.629   9.156  20.256  0.00  0.00    +0.000 HD
BRANCH   7  15
ATOM     11  C   UNL     1      -4.179  12.985  23.408  0.00  0.00    +0.000 C 
ATOM     12  C   UNL     1      -3.158  12.516  22.668  0.00  0.00    +0.000 A 
ATOM     13  C   UNL     1      -1.966  12.073  23.395  0.00  0.00    +0.000 A 
ATOM     14  C   UNL     1      -0.895  11.608  22.733  0.00  0.00    +0.000 A 
ATOM     15  C   UNL     1      -0.857  11.498  21.275  0.00  0.00    +0.000 A 
ATOM     16  C   UNL     1      -1.932  11.850  20.540  0.00  0.00    +0.000 A 
ATOM     17  C   UNL     1      -3.151  12.407  21.182  0.00  0.00    +0.000 A 
ATOM     18  C   UNL     1      -4.162  12.776  20.372  0.00  0.00    +0.000 C 
ATOM     19  F   UNL     1      -4.046  12.634  19.033  0.00  0.00    +0.000 F 
ATOM     20  F   UNL     1      -5.313  13.297  20.853  0.00  0.00    +0.000 F 
ENDBRANCH   7  15
ENDBRANCH   1   9
BRANCH   5  21
ATOM     21  C   UNL     1       3.136   5.566  19.877  0.00  0.00    +0.000 C 
ATOM     22  C   UNL     1       2.037   4.980  20.775  0.00  0.00    +0.000 C 
BRANCH  21  23
ATOM     23  S   UNL     1       3.526   4.344  18.570  0.00  0.00    +0.000 S 
BRANCH  23  24
ATOM     24  C   UNL     1       5.229   4.551  18.383  0.00  0.00    +0.000 A 
ATOM     25  N   UNL     1       6.125   4.670  19.335  0.00  0.00    +0.000 NA
ATOM     26  N   UNL     1       7.365   4.743  18.736  0.00  0.00    +0.000 NA
ATOM     27  C   UNL     1       7.183   4.661  17.436  0.00  0.00    +0.000 A 
ATOM     28  N   UNL     1       5.851   4.555  17.168  0.00  0.00    +0.000 N 
ATOM     29  C   UNL     1       5.262   4.480  15.858  0.00  0.00    +0.000 C 
ENDBRANCH  23  24
ENDBRANCH  21  23
ENDBRANCH   5  21
TORSDOF 5
ENDMDL
