MODEL 1
REMARK VINA RESULT:      -9.9      0.000      0.000
REMARK  Name = 
REMARK  7 active torsions:
REMARK  status: ('A' for Active; 'I' for Inactive)
REMARK    1  A    between atoms: C_1  and  N_2
REMARK    2  A    between atoms: C_6  and  C_7
REMARK    3  A    between atoms: C_7  and  C_8
REMARK    4  A    between atoms: C_8  and  C_9
REMARK    5  A    between atoms: C_13  and  N_14
REMARK    6  A    between atoms: C_15  and  C_17
REMARK    7  A    between atoms: C_22  and  C_23
REMARK                            x       y       z     vdW  Elec       q    Type
REMARK                         _______ _______ _______ _____ _____    ______ ____
ROOT
ATOM      1  C   UNL     1       4.477   4.925  17.226  0.00  0.00    +0.000 A 
ATOM      2  C   UNL     1       3.671   3.776  17.082  0.00  0.00    +0.000 A 
ATOM      3  C   UNL     1       2.343   3.752  17.491  0.00  0.00    +0.000 A 
ATOM      4  C   UNL     1       1.783   4.879  18.084  0.00  0.00    +0.000 A 
ATOM      5  C   UNL     1       2.543   6.035  18.274  0.00  0.00    +0.000 A 
ATOM      6  C   UNL     1       3.859   6.061  17.804  0.00  0.00    +0.000 A 
ENDROOT
BRANCH   1   7
ATOM      7  C   UNL     1       6.021   4.930  16.799  0.00  0.00    +0.000 C 
ATOM      8  C   UNL     1       6.736   6.307  16.681  0.00  0.00    +0.000 C 
ATOM      9  O   UNL     1       7.690   5.973  17.711  0.00  0.00    +0.000 OA
ATOM     10  C   UNL     1       7.036   4.715  17.961  0.00  0.00    +0.000 C 
BRANCH   7  11
ATOM     11  C   UNL     1       6.262   3.952  15.632  0.00  0.00    +0.000 C 
BRANCH  11  17
ATOM     12  C   UNL     1       5.674   3.395  12.563  0.00  0.00    +0.000 C 
ATOM     13  N   UNL     1       6.651   4.291  13.120  0.00  0.00    +0.000 N 
ATOM     14  C   UNL     1       7.533   5.031  12.390  0.00  0.00    +0.000 A 
ATOM     15  N   UNL     1       8.268   5.759  13.196  0.00  0.00    +0.000 NA
ATOM     16  N   UNL     1       7.876   5.476  14.480  0.00  0.00    +0.000 NA
ATOM     17  C   UNL     1       6.909   4.580  14.439  0.00  0.00    +0.000 A 
ENDBRANCH  11  17
ENDBRANCH   7  11
ENDBRANCH   1   7
BRANCH   5  18
ATOM     18  N   UNL     1       2.056   7.180  18.949  0.00  0.00    +0.000 N 
ATOM     19  C   UNL     1       1.955   8.432  18.374  0.00  0.00    +0.000 C 
ATOM     20  O   UNL     1       2.230   8.716  17.211  0.00  0.00    +0.000 OA
ATOM     21  H   UNL     1       1.598   7.013  19.839  0.00  0.00    +0.000 HD
BRANCH  19  22
ATOM     22  C   UNL     1       1.433   9.540  19.216  0.00  0.00    +0.000 A 
ATOM     23  C   UNL     1       1.203  10.831  18.744  0.00  0.00    +0.000 A 
ATOM     24  C   UNL     1       0.548  11.740  19.572  0.00  0.00    +0.000 A 
ATOM     25  F   UNL     1       0.296  12.974  19.117  0.00  0.00    +0.000 F 
ATOM     26  C   UNL     1       0.101  11.385  20.846  0.00  0.00    +0.000 A 
ATOM     27  C   UNL     1       0.328  10.093  21.329  0.00  0.00    +0.000 A 
ATOM     28  C   UNL     1       1.025   9.191  20.516  0.00  0.00    +0.000 A 
BRANCH  27  29
ATOM     29  C   UNL     1      -0.205   9.618  22.656  0.00  0.00    +0.000 C 
ATOM     30  F   UNL     1      -1.016  10.519  23.271  0.00  0.00    +0.000 F 
ATOM     31  F   UNL     1      -0.940   8.477  22.532  0.00  0.00    +0.000 F 
ATOM     32  F   UNL     1       0.785   9.329  23.543  0.00  0.00    +0.000 F 
ENDBRANCH  27  29
ENDBRANCH  19  22
ENDBRANCH   5  18
TORSDOF 6
ENDMDL
MODEL 2
REMARK VINA RESULT:      -9.6      5.236      7.800
REMARK  Name = 
REMARK  7 active torsions:
REMARK  status: ('A' for Active; 'I' for Inactive)
REMARK    1  A    between atoms: C_1  and  N_2
REMARK    2  A    between atoms: C_6  and  C_7
REMARK    3  A    between atoms: C_7  and  C_8
REMARK    4  A    between atoms: C_8  and  C_9
REMARK    5  A    between atoms: C_13  and  N_14
REMARK    6  A    between atoms: C_15  and  C_17
REMARK    7  A    between atoms: C_22  and  C_23
REMARK                            x       y       z     vdW  Elec       q    Type
REMARK                         _______ _______ _______ _____ _____    ______ ____
ROOT
ATOM      1  C   UNL     1       5.065   5.065  17.685  0.00  0.00    +0.000 A 
ATOM      2  C   UNL     1       5.648   4.163  16.771  0.00  0.00    +0.000 A 
ATOM      3  C   UNL     1       6.771   4.496  16.023  0.00  0.00    +0.000 A 
ATOM      4  C   UNL     1       7.334   5.762  16.150  0.00  0.00    +0.000 A 
ATOM      5  C   UNL     1       6.781   6.703  17.022  0.00  0.00    +0.000 A 
ATOM      6  C   UNL     1       5.688   6.331  17.808  0.00  0.00    +0.000 A 
ENDROOT
BRANCH   1   7
ATOM      7  C   UNL     1       3.741   4.692  18.507  0.00  0.00    +0.000 C 
ATOM      8  C   UNL     1       3.336   5.620  19.689  0.00  0.00    +0.000 C 
ATOM      9  O   UNL     1       2.078   5.965  19.072  0.00  0.00    +0.000 OA
ATOM     10  C   UNL     1       2.406   5.208  17.892  0.00  0.00    +0.000 C 
BRANCH   7  11
ATOM     11  C   UNL     1       3.696   3.180  18.803  0.00  0.00    +0.000 C 
BRANCH  11  17
ATOM     12  C   UNL     1       0.607   2.532  19.140  0.00  0.00    +0.000 C 
ATOM     13  N   UNL     1       1.609   2.585  20.169  0.00  0.00    +0.000 N 
ATOM     14  C   UNL     1       1.369   2.400  21.499  0.00  0.00    +0.000 A 
ATOM     15  N   UNL     1       2.495   2.488  22.165  0.00  0.00    +0.000 NA
ATOM     16  N   UNL     1       3.491   2.757  21.259  0.00  0.00    +0.000 NA
ATOM     17  C   UNL     1       2.957   2.829  20.055  0.00  0.00    +0.000 A 
ENDBRANCH  11  17
ENDBRANCH   7  11
ENDBRANCH   1   7
BRANCH   5  18
ATOM     18  N   UNL     1       7.256   8.032  17.129  0.00  0.00    +0.000 N 
ATOM     19  C   UNL     1       8.135   8.463  18.103  0.00  0.00    +0.000 C 
ATOM     20  O   UNL     1       8.650   7.763  18.970  0.00  0.00    +0.000 OA
ATOM     21  H   UNL     1       7.068   8.639  16.337  0.00  0.00    +0.000 HD
BRANCH  19  22
ATOM     22  C   UNL     1       8.533   9.895  18.091  0.00  0.00    +0.000 A 
ATOM     23  C   UNL     1       7.888  10.873  17.335  0.00  0.00    +0.000 A 
ATOM     24  C   UNL     1       8.231  12.208  17.536  0.00  0.00    +0.000 A 
ATOM     25  F   UNL     1       7.596  13.158  16.836  0.00  0.00    +0.000 F 
ATOM     26  C   UNL     1       9.182  12.589  18.484  0.00  0.00    +0.000 A 
ATOM     27  C   UNL     1       9.835  11.616  19.245  0.00  0.00    +0.000 A 
ATOM     28  C   UNL     1       9.524  10.271  19.014  0.00  0.00    +0.000 A 
BRANCH  27  29
ATOM     29  C   UNL     1      10.805  11.963  20.346  0.00  0.00    +0.000 C 
ATOM     30  F   UNL     1      10.386  11.580  21.581  0.00  0.00    +0.000 F 
ATOM     31  F   UNL     1      12.018  11.369  20.163  0.00  0.00    +0.000 F 
ATOM     32  F   UNL     1      11.051  13.298  20.423  0.00  0.00    +0.000 F 
ENDBRANCH  27  29
ENDBRANCH  19  22
ENDBRANCH   5  18
TORSDOF 6
ENDMDL
MODEL 3
REMARK VINA RESULT:      -9.3      0.748      1.426
REMARK  Name = 
REMARK  7 active torsions:
REMARK  status: ('A' for Active; 'I' for Inactive)
REMARK    1  A    between atoms: C_1  and  N_2
REMARK    2  A    between atoms: C_6  and  C_7
REMARK    3  A    between atoms: C_7  and  C_8
REMARK    4  A    between atoms: C_8  and  C_9
REMARK    5  A    between atoms: C_13  and  N_14
REMARK    6  A    between atoms: C_15  and  C_17
REMARK    7  A    between atoms: C_22  and  C_23
REMARK                            x       y       z     vdW  Elec       q    Type
REMARK                         _______ _______ _______ _____ _____    ______ ____
ROOT
ATOM      1  C   UNL     1       4.494   5.246  17.074  0.00  0.00    +0.000 A 
ATOM      2  C   UNL     1       3.815   4.010  17.110  0.00  0.00    +0.000 A 
ATOM      3  C   UNL     1       2.577   3.868  17.726  0.00  0.00    +0.000 A 
ATOM      4  C   UNL     1       1.988   4.962  18.352  0.00  0.00    +0.000 A 
ATOM      5  C   UNL     1       2.629   6.203  18.368  0.00  0.00    +0.000 A 
ATOM      6  C   UNL     1       3.845   6.341  17.694  0.00  0.00    +0.000 A 
ENDROOT
BRANCH   1   7
ATOM      7  C   UNL     1       5.943   5.391  16.406  0.00  0.00    +0.000 C 
ATOM      8  C   UNL     1       7.072   6.041  17.258  0.00  0.00    +0.000 C 
ATOM      9  O   UNL     1       7.882   4.849  17.212  0.00  0.00    +0.000 OA
ATOM     10  C   UNL     1       6.854   4.132  16.504  0.00  0.00    +0.000 C 
BRANCH   7  11
ATOM     11  C   UNL     1       5.822   5.907  14.958  0.00  0.00    +0.000 C 
BRANCH  11  17
ATOM     12  C   UNL     1       8.329   5.634  13.030  0.00  0.00    +0.000 C 
ATOM     13  N   UNL     1       7.164   4.793  13.078  0.00  0.00    +0.000 N 
ATOM     14  C   UNL     1       6.931   3.739  12.245  0.00  0.00    +0.000 A 
ATOM     15  N   UNL     1       5.795   3.169  12.566  0.00  0.00    +0.000 NA
ATOM     16  N   UNL     1       5.261   3.873  13.616  0.00  0.00    +0.000 NA
ATOM     17  C   UNL     1       6.079   4.862  13.919  0.00  0.00    +0.000 A 
ENDBRANCH  11  17
ENDBRANCH   7  11
ENDBRANCH   1   7
BRANCH   5  18
ATOM     18  N   UNL     1       2.122   7.327  19.062  0.00  0.00    +0.000 N 
ATOM     19  C   UNL     1       1.910   8.563  18.483  0.00  0.00    +0.000 C 
ATOM     20  O   UNL     1       2.091   8.846  17.302  0.00  0.00    +0.000 OA
ATOM     21  H   UNL     1       1.734   7.147  19.983  0.00  0.00    +0.000 HD
BRANCH  19  22
ATOM     22  C   UNL     1       1.382   9.651  19.347  0.00  0.00    +0.000 A 
ATOM     23  C   UNL     1       1.171  10.957  18.907  0.00  0.00    +0.000 A 
ATOM     24  C   UNL     1       0.508  11.848  19.749  0.00  0.00    +0.000 A 
ATOM     25  F   UNL     1       0.274  13.096  19.325  0.00  0.00    +0.000 F 
ATOM     26  C   UNL     1       0.035  11.460  21.004  0.00  0.00    +0.000 A 
ATOM     27  C   UNL     1       0.244  10.153  21.454  0.00  0.00    +0.000 A 
ATOM     28  C   UNL     1       0.948   9.269  20.628  0.00  0.00    +0.000 A 
BRANCH  27  29
ATOM     29  C   UNL     1      -0.317   9.645  22.758  0.00  0.00    +0.000 C 
ATOM     30  F   UNL     1       0.623   9.472  23.724  0.00  0.00    +0.000 F 
ATOM     31  F   UNL     1      -1.240  10.498  23.284  0.00  0.00    +0.000 F 
ATOM     32  F   UNL     1      -0.949   8.449  22.622  0.00  0.00    +0.000 F 
ENDBRANCH  27  29
ENDBRANCH  19  22
ENDBRANCH   5  18
TORSDOF 6
ENDMDL
MODEL 4
REMARK VINA RESULT:      -9.1      4.804      9.337
REMARK  Name = 
REMARK  7 active torsions:
REMARK  status: ('A' for Active; 'I' for Inactive)
REMARK    1  A    between atoms: C_1  and  N_2
REMARK    2  A    between atoms: C_6  and  C_7
REMARK    3  A    between atoms: C_7  and  C_8
REMARK    4  A    between atoms: C_8  and  C_9
REMARK    5  A    between atoms: C_13  and  N_14
REMARK    6  A    between atoms: C_15  and  C_17
REMARK    7  A    between atoms: C_22  and  C_23
REMARK                            x       y       z     vdW  Elec       q    Type
REMARK                         _______ _______ _______ _____ _____    ______ ____
ROOT
ATOM      1  C   UNL     1      -0.341  10.151  20.202  0.00  0.00    +0.000 A 
ATOM      2  C   UNL     1      -0.275  10.198  21.611  0.00  0.00    +0.000 A 
ATOM      3  C   UNL     1       0.633   9.429  22.330  0.00  0.00    +0.000 A 
ATOM      4  C   UNL     1       1.492   8.566  21.658  0.00  0.00    +0.000 A 
ATOM      5  C   UNL     1       1.451   8.463  20.265  0.00  0.00    +0.000 A 
ATOM      6  C   UNL     1       0.572   9.284  19.555  0.00  0.00    +0.000 A 
ENDROOT
BRANCH   1   7
ATOM      7  C   UNL     1      -1.424  11.001  19.382  0.00  0.00    +0.000 C 
ATOM      8  C   UNL     1      -1.982  12.294  20.043  0.00  0.00    +0.000 C 
ATOM      9  O   UNL     1      -1.476  13.132  18.983  0.00  0.00    +0.000 OA
ATOM     10  C   UNL     1      -0.840  12.007  18.347  0.00  0.00    +0.000 C 
BRANCH   7  11
ATOM     11  C   UNL     1      -2.478  10.068  18.751  0.00  0.00    +0.000 C 
BRANCH  11  17
ATOM     12  C   UNL     1      -4.798  11.868  17.545  0.00  0.00    +0.000 C 
ATOM     13  N   UNL     1      -3.801  11.123  16.825  0.00  0.00    +0.000 N 
ATOM     14  C   UNL     1      -3.724  11.039  15.466  0.00  0.00    +0.000 A 
ATOM     15  N   UNL     1      -2.691  10.305  15.130  0.00  0.00    +0.000 NA
ATOM     16  N   UNL     1      -2.090   9.881  16.288  0.00  0.00    +0.000 NA
ATOM     17  C   UNL     1      -2.766  10.363  17.314  0.00  0.00    +0.000 A 
ENDBRANCH  11  17
ENDBRANCH   7  11
ENDBRANCH   1   7
BRANCH   5  18
ATOM     18  N   UNL     1       2.237   7.540  19.534  0.00  0.00    +0.000 N 
ATOM     19  C   UNL     1       2.226   6.175  19.748  0.00  0.00    +0.000 C 
ATOM     20  O   UNL     1       1.520   5.578  20.556  0.00  0.00    +0.000 OA
ATOM     21  H   UNL     1       2.690   7.900  18.700  0.00  0.00    +0.000 HD
BRANCH  19  22
ATOM     22  C   UNL     1       3.118   5.336  18.906  0.00  0.00    +0.000 A 
ATOM     23  C   UNL     1       2.996   3.952  18.787  0.00  0.00    +0.000 A 
ATOM     24  C   UNL     1       3.770   3.291  17.836  0.00  0.00    +0.000 A 
ATOM     25  F   UNL     1       3.639   1.966  17.692  0.00  0.00    +0.000 F 
ATOM     26  C   UNL     1       4.643   3.979  16.991  0.00  0.00    +0.000 A 
ATOM     27  C   UNL     1       4.773   5.366  17.104  0.00  0.00    +0.000 A 
ATOM     28  C   UNL     1       4.029   6.027  18.088  0.00  0.00    +0.000 A 
BRANCH  27  29
ATOM     29  C   UNL     1       5.628   6.180  16.166  0.00  0.00    +0.000 C 
ATOM     30  F   UNL     1       6.334   7.162  16.787  0.00  0.00    +0.000 F 
ATOM     31  F   UNL     1       6.549   5.412  15.518  0.00  0.00    +0.000 F 
ATOM     32  F   UNL     1       4.900   6.790  15.193  0.00  0.00    +0.000 F 
ENDBRANCH  27  29
ENDBRANCH  19  22
ENDBRANCH   5  18
TORSDOF 6
ENDMDL
MODEL 5
REMARK VINA RESULT:      -9.0      2.365      2.876
REMARK  Name = 
REMARK  7 active torsions:
REMARK  status: ('A' for Active; 'I' for Inactive)
REMARK    1  A    between atoms: C_1  and  N_2
REMARK    2  A    between atoms: C_6  and  C_7
REMARK    3  A    between atoms: C_7  and  C_8
REMARK    4  A    between atoms: C_8  and  C_9
REMARK    5  A    between atoms: C_13  and  N_14
REMARK    6  A    between atoms: C_15  and  C_17
REMARK    7  A    between atoms: C_22  and  C_23
REMARK                            x       y       z     vdW  Elec       q    Type
REMARK                         _______ _______ _______ _____ _____    ______ ____
ROOT
ATOM      1  C   UNL     1       5.213   5.773  17.961  0.00  0.00    +0.000 A 
ATOM      2  C   UNL     1       4.571   4.552  18.261  0.00  0.00    +0.000 A 
ATOM      3  C   UNL     1       3.195   4.468  18.432  0.00  0.00    +0.000 A 
ATOM      4  C   UNL     1       2.415   5.616  18.333  0.00  0.00    +0.000 A 
ATOM      5  C   UNL     1       3.002   6.854  18.063  0.00  0.00    +0.000 A 
ATOM      6  C   UNL     1       4.380   6.911  17.837  0.00  0.00    +0.000 A 
ENDROOT
BRANCH   1   7
ATOM      7  C   UNL     1       6.805   5.873  17.815  0.00  0.00    +0.000 C 
ATOM      8  C   UNL     1       7.412   7.250  17.418  0.00  0.00    +0.000 C 
ATOM      9  O   UNL     1       8.166   7.344  18.644  0.00  0.00    +0.000 OA
ATOM     10  C   UNL     1       7.584   6.125  19.140  0.00  0.00    +0.000 C 
BRANCH   7  11
ATOM     11  C   UNL     1       7.355   4.657  17.043  0.00  0.00    +0.000 C 
BRANCH  11  17
ATOM     12  C   UNL     1       5.240   2.998  15.355  0.00  0.00    +0.000 C 
ATOM     13  N   UNL     1       6.199   3.951  14.866  0.00  0.00    +0.000 N 
ATOM     14  C   UNL     1       6.381   4.267  13.552  0.00  0.00    +0.000 A 
ATOM     15  N   UNL     1       7.311   5.185  13.446  0.00  0.00    +0.000 NA
ATOM     16  N   UNL     1       7.764   5.462  14.711  0.00  0.00    +0.000 NA
ATOM     17  C   UNL     1       7.104   4.709  15.570  0.00  0.00    +0.000 A 
ENDBRANCH  11  17
ENDBRANCH   7  11
ENDBRANCH   1   7
BRANCH   5  18
ATOM     18  N   UNL     1       2.273   8.067  18.038  0.00  0.00    +0.000 N 
ATOM     19  C   UNL     1       1.681   8.636  19.148  0.00  0.00    +0.000 C 
ATOM     20  O   UNL     1       1.733   8.202  20.296  0.00  0.00    +0.000 OA
ATOM     21  H   UNL     1       2.353   8.619  17.190  0.00  0.00    +0.000 HD
BRANCH  19  22
ATOM     22  C   UNL     1       0.937   9.909  18.960  0.00  0.00    +0.000 A 
ATOM     23  C   UNL     1       1.507  11.172  19.123  0.00  0.00    +0.000 A 
ATOM     24  C   UNL     1       0.769  12.292  18.749  0.00  0.00    +0.000 A 
ATOM     25  F   UNL     1       1.317  13.507  18.873  0.00  0.00    +0.000 F 
ATOM     26  C   UNL     1      -0.509  12.181  18.199  0.00  0.00    +0.000 A 
ATOM     27  C   UNL     1      -1.090  10.920  18.033  0.00  0.00    +0.000 A 
ATOM     28  C   UNL     1      -0.368   9.796  18.449  0.00  0.00    +0.000 A 
BRANCH  27  29
ATOM     29  C   UNL     1      -2.427  10.724  17.365  0.00  0.00    +0.000 C 
ATOM     30  F   UNL     1      -3.386  11.581  17.805  0.00  0.00    +0.000 F 
ATOM     31  F   UNL     1      -2.355  10.904  16.016  0.00  0.00    +0.000 F 
ATOM     32  F   UNL     1      -2.922   9.471  17.548  0.00  0.00    +0.000 F 
ENDBRANCH  27  29
ENDBRANCH  19  22
ENDBRANCH   5  18
TORSDOF 6
ENDMDL
MODEL 6
REMARK VINA RESULT:      -9.0      1.921      3.010
REMARK  Name = 
REMARK  7 active torsions:
REMARK  status: ('A' for Active; 'I' for Inactive)
REMARK    1  A    between atoms: C_1  and  N_2
REMARK    2  A    between atoms: C_6  and  C_7
REMARK    3  A    between atoms: C_7  and  C_8
REMARK    4  A    between atoms: C_8  and  C_9
REMARK    5  A    between atoms: C_13  and  N_14
REMARK    6  A    between atoms: C_15  and  C_17
REMARK    7  A    between atoms: C_22  and  C_23
REMARK                            x       y       z     vdW  Elec       q    Type
REMARK                         _______ _______ _______ _____ _____    ______ ____
ROOT
ATOM      1  C   UNL     1       4.267   4.787  16.902  0.00  0.00    +0.000 A 
ATOM      2  C   UNL     1       3.692   3.534  17.204  0.00  0.00    +0.000 A 
ATOM      3  C   UNL     1       2.583   3.413  18.034  0.00  0.00    +0.000 A 
ATOM      4  C   UNL     1       2.027   4.550  18.612  0.00  0.00    +0.000 A 
ATOM      5  C   UNL     1       2.572   5.812  18.367  0.00  0.00    +0.000 A 
ATOM      6  C   UNL     1       3.650   5.921  17.485  0.00  0.00    +0.000 A 
ENDROOT
BRANCH   1   7
ATOM      7  C   UNL     1       5.575   4.914  15.986  0.00  0.00    +0.000 C 
ATOM      8  C   UNL     1       6.416   3.628  15.742  0.00  0.00    +0.000 C 
ATOM      9  O   UNL     1       6.202   3.680  14.316  0.00  0.00    +0.000 OA
ATOM     10  C   UNL     1       5.328   4.817  14.451  0.00  0.00    +0.000 C 
BRANCH   7  11
ATOM     11  C   UNL     1       6.379   6.174  16.364  0.00  0.00    +0.000 C 
BRANCH  11  17
ATOM     12  C   UNL     1       8.024   8.421  17.888  0.00  0.00    +0.000 C 
ATOM     13  N   UNL     1       7.823   7.055  18.291  0.00  0.00    +0.000 N 
ATOM     14  C   UNL     1       8.362   6.487  19.407  0.00  0.00    +0.000 A 
ATOM     15  N   UNL     1       7.967   5.240  19.499  0.00  0.00    +0.000 NA
ATOM     16  N   UNL     1       7.170   4.978  18.413  0.00  0.00    +0.000 NA
ATOM     17  C   UNL     1       7.092   6.068  17.675  0.00  0.00    +0.000 A 
ENDBRANCH  11  17
ENDBRANCH   7  11
ENDBRANCH   1   7
BRANCH   5  18
ATOM     18  N   UNL     1       2.105   6.992  18.994  0.00  0.00    +0.000 N 
ATOM     19  C   UNL     1       2.011   8.218  18.364  0.00  0.00    +0.000 C 
ATOM     20  O   UNL     1       2.277   8.446  17.187  0.00  0.00    +0.000 OA
ATOM     21  H   UNL     1       1.656   6.871  19.896  0.00  0.00    +0.000 HD
BRANCH  19  22
ATOM     22  C   UNL     1       1.512   9.369  19.161  0.00  0.00    +0.000 A 
ATOM     23  C   UNL     1       1.355  10.657  18.650  0.00  0.00    +0.000 A 
ATOM     24  C   UNL     1       0.714  11.614  19.433  0.00  0.00    +0.000 A 
ATOM     25  F   UNL     1       0.531  12.846  18.939  0.00  0.00    +0.000 F 
ATOM     26  C   UNL     1       0.210  11.312  20.699  0.00  0.00    +0.000 A 
ATOM     27  C   UNL     1       0.364  10.024  21.221  0.00  0.00    +0.000 A 
ATOM     28  C   UNL     1       1.046   9.073  20.454  0.00  0.00    +0.000 A 
BRANCH  27  29
ATOM     29  C   UNL     1      -0.233   9.607  22.541  0.00  0.00    +0.000 C 
ATOM     30  F   UNL     1      -0.980   8.474  22.465  0.00  0.00    +0.000 F 
ATOM     31  F   UNL     1       0.724   9.361  23.479  0.00  0.00    +0.000 F 
ATOM     32  F   UNL     1      -1.041  10.562  23.073  0.00  0.00    +0.000 F 
ENDBRANCH  27  29
ENDBRANCH  19  22
ENDBRANCH   5  18
TORSDOF 6
ENDMDL
MODEL 7
REMARK VINA RESULT:      -9.0      4.722      9.713
REMARK  Name = 
REMARK  7 active torsions:
REMARK  status: ('A' for Active; 'I' for Inactive)
REMARK    1  A    between atoms: C_1  and  N_2
REMARK    2  A    between atoms: C_6  and  C_7
REMARK    3  A    between atoms: C_7  and  C_8
REMARK    4  A    between atoms: C_8  and  C_9
REMARK    5  A    between atoms: C_13  and  N_14
REMARK    6  A    between atoms: C_15  and  C_17
REMARK    7  A    between atoms: C_22  and  C_23
REMARK                            x       y       z     vdW  Elec       q    Type
REMARK                         _______ _______ _______ _____ _____    ______ ____
ROOT
ATOM      1  C   UNL     1       0.169  10.399  20.176  0.00  0.00    +0.000 A 
ATOM      2  C   UNL     1      -0.116  10.175  21.540  0.00  0.00    +0.000 A 
ATOM      3  C   UNL     1       0.410   9.091  22.233  0.00  0.00    +0.000 A 
ATOM      4  C   UNL     1       1.225   8.177  21.570  0.00  0.00    +0.000 A 
ATOM      5  C   UNL     1       1.518   8.339  20.215  0.00  0.00    +0.000 A 
ATOM      6  C   UNL     1       1.028   9.465  19.548  0.00  0.00    +0.000 A 
ENDROOT
BRANCH   1   7
ATOM      7  C   UNL     1      -0.481  11.622  19.370  0.00  0.00    +0.000 C 
ATOM      8  C   UNL     1      -1.454  11.285  18.204  0.00  0.00    +0.000 C 
ATOM      9  O   UNL     1      -2.557  11.963  18.842  0.00  0.00    +0.000 OA
ATOM     10  C   UNL     1      -1.761  12.238  20.009  0.00  0.00    +0.000 C 
BRANCH   7  11
ATOM     11  C   UNL     1       0.584  12.692  19.060  0.00  0.00    +0.000 C 
BRANCH  11  17
ATOM     12  C   UNL     1      -0.208  15.755  19.326  0.00  0.00    +0.000 C 
ATOM     13  N   UNL     1       0.528  14.954  20.266  0.00  0.00    +0.000 N 
ATOM     14  C   UNL     1       1.054  15.416  21.436  0.00  0.00    +0.000 A 
ATOM     15  N   UNL     1       1.642  14.432  22.072  0.00  0.00    +0.000 NA
ATOM     16  N   UNL     1       1.520  13.307  21.296  0.00  0.00    +0.000 NA
ATOM     17  C   UNL     1       0.859  13.622  20.199  0.00  0.00    +0.000 A 
ENDBRANCH  11  17
ENDBRANCH   7  11
ENDBRANCH   1   7
BRANCH   5  18
ATOM     18  N   UNL     1       2.267   7.397  19.468  0.00  0.00    +0.000 N 
ATOM     19  C   UNL     1       2.240   6.035  19.694  0.00  0.00    +0.000 C 
ATOM     20  O   UNL     1       1.550   5.456  20.528  0.00  0.00    +0.000 OA
ATOM     21  H   UNL     1       2.699   7.743  18.617  0.00  0.00    +0.000 HD
BRANCH  19  22
ATOM     22  C   UNL     1       3.092   5.174  18.832  0.00  0.00    +0.000 A 
ATOM     23  C   UNL     1       3.003   3.783  18.795  0.00  0.00    +0.000 A 
ATOM     24  C   UNL     1       3.724   3.092  17.824  0.00  0.00    +0.000 A 
ATOM     25  F   UNL     1       3.622   1.758  17.760  0.00  0.00    +0.000 F 
ATOM     26  C   UNL     1       4.512   3.755  16.881  0.00  0.00    +0.000 A 
ATOM     27  C   UNL     1       4.609   5.149  16.912  0.00  0.00    +0.000 A 
ATOM     28  C   UNL     1       3.920   5.843  17.913  0.00  0.00    +0.000 A 
BRANCH  27  29
ATOM     29  C   UNL     1       5.369   5.932  15.871  0.00  0.00    +0.000 C 
ATOM     30  F   UNL     1       6.624   6.279  16.261  0.00  0.00    +0.000 F 
ATOM     31  F   UNL     1       5.519   5.231  14.713  0.00  0.00    +0.000 F 
ATOM     32  F   UNL     1       4.742   7.089  15.529  0.00  0.00    +0.000 F 
ENDBRANCH  27  29
ENDBRANCH  19  22
ENDBRANCH   5  18
TORSDOF 6
ENDMDL
MODEL 8
REMARK VINA RESULT:      -9.0      2.294      2.899
REMARK  Name = 
REMARK  7 active torsions:
REMARK  status: ('A' for Active; 'I' for Inactive)
REMARK    1  A    between atoms: C_1  and  N_2
REMARK    2  A    between atoms: C_6  and  C_7
REMARK    3  A    between atoms: C_7  and  C_8
REMARK    4  A    between atoms: C_8  and  C_9
REMARK    5  A    between atoms: C_13  and  N_14
REMARK    6  A    between atoms: C_15  and  C_17
REMARK    7  A    between atoms: C_22  and  C_23
REMARK                            x       y       z     vdW  Elec       q    Type
REMARK                         _______ _______ _______ _____ _____    ______ ____
ROOT
ATOM      1  C   UNL     1       5.384   5.531  18.615  0.00  0.00    +0.000 A 
ATOM      2  C   UNL     1       4.922   4.278  19.069  0.00  0.00    +0.000 A 
ATOM      3  C   UNL     1       3.622   4.093  19.524  0.00  0.00    +0.000 A 
ATOM      4  C   UNL     1       2.744   5.172  19.562  0.00  0.00    +0.000 A 
ATOM      5  C   UNL     1       3.157   6.441  19.147  0.00  0.00    +0.000 A 
ATOM      6  C   UNL     1       4.449   6.595  18.639  0.00  0.00    +0.000 A 
ENDROOT
BRANCH   1   7
ATOM      7  C   UNL     1       6.898   5.749  18.139  0.00  0.00    +0.000 C 
ATOM      8  C   UNL     1       7.295   7.155  17.604  0.00  0.00    +0.000 C 
ATOM      9  O   UNL     1       8.276   7.346  18.645  0.00  0.00    +0.000 OA
ATOM     10  C   UNL     1       7.910   6.102  19.270  0.00  0.00    +0.000 C 
BRANCH   7  11
ATOM     11  C   UNL     1       7.375   4.554  17.289  0.00  0.00    +0.000 C 
BRANCH  11  17
ATOM     12  C   UNL     1       4.855   3.272  15.846  0.00  0.00    +0.000 C 
ATOM     13  N   UNL     1       5.906   4.049  15.249  0.00  0.00    +0.000 N 
ATOM     14  C   UNL     1       6.007   4.327  13.918  0.00  0.00    +0.000 A 
ATOM     15  N   UNL     1       7.063   5.074  13.704  0.00  0.00    +0.000 NA
ATOM     16  N   UNL     1       7.680   5.274  14.913  0.00  0.00    +0.000 NA
ATOM     17  C   UNL     1       6.991   4.645  15.846  0.00  0.00    +0.000 A 
ENDBRANCH  11  17
ENDBRANCH   7  11
ENDBRANCH   1   7
BRANCH   5  18
ATOM     18  N   UNL     1       2.339   7.592  19.246  0.00  0.00    +0.000 N 
ATOM     19  C   UNL     1       2.107   8.466  18.202  0.00  0.00    +0.000 C 
ATOM     20  O   UNL     1       2.536   8.353  17.057  0.00  0.00    +0.000 OA
ATOM     21  H   UNL     1       1.763   7.661  20.078  0.00  0.00    +0.000 HD
BRANCH  19  22
ATOM     22  C   UNL     1       1.232   9.639  18.464  0.00  0.00    +0.000 A 
ATOM     23  C   UNL     1       1.692  10.851  18.978  0.00  0.00    +0.000 A 
ATOM     24  C   UNL     1       0.819  11.936  19.016  0.00  0.00    +0.000 A 
ATOM     25  F   UNL     1       1.259  13.112  19.481  0.00  0.00    +0.000 F 
ATOM     26  C   UNL     1      -0.488  11.845  18.535  0.00  0.00    +0.000 A 
ATOM     27  C   UNL     1      -0.959  10.635  18.019  0.00  0.00    +0.000 A 
ATOM     28  C   UNL     1      -0.098   9.531  18.020  0.00  0.00    +0.000 A 
BRANCH  27  29
ATOM     29  C   UNL     1      -2.327  10.492  17.402  0.00  0.00    +0.000 C 
ATOM     30  F   UNL     1      -2.333  10.642  16.051  0.00  0.00    +0.000 F 
ATOM     31  F   UNL     1      -2.871   9.267  17.644  0.00  0.00    +0.000 F 
ATOM     32  F   UNL     1      -3.216  11.398  17.891  0.00  0.00    +0.000 F 
ENDBRANCH  27  29
ENDBRANCH  19  22
ENDBRANCH   5  18
TORSDOF 6
ENDMDL
MODEL 9
REMARK VINA RESULT:      -8.9      4.845      9.640
REMARK  Name = 
REMARK  7 active torsions:
REMARK  status: ('A' for Active; 'I' for Inactive)
REMARK    1  A    between atoms: C_1  and  N_2
REMARK    2  A    between atoms: C_6  and  C_7
REMARK    3  A    between atoms: C_7  and  C_8
REMARK    4  A    between atoms: C_8  and  C_9
REMARK    5  A    between atoms: C_13  and  N_14
REMARK    6  A    between atoms: C_15  and  C_17
REMARK    7  A    between atoms: C_22  and  C_23
REMARK                            x       y       z     vdW  Elec       q    Type
REMARK                         _______ _______ _______ _____ _____    ______ ____
ROOT
ATOM      1  C   UNL     1      -0.084  10.274  20.027  0.00  0.00    +0.000 A 
ATOM      2  C   UNL     1      -0.103  10.252  21.437  0.00  0.00    +0.000 A 
ATOM      3  C   UNL     1       0.678   9.367  22.170  0.00  0.00    +0.000 A 
ATOM      4  C   UNL     1       1.491   8.452  21.508  0.00  0.00    +0.000 A 
ATOM      5  C   UNL     1       1.528   8.414  20.112  0.00  0.00    +0.000 A 
ATOM      6  C   UNL     1       0.780   9.349  19.392  0.00  0.00    +0.000 A 
ENDROOT
BRANCH   1   7
ATOM      7  C   UNL     1      -1.026  11.262  19.187  0.00  0.00    +0.000 C 
ATOM      8  C   UNL     1      -1.834  12.334  19.973  0.00  0.00    +0.000 C 
ATOM      9  O   UNL     1      -1.178  13.423  19.290  0.00  0.00    +0.000 OA
ATOM     10  C   UNL     1      -0.316  12.511  18.585  0.00  0.00    +0.000 C 
BRANCH   7  11
ATOM     11  C   UNL     1      -1.819  10.478  18.123  0.00  0.00    +0.000 C 
BRANCH  11  17
ATOM     12  C   UNL     1      -3.213  10.852  15.295  0.00  0.00    +0.000 C 
ATOM     13  N   UNL     1      -3.727  11.229  16.583  0.00  0.00    +0.000 N 
ATOM     14  C   UNL     1      -4.915  11.866  16.790  0.00  0.00    +0.000 A 
ATOM     15  N   UNL     1      -5.100  12.044  18.075  0.00  0.00    +0.000 NA
ATOM     16  N   UNL     1      -4.005  11.534  18.725  0.00  0.00    +0.000 NA
ATOM     17  C   UNL     1      -3.168  11.053  17.826  0.00  0.00    +0.000 A 
ENDBRANCH  11  17
ENDBRANCH   7  11
ENDBRANCH   1   7
BRANCH   5  18
ATOM     18  N   UNL     1       2.266   7.450  19.384  0.00  0.00    +0.000 N 
ATOM     19  C   UNL     1       2.278   6.101  19.680  0.00  0.00    +0.000 C 
ATOM     20  O   UNL     1       1.634   5.552  20.570  0.00  0.00    +0.000 OA
ATOM     21  H   UNL     1       2.657   7.760  18.500  0.00  0.00    +0.000 HD
BRANCH  19  22
ATOM     22  C   UNL     1       3.113   5.213  18.828  0.00  0.00    +0.000 A 
ATOM     23  C   UNL     1       2.983   3.825  18.793  0.00  0.00    +0.000 A 
ATOM     24  C   UNL     1       3.694   3.111  17.831  0.00  0.00    +0.000 A 
ATOM     25  F   UNL     1       3.554   1.780  17.769  0.00  0.00    +0.000 F 
ATOM     26  C   UNL     1       4.510   3.748  16.895  0.00  0.00    +0.000 A 
ATOM     27  C   UNL     1       4.648   5.139  16.924  0.00  0.00    +0.000 A 
ATOM     28  C   UNL     1       3.969   5.855  17.917  0.00  0.00    +0.000 A 
BRANCH  27  29
ATOM     29  C   UNL     1       5.440   5.897  15.889  0.00  0.00    +0.000 C 
ATOM     30  F   UNL     1       6.670   6.284  16.322  0.00  0.00    +0.000 F 
ATOM     31  F   UNL     1       5.656   5.155  14.767  0.00  0.00    +0.000 F 
ATOM     32  F   UNL     1       4.809   7.028  15.474  0.00  0.00    +0.000 F 
ENDBRANCH  27  29
ENDBRANCH  19  22
ENDBRANCH   5  18
TORSDOF 6
ENDMDL
