MODEL 1
REMARK VINA RESULT:      -7.8      0.000      0.000
REMARK  Name = 
REMARK  5 active torsions:
REMARK  status: ('A' for Active; 'I' for Inactive)
REMARK    1  A    between atoms: C_1  and  C_2
REMARK    2  A    between atoms: C_4  and  C_5
REMARK    3  A    between atoms: C_8  and  S_9
REMARK    4  A    between atoms: S_9  and  N_12
REMARK    5  A    between atoms: N_18  and  C_19
REMARK                            x       y       z     vdW  Elec       q    Type
REMARK                         _______ _______ _______ _____ _____    ______ ____
ROOT
ATOM      1  C   UNL     1       1.045   9.718  20.038  0.00  0.00    +0.000 A 
ATOM      2  C   UNL     1       1.251   8.672  20.950  0.00  0.00    +0.000 A 
ATOM      3  C   UNL     1       1.789   7.474  20.476  0.00  0.00    +0.000 A 
ATOM      4  C   UNL     1       2.054   7.294  19.104  0.00  0.00    +0.000 A 
ATOM      5  C   UNL     1       1.972   8.360  18.231  0.00  0.00    +0.000 A 
ATOM      6  C   UNL     1       1.465   9.569  18.706  0.00  0.00    +0.000 A 
ENDROOT
BRANCH   1  10
ATOM      7  C   UNL     1      -0.741  13.419  22.717  0.00  0.00    +0.000 C 
ATOM      8  C   UNL     1      -0.362  12.502  21.625  0.00  0.00    +0.000 A 
ATOM      9  N   UNL     1       0.146  11.297  21.717  0.00  0.00    +0.000 NA
ATOM     10  C   UNL     1       0.358  10.932  20.410  0.00  0.00    +0.000 A 
ATOM     11  C   UNL     1      -0.046  11.945  19.573  0.00  0.00    +0.000 A 
ATOM     12  O   UNL     1      -0.513  12.967  20.346  0.00  0.00    +0.000 OA
ENDBRANCH   1  10
BRANCH   4  13
ATOM     13  S   UNL     1       2.682   5.757  18.549  0.00  0.00    +0.000 S 
ATOM     14  O   UNL     1       1.711   5.248  17.599  0.00  0.00    +0.000 OA
ATOM     15  O   UNL     1       4.008   6.028  18.054  0.00  0.00    +0.000 OA
BRANCH  13  16
ATOM     16  N   UNL     1       2.745   4.491  19.772  0.00  0.00    +0.000 NA
ATOM     17  C   UNL     1       3.589   3.225  20.259  0.00  0.00    +0.000 C 
ATOM     18  C   UNL     1       2.631   2.576  21.321  0.00  0.00    +0.000 C 
ATOM     19  C   UNL     1       1.325   3.277  21.058  0.00  0.00    +0.000 C 
ATOM     20  C   UNL     1       1.452   3.780  19.610  0.00  0.00    +0.000 C 
ATOM     21  C   UNL     1       1.739   2.779  18.354  0.00  0.00    +0.000 C 
ATOM     22  N   UNL     1       3.163   2.333  18.013  0.00  0.00    +0.000 NA
ATOM     23  C   UNL     1       4.184   3.197  17.411  0.00  0.00    +0.000 C 
ATOM     24  C   UNL     1       3.760   2.008  19.282  0.00  0.00    +0.000 C 
ENDBRANCH  13  16
ENDBRANCH   4  13
TORSDOF 3
ENDMDL
MODEL 2
REMARK VINA RESULT:      -7.7      1.500      1.600
REMARK  Name = 
REMARK  5 active torsions:
REMARK  status: ('A' for Active; 'I' for Inactive)
REMARK    1  A    between atoms: C_1  and  C_2
REMARK    2  A    between atoms: C_4  and  C_5
REMARK    3  A    between atoms: C_8  and  S_9
REMARK    4  A    between atoms: S_9  and  N_12
REMARK    5  A    between atoms: N_18  and  C_19
REMARK                            x       y       z     vdW  Elec       q    Type
REMARK                         _______ _______ _______ _____ _____    ______ ____
ROOT
ATOM      1  C   UNL     1       1.023   9.921  19.054  0.00  0.00    +0.000 A 
ATOM      2  C   UNL     1       1.087   9.136  20.215  0.00  0.00    +0.000 A 
ATOM      3  C   UNL     1       1.750   7.909  20.149  0.00  0.00    +0.000 A 
ATOM      4  C   UNL     1       2.282   7.439  18.933  0.00  0.00    +0.000 A 
ATOM      5  C   UNL     1       2.330   8.263  17.827  0.00  0.00    +0.000 A 
ATOM      6  C   UNL     1       1.697   9.503  17.896  0.00  0.00    +0.000 A 
ENDROOT
BRANCH   1  10
ATOM      7  C   UNL     1      -0.226  14.663  18.900  0.00  0.00    +0.000 C 
ATOM      8  C   UNL     1      -0.226  13.188  18.911  0.00  0.00    +0.000 A 
ATOM      9  N   UNL     1       0.764  12.378  19.197  0.00  0.00    +0.000 NA
ATOM     10  C   UNL     1       0.233  11.129  18.992  0.00  0.00    +0.000 A 
ATOM     11  C   UNL     1      -1.078  11.240  18.595  0.00  0.00    +0.000 A 
ATOM     12  O   UNL     1      -1.388  12.567  18.537  0.00  0.00    +0.000 OA
ENDBRANCH   1  10
BRANCH   4  13
ATOM     13  S   UNL     1       3.062   5.872  18.889  0.00  0.00    +0.000 S 
ATOM     14  O   UNL     1       2.792   5.328  17.571  0.00  0.00    +0.000 OA
ATOM     15  O   UNL     1       4.441   6.107  19.234  0.00  0.00    +0.000 OA
BRANCH  13  16
ATOM     16  N   UNL     1       2.371   4.664  19.968  0.00  0.00    +0.000 NA
ATOM     17  C   UNL     1       2.750   3.523  21.020  0.00  0.00    +0.000 C 
ATOM     18  C   UNL     1       1.373   2.801  21.238  0.00  0.00    +0.000 C 
ATOM     19  C   UNL     1       0.538   3.333  20.103  0.00  0.00    +0.000 C 
ATOM     20  C   UNL     1       1.570   3.799  19.063  0.00  0.00    +0.000 C 
ATOM     21  C   UNL     1       2.691   2.798  18.428  0.00  0.00    +0.000 C 
ATOM     22  N   UNL     1       4.001   2.512  19.167  0.00  0.00    +0.000 NA
ATOM     23  C   UNL     1       5.102   3.471  19.309  0.00  0.00    +0.000 C 
ATOM     24  C   UNL     1       3.611   2.304  20.536  0.00  0.00    +0.000 C 
ENDBRANCH  13  16
ENDBRANCH   4  13
TORSDOF 3
ENDMDL
MODEL 3
REMARK VINA RESULT:      -7.7      0.445      1.085
REMARK  Name = 
REMARK  5 active torsions:
REMARK  status: ('A' for Active; 'I' for Inactive)
REMARK    1  A    between atoms: C_1  and  C_2
REMARK    2  A    between atoms: C_4  and  C_5
REMARK    3  A    between atoms: C_8  and  S_9
REMARK    4  A    between atoms: S_9  and  N_12
REMARK    5  A    between atoms: N_18  and  C_19
REMARK                            x       y       z     vdW  Elec       q    Type
REMARK                         _______ _______ _______ _____ _____    ______ ____
ROOT
ATOM      1  C   UNL     1       1.016   9.793  19.995  0.00  0.00    +0.000 A 
ATOM      2  C   UNL     1       1.381   9.627  18.651  0.00  0.00    +0.000 A 
ATOM      3  C   UNL     1       1.906   8.395  18.254  0.00  0.00    +0.000 A 
ATOM      4  C   UNL     1       2.130   7.369  19.192  0.00  0.00    +0.000 A 
ATOM      5  C   UNL     1       1.656   7.487  20.483  0.00  0.00    +0.000 A 
ATOM      6  C   UNL     1       1.102   8.703  20.877  0.00  0.00    +0.000 A 
ENDROOT
BRANCH   1  10
ATOM      7  C   UNL     1      -1.050  13.205  22.851  0.00  0.00    +0.000 C 
ATOM      8  C   UNL     1      -0.296  12.485  21.808  0.00  0.00    +0.000 A 
ATOM      9  N   UNL     1      -0.320  11.204  21.527  0.00  0.00    +0.000 NA
ATOM     10  C   UNL     1       0.607  11.074  20.522  0.00  0.00    +0.000 A 
ATOM     11  C   UNL     1       1.151  12.301  20.228  0.00  0.00    +0.000 A 
ATOM     12  O   UNL     1       0.576  13.223  21.054  0.00  0.00    +0.000 OA
ENDBRANCH   1  10
BRANCH   4  13
ATOM     13  S   UNL     1       2.837   5.859  18.656  0.00  0.00    +0.000 S 
ATOM     14  O   UNL     1       1.979   5.371  17.593  0.00  0.00    +0.000 OA
ATOM     15  O   UNL     1       4.203   6.162  18.312  0.00  0.00    +0.000 OA
BRANCH  13  16
ATOM     16  N   UNL     1       2.791   4.553  19.836  0.00  0.00    +0.000 NA
ATOM     17  C   UNL     1       3.557   3.235  20.315  0.00  0.00    +0.000 C 
ATOM     18  C   UNL     1       2.527   2.596  21.313  0.00  0.00    +0.000 C 
ATOM     19  C   UNL     1       1.265   3.363  21.019  0.00  0.00    +0.000 C 
ATOM     20  C   UNL     1       1.477   3.906  19.596  0.00  0.00    +0.000 C 
ATOM     21  C   UNL     1       1.775   2.934  18.320  0.00  0.00    +0.000 C 
ATOM     22  N   UNL     1       3.192   2.436  18.024  0.00  0.00    +0.000 NA
ATOM     23  C   UNL     1       4.275   3.273  17.496  0.00  0.00    +0.000 C 
ATOM     24  C   UNL     1       3.718   2.044  19.305  0.00  0.00    +0.000 C 
ENDBRANCH  13  16
ENDBRANCH   4  13
TORSDOF 3
ENDMDL
MODEL 4
REMARK VINA RESULT:      -7.6      0.922      1.364
REMARK  Name = 
REMARK  5 active torsions:
REMARK  status: ('A' for Active; 'I' for Inactive)
REMARK    1  A    between atoms: C_1  and  C_2
REMARK    2  A    between atoms: C_4  and  C_5
REMARK    3  A    between atoms: C_8  and  S_9
REMARK    4  A    between atoms: S_9  and  N_12
REMARK    5  A    between atoms: N_18  and  C_19
REMARK                            x       y       z     vdW  Elec       q    Type
REMARK                         _______ _______ _______ _____ _____    ______ ____
ROOT
ATOM      1  C   UNL     1       0.935  10.019  19.819  0.00  0.00    +0.000 A 
ATOM      2  C   UNL     1       1.401   9.732  18.527  0.00  0.00    +0.000 A 
ATOM      3  C   UNL     1       1.961   8.475  18.289  0.00  0.00    +0.000 A 
ATOM      4  C   UNL     1       2.119   7.544  19.334  0.00  0.00    +0.000 A 
ATOM      5  C   UNL     1       1.549   7.777  20.569  0.00  0.00    +0.000 A 
ATOM      6  C   UNL     1       0.959   9.018  20.803  0.00  0.00    +0.000 A 
ENDROOT
BRANCH   1  10
ATOM      7  C   UNL     1       0.710  14.440  21.934  0.00  0.00    +0.000 C 
ATOM      8  C   UNL     1       0.461  13.232  21.125  0.00  0.00    +0.000 A 
ATOM      9  N   UNL     1       1.048  12.063  21.209  0.00  0.00    +0.000 NA
ATOM     10  C   UNL     1       0.480  11.339  20.190  0.00  0.00    +0.000 A 
ATOM     11  C   UNL     1      -0.446  12.110  19.531  0.00  0.00    +0.000 A 
ATOM     12  O   UNL     1      -0.468  13.339  20.124  0.00  0.00    +0.000 OA
ENDBRANCH   1  10
BRANCH   4  13
ATOM     13  S   UNL     1       2.872   6.000  18.997  0.00  0.00    +0.000 S 
ATOM     14  O   UNL     1       2.390   5.596  17.689  0.00  0.00    +0.000 OA
ATOM     15  O   UNL     1       4.290   6.212  19.138  0.00  0.00    +0.000 OA
BRANCH  13  16
ATOM     16  N   UNL     1       2.357   4.676  20.038  0.00  0.00    +0.000 NA
ATOM     17  C   UNL     1       2.899   3.484  20.953  0.00  0.00    +0.000 C 
ATOM     18  C   UNL     1       1.590   2.667  21.246  0.00  0.00    +0.000 C 
ATOM     19  C   UNL     1       0.619   3.233  20.243  0.00  0.00    +0.000 C 
ATOM     20  C   UNL     1       1.515   3.835  19.149  0.00  0.00    +0.000 C 
ATOM     21  C   UNL     1       2.615   2.952  18.329  0.00  0.00    +0.000 C 
ATOM     22  N   UNL     1       4.006   2.690  18.912  0.00  0.00    +0.000 NA
ATOM     23  C   UNL     1       5.065   3.699  19.023  0.00  0.00    +0.000 C 
ATOM     24  C   UNL     1       3.769   2.357  20.292  0.00  0.00    +0.000 C 
ENDBRANCH  13  16
ENDBRANCH   4  13
TORSDOF 3
ENDMDL
MODEL 5
REMARK VINA RESULT:      -7.6      1.224      1.283
REMARK  Name = 
REMARK  5 active torsions:
REMARK  status: ('A' for Active; 'I' for Inactive)
REMARK    1  A    between atoms: C_1  and  C_2
REMARK    2  A    between atoms: C_4  and  C_5
REMARK    3  A    between atoms: C_8  and  S_9
REMARK    4  A    between atoms: S_9  and  N_12
REMARK    5  A    between atoms: N_18  and  C_19
REMARK                            x       y       z     vdW  Elec       q    Type
REMARK                         _______ _______ _______ _____ _____    ______ ____
ROOT
ATOM      1  C   UNL     1       0.852   9.906  19.481  0.00  0.00    +0.000 A 
ATOM      2  C   UNL     1       1.030   9.063  20.588  0.00  0.00    +0.000 A 
ATOM      3  C   UNL     1       1.700   7.852  20.398  0.00  0.00    +0.000 A 
ATOM      4  C   UNL     1       2.124   7.454  19.115  0.00  0.00    +0.000 A 
ATOM      5  C   UNL     1       2.062   8.335  18.055  0.00  0.00    +0.000 A 
ATOM      6  C   UNL     1       1.423   9.559  18.246  0.00  0.00    +0.000 A 
ENDROOT
BRANCH   1  10
ATOM      7  C   UNL     1      -2.962  12.910  20.188  0.00  0.00    +0.000 C 
ATOM      8  C   UNL     1      -1.636  12.334  19.897  0.00  0.00    +0.000 A 
ATOM      9  N   UNL     1      -1.315  11.071  19.742  0.00  0.00    +0.000 NA
ATOM     10  C   UNL     1       0.045  11.101  19.554  0.00  0.00    +0.000 A 
ATOM     11  C   UNL     1       0.492  12.400  19.594  0.00  0.00    +0.000 A 
ATOM     12  O   UNL     1      -0.585  13.208  19.817  0.00  0.00    +0.000 OA
ENDBRANCH   1  10
BRANCH   4  13
ATOM     13  S   UNL     1       2.916   5.905  18.919  0.00  0.00    +0.000 S 
ATOM     14  O   UNL     1       2.522   5.418  17.610  0.00  0.00    +0.000 OA
ATOM     15  O   UNL     1       4.319   6.148  19.135  0.00  0.00    +0.000 OA
BRANCH  13  16
ATOM     16  N   UNL     1       2.352   4.636  20.002  0.00  0.00    +0.000 NA
ATOM     17  C   UNL     1       2.851   3.486  20.992  0.00  0.00    +0.000 C 
ATOM     18  C   UNL     1       1.525   2.694  21.276  0.00  0.00    +0.000 C 
ATOM     19  C   UNL     1       0.595   3.217  20.213  0.00  0.00    +0.000 C 
ATOM     20  C   UNL     1       1.535   3.760  19.124  0.00  0.00    +0.000 C 
ATOM     21  C   UNL     1       2.657   2.831  18.388  0.00  0.00    +0.000 C 
ATOM     22  N   UNL     1       4.023   2.587  19.033  0.00  0.00    +0.000 NA
ATOM     23  C   UNL     1       5.087   3.593  19.134  0.00  0.00    +0.000 C 
ATOM     24  C   UNL     1       3.734   2.322  20.418  0.00  0.00    +0.000 C 
ENDBRANCH  13  16
ENDBRANCH   4  13
TORSDOF 3
ENDMDL
MODEL 6
REMARK VINA RESULT:      -7.5      0.924      1.477
REMARK  Name = 
REMARK  5 active torsions:
REMARK  status: ('A' for Active; 'I' for Inactive)
REMARK    1  A    between atoms: C_1  and  C_2
REMARK    2  A    between atoms: C_4  and  C_5
REMARK    3  A    between atoms: C_8  and  S_9
REMARK    4  A    between atoms: S_9  and  N_12
REMARK    5  A    between atoms: N_18  and  C_19
REMARK                            x       y       z     vdW  Elec       q    Type
REMARK                         _______ _______ _______ _____ _____    ______ ____
ROOT
ATOM      1  C   UNL     1       1.090   9.883  19.588  0.00  0.00    +0.000 A 
ATOM      2  C   UNL     1       1.369   9.602  18.243  0.00  0.00    +0.000 A 
ATOM      3  C   UNL     1       1.862   8.336  17.919  0.00  0.00    +0.000 A 
ATOM      4  C   UNL     1       2.138   7.389  18.924  0.00  0.00    +0.000 A 
ATOM      5  C   UNL     1       1.746   7.619  20.227  0.00  0.00    +0.000 A 
ATOM      6  C   UNL     1       1.223   8.870  20.551  0.00  0.00    +0.000 A 
ENDROOT
BRANCH   1  10
ATOM      7  C   UNL     1      -0.028  14.660  19.546  0.00  0.00    +0.000 C 
ATOM      8  C   UNL     1       0.232  13.260  19.931  0.00  0.00    +0.000 A 
ATOM      9  N   UNL     1       0.779  12.309  19.212  0.00  0.00    +0.000 NA
ATOM     10  C   UNL     1       0.721  11.208  20.030  0.00  0.00    +0.000 A 
ATOM     11  C   UNL     1       0.142  11.549  21.229  0.00  0.00    +0.000 A 
ATOM     12  O   UNL     1      -0.180  12.874  21.178  0.00  0.00    +0.000 OA
ENDBRANCH   1  10
BRANCH   4  13
ATOM     13  S   UNL     1       2.801   5.832  18.474  0.00  0.00    +0.000 S 
ATOM     14  O   UNL     1       1.904   5.290  17.471  0.00  0.00    +0.000 OA
ATOM     15  O   UNL     1       4.162   6.084  18.073  0.00  0.00    +0.000 OA
BRANCH  13  16
ATOM     16  N   UNL     1       2.765   4.611  19.743  0.00  0.00    +0.000 NA
ATOM     17  C   UNL     1       3.541   3.336  20.312  0.00  0.00    +0.000 C 
ATOM     18  C   UNL     1       2.516   2.759  21.351  0.00  0.00    +0.000 C 
ATOM     19  C   UNL     1       1.247   3.493  21.004  0.00  0.00    +0.000 C 
ATOM     20  C   UNL     1       1.456   3.937  19.547  0.00  0.00    +0.000 C 
ATOM     21  C   UNL     1       1.764   2.882  18.342  0.00  0.00    +0.000 C 
ATOM     22  N   UNL     1       3.186   2.376  18.082  0.00  0.00    +0.000 NA
ATOM     23  C   UNL     1       4.262   3.183  17.497  0.00  0.00    +0.000 C 
ATOM     24  C   UNL     1       3.713   2.079  19.387  0.00  0.00    +0.000 C 
ENDBRANCH  13  16
ENDBRANCH   4  13
TORSDOF 3
ENDMDL
MODEL 7
REMARK VINA RESULT:      -7.5      0.953      1.098
REMARK  Name = 
REMARK  5 active torsions:
REMARK  status: ('A' for Active; 'I' for Inactive)
REMARK    1  A    between atoms: C_1  and  C_2
REMARK    2  A    between atoms: C_4  and  C_5
REMARK    3  A    between atoms: C_8  and  S_9
REMARK    4  A    between atoms: S_9  and  N_12
REMARK    5  A    between atoms: N_18  and  C_19
REMARK                            x       y       z     vdW  Elec       q    Type
REMARK                         _______ _______ _______ _____ _____    ______ ____
ROOT
ATOM      1  C   UNL     1       0.706   9.580  20.480  0.00  0.00    +0.000 A 
ATOM      2  C   UNL     1       0.962   8.493  21.329  0.00  0.00    +0.000 A 
ATOM      3  C   UNL     1       1.620   7.380  20.802  0.00  0.00    +0.000 A 
ATOM      4  C   UNL     1       1.955   7.319  19.435  0.00  0.00    +0.000 A 
ATOM      5  C   UNL     1       1.818   8.433  18.632  0.00  0.00    +0.000 A 
ATOM      6  C   UNL     1       1.191   9.559  19.162  0.00  0.00    +0.000 A 
ENDROOT
BRANCH   1  10
ATOM      7  C   UNL     1      -2.463  13.324  20.399  0.00  0.00    +0.000 C 
ATOM      8  C   UNL     1      -1.488  12.290  20.793  0.00  0.00    +0.000 A 
ATOM      9  N   UNL     1      -0.785  11.500  20.017  0.00  0.00    +0.000 NA
ATOM     10  C   UNL     1      -0.097  10.704  20.900  0.00  0.00    +0.000 A 
ATOM     11  C   UNL     1      -0.411  11.061  22.190  0.00  0.00    +0.000 A 
ATOM     12  O   UNL     1      -1.311  12.085  22.135  0.00  0.00    +0.000 OA
ENDBRANCH   1  10
BRANCH   4  13
ATOM     13  S   UNL     1       2.735   5.882  18.809  0.00  0.00    +0.000 S 
ATOM     14  O   UNL     1       1.890   5.407  17.729  0.00  0.00    +0.000 OA
ATOM     15  O   UNL     1       4.078   6.277  18.469  0.00  0.00    +0.000 OA
BRANCH  13  16
ATOM     16  N   UNL     1       2.774   4.512  19.916  0.00  0.00    +0.000 NA
ATOM     17  C   UNL     1       3.584   3.184  20.278  0.00  0.00    +0.000 C 
ATOM     18  C   UNL     1       2.621   2.472  21.292  0.00  0.00    +0.000 C 
ATOM     19  C   UNL     1       1.332   3.231  21.110  0.00  0.00    +0.000 C 
ATOM     20  C   UNL     1       1.458   3.855  19.711  0.00  0.00    +0.000 C 
ATOM     21  C   UNL     1       1.700   2.960  18.368  0.00  0.00    +0.000 C 
ATOM     22  N   UNL     1       3.106   2.505  17.969  0.00  0.00    +0.000 NA
ATOM     23  C   UNL     1       4.145   3.389  17.430  0.00  0.00    +0.000 C 
ATOM     24  C   UNL     1       3.707   2.053  19.196  0.00  0.00    +0.000 C 
ENDBRANCH  13  16
ENDBRANCH   4  13
TORSDOF 3
ENDMDL
MODEL 8
REMARK VINA RESULT:      -7.3      1.592      2.420
REMARK  Name = 
REMARK  5 active torsions:
REMARK  status: ('A' for Active; 'I' for Inactive)
REMARK    1  A    between atoms: C_1  and  C_2
REMARK    2  A    between atoms: C_4  and  C_5
REMARK    3  A    between atoms: C_8  and  S_9
REMARK    4  A    between atoms: S_9  and  N_12
REMARK    5  A    between atoms: N_18  and  C_19
REMARK                            x       y       z     vdW  Elec       q    Type
REMARK                         _______ _______ _______ _____ _____    ______ ____
ROOT
ATOM      1  C   UNL     1       1.191   9.583  19.085  0.00  0.00    +0.000 A 
ATOM      2  C   UNL     1       1.293   8.721  20.187  0.00  0.00    +0.000 A 
ATOM      3  C   UNL     1       1.991   7.523  20.029  0.00  0.00    +0.000 A 
ATOM      4  C   UNL     1       2.520   7.154  18.777  0.00  0.00    +0.000 A 
ATOM      5  C   UNL     1       2.530   8.054  17.731  0.00  0.00    +0.000 A 
ATOM      6  C   UNL     1       1.862   9.267  17.893  0.00  0.00    +0.000 A 
ENDROOT
BRANCH   1  10
ATOM      7  C   UNL     1      -0.267  14.252  18.698  0.00  0.00    +0.000 C 
ATOM      8  C   UNL     1      -0.194  12.793  18.908  0.00  0.00    +0.000 A 
ATOM      9  N   UNL     1       0.874  12.035  18.970  0.00  0.00    +0.000 NA
ATOM     10  C   UNL     1       0.365  10.768  19.116  0.00  0.00    +0.000 A 
ATOM     11  C   UNL     1      -1.008  10.818  19.146  0.00  0.00    +0.000 A 
ATOM     12  O   UNL     1      -1.383  12.123  19.011  0.00  0.00    +0.000 OA
ENDBRANCH   1  10
BRANCH   4  13
ATOM     13  S   UNL     1       3.345   5.618  18.615  0.00  0.00    +0.000 S 
ATOM     14  O   UNL     1       3.996   5.649  17.319  0.00  0.00    +0.000 OA
ATOM     15  O   UNL     1       4.192   5.501  19.775  0.00  0.00    +0.000 OA
BRANCH  13  16
ATOM     16  N   UNL     1       2.290   4.213  18.498  0.00  0.00    +0.000 NA
ATOM     17  C   UNL     1       1.099   3.444  19.234  0.00  0.00    +0.000 C 
ATOM     18  C   UNL     1       1.039   2.089  18.444  0.00  0.00    +0.000 C 
ATOM     19  C   UNL     1       2.332   2.101  17.671  0.00  0.00    +0.000 C 
ATOM     20  C   UNL     1       3.232   3.066  18.460  0.00  0.00    +0.000 C 
ATOM     21  C   UNL     1       3.597   2.839  20.034  0.00  0.00    +0.000 C 
ATOM     22  N   UNL     1       2.640   3.297  21.138  0.00  0.00    +0.000 NA
ATOM     23  C   UNL     1       2.409   4.697  21.510  0.00  0.00    +0.000 C 
ATOM     24  C   UNL     1       1.337   2.891  20.684  0.00  0.00    +0.000 C 
ENDBRANCH  13  16
ENDBRANCH   4  13
TORSDOF 3
ENDMDL
MODEL 9
REMARK VINA RESULT:      -7.3      2.243      3.184
REMARK  Name = 
REMARK  5 active torsions:
REMARK  status: ('A' for Active; 'I' for Inactive)
REMARK    1  A    between atoms: C_1  and  C_2
REMARK    2  A    between atoms: C_4  and  C_5
REMARK    3  A    between atoms: C_8  and  S_9
REMARK    4  A    between atoms: S_9  and  N_12
REMARK    5  A    between atoms: N_18  and  C_19
REMARK                            x       y       z     vdW  Elec       q    Type
REMARK                         _______ _______ _______ _____ _____    ______ ____
ROOT
ATOM      1  C   UNL     1       0.997  10.174  19.103  0.00  0.00    +0.000 A 
ATOM      2  C   UNL     1       1.022   9.277  20.182  0.00  0.00    +0.000 A 
ATOM      3  C   UNL     1       1.656   8.046  20.006  0.00  0.00    +0.000 A 
ATOM      4  C   UNL     1       2.196   7.683  18.758  0.00  0.00    +0.000 A 
ATOM      5  C   UNL     1       2.284   8.610  17.739  0.00  0.00    +0.000 A 
ATOM      6  C   UNL     1       1.681   9.853  17.920  0.00  0.00    +0.000 A 
ENDROOT
BRANCH   1  10
ATOM      7  C   UNL     1      -0.168  14.935  18.895  0.00  0.00    +0.000 C 
ATOM      8  C   UNL     1      -0.192  13.466  19.023  0.00  0.00    +0.000 A 
ATOM      9  N   UNL     1       0.825  12.642  19.112  0.00  0.00    +0.000 NA
ATOM     10  C   UNL     1       0.238  11.402  19.148  0.00  0.00    +0.000 A 
ATOM     11  C   UNL     1      -1.129  11.532  19.089  0.00  0.00    +0.000 A 
ATOM     12  O   UNL     1      -1.421  12.862  19.007  0.00  0.00    +0.000 OA
ENDBRANCH   1  10
BRANCH   4  13
ATOM     13  S   UNL     1       2.938   6.108  18.572  0.00  0.00    +0.000 S 
ATOM     14  O   UNL     1       3.426   5.738  19.887  0.00  0.00    +0.000 OA
ATOM     15  O   UNL     1       1.930   5.263  17.983  0.00  0.00    +0.000 OA
BRANCH  13  16
ATOM     16  N   UNL     1       4.395   6.081  17.583  0.00  0.00    +0.000 NA
ATOM     17  C   UNL     1       5.044   5.425  16.279  0.00  0.00    +0.000 C 
ATOM     18  C   UNL     1       6.548   5.859  16.402  0.00  0.00    +0.000 C 
ATOM     19  C   UNL     1       6.636   6.346  17.824  0.00  0.00    +0.000 C 
ATOM     20  C   UNL     1       5.457   5.657  18.531  0.00  0.00    +0.000 C 
ATOM     21  C   UNL     1       5.284   4.035  18.572  0.00  0.00    +0.000 C 
ATOM     22  N   UNL     1       4.641   3.282  17.405  0.00  0.00    +0.000 NA
ATOM     23  C   UNL     1       3.210   3.313  17.081  0.00  0.00    +0.000 C 
ATOM     24  C   UNL     1       5.224   3.867  16.226  0.00  0.00    +0.000 C 
ENDBRANCH  13  16
ENDBRANCH   4  13
TORSDOF 3
ENDMDL
