MODEL 1
REMARK VINA RESULT:      -9.1      0.000      0.000
REMARK  Name = 
REMARK  4 active torsions:
REMARK  status: ('A' for Active; 'I' for Inactive)
REMARK    1  A    between atoms: C_2  and  C_12
REMARK    2  A    between atoms: N_3  and  C_4
REMARK    3  A    between atoms: C_4  and  C_5
REMARK    4  A    between atoms: C_15  and  N_16
REMARK                            x       y       z     vdW  Elec       q    Type
REMARK                         _______ _______ _______ _____ _____    ______ ____
ROOT
ATOM      1  C   UNL     1       3.379   4.707  18.272  0.00  0.00    +0.000 A 
ATOM      2  C   UNL     1       2.432   4.331  19.229  0.00  0.00    +0.000 A 
ATOM      3  C   UNL     1       1.831   5.302  20.040  0.00  0.00    +0.000 A 
ATOM      4  C   UNL     1       2.185   6.655  19.919  0.00  0.00    +0.000 A 
ATOM      5  C   UNL     1       3.044   7.024  18.877  0.00  0.00    +0.000 A 
ATOM      6  C   UNL     1       3.651   6.063  18.069  0.00  0.00    +0.000 A 
ENDROOT
BRANCH   4   7
ATOM      7  N   UNL     1       1.613   7.625  20.782  0.00  0.00    +0.000 N 
ATOM      8  C   UNL     1       0.994   8.767  20.302  0.00  0.00    +0.000 C 
ATOM      9  N   UNL     1       1.162   9.261  19.108  0.00  0.00    +0.000 NA
ATOM     10  S   UNL     1       0.498  10.751  18.992  0.00  0.00    +0.000 S 
ATOM     11  O   UNL     1      -0.719  10.700  18.194  0.00  0.00    +0.000 OA
ATOM     12  O   UNL     1       1.527  11.743  18.775  0.00  0.00    +0.000 OA
ATOM     13  C   UNL     1       0.021  10.855  20.654  0.00  0.00    +0.000 A 
ATOM     14  C   UNL     1      -0.416  11.954  21.362  0.00  0.00    +0.000 A 
ATOM     15  C   UNL     1      -0.834  11.728  22.674  0.00  0.00    +0.000 A 
ATOM     16  C   UNL     1      -0.840  10.424  23.209  0.00  0.00    +0.000 A 
ATOM     17  C   UNL     1      -0.303   9.348  22.488  0.00  0.00    +0.000 A 
ATOM     18  C   UNL     1       0.193   9.612  21.223  0.00  0.00    +0.000 A 
ATOM     19  H   UNL     1       2.281   7.856  21.515  0.00  0.00    +0.000 HD
ENDBRANCH   4   7
BRANCH   1  21
ATOM     20  O   UNL     1       4.040   2.492  17.825  0.00  0.00    +0.000 OA
ATOM     21  C   UNL     1       4.080   3.662  17.477  0.00  0.00    +0.000 C 
ATOM     22  N   UNL     1       4.786   4.126  16.386  0.00  0.00    +0.000 N 
ATOM     23  H   UNL     1       5.033   5.107  16.365  0.00  0.00    +0.000 HD
BRANCH  22  24
ATOM     24  C   UNL     1       5.606   3.231  15.595  0.00  0.00    +0.000 C 
BRANCH  24  25
ATOM     25  C   UNL     1       6.265   3.909  14.423  0.00  0.00    +0.000 A 
ATOM     26  C   UNL     1       6.070   3.499  13.094  0.00  0.00    +0.000 A 
ATOM     27  C   UNL     1       6.742   4.137  12.044  0.00  0.00    +0.000 A 
ATOM     28  C   UNL     1       7.633   5.179  12.308  0.00  0.00    +0.000 A 
ATOM     29  C   UNL     1       7.857   5.576  13.621  0.00  0.00    +0.000 A 
ATOM     30  C   UNL     1       7.181   4.939  14.661  0.00  0.00    +0.000 A 
ATOM     31  F   UNL     1       7.427   5.331  15.919  0.00  0.00    +0.000 F 
ENDBRANCH  24  25
ENDBRANCH  22  24
ENDBRANCH   1  21
TORSDOF 4
ENDMDL
MODEL 2
REMARK VINA RESULT:      -9.0      4.481     11.071
REMARK  Name = 
REMARK  4 active torsions:
REMARK  status: ('A' for Active; 'I' for Inactive)
REMARK    1  A    between atoms: C_2  and  C_12
REMARK    2  A    between atoms: N_3  and  C_4
REMARK    3  A    between atoms: C_4  and  C_5
REMARK    4  A    between atoms: C_15  and  N_16
REMARK                            x       y       z     vdW  Elec       q    Type
REMARK                         _______ _______ _______ _____ _____    ______ ____
ROOT
ATOM      1  C   UNL     1       0.282  10.430  21.410  0.00  0.00    +0.000 A 
ATOM      2  C   UNL     1       0.335  10.373  20.015  0.00  0.00    +0.000 A 
ATOM      3  C   UNL     1       1.018   9.325  19.382  0.00  0.00    +0.000 A 
ATOM      4  C   UNL     1       1.673   8.339  20.136  0.00  0.00    +0.000 A 
ATOM      5  C   UNL     1       1.507   8.350  21.526  0.00  0.00    +0.000 A 
ATOM      6  C   UNL     1       0.833   9.391  22.164  0.00  0.00    +0.000 A 
ENDROOT
BRANCH   4   7
ATOM      7  N   UNL     1       2.409   7.313  19.489  0.00  0.00    +0.000 N 
ATOM      8  C   UNL     1       2.144   5.970  19.697  0.00  0.00    +0.000 C 
ATOM      9  N   UNL     1       1.487   5.488  20.713  0.00  0.00    +0.000 NA
ATOM     10  S   UNL     1       1.611   3.858  20.770  0.00  0.00    +0.000 S 
ATOM     11  O   UNL     1       0.351   3.243  20.376  0.00  0.00    +0.000 OA
ATOM     12  O   UNL     1       2.336   3.451  21.952  0.00  0.00    +0.000 OA
ATOM     13  C   UNL     1       2.694   3.722  19.425  0.00  0.00    +0.000 A 
ATOM     14  C   UNL     1       3.427   2.630  19.012  0.00  0.00    +0.000 A 
ATOM     15  C   UNL     1       4.147   2.773  17.825  0.00  0.00    +0.000 A 
ATOM     16  C   UNL     1       4.075   3.970  17.083  0.00  0.00    +0.000 A 
ATOM     17  C   UNL     1       3.391   5.087  17.584  0.00  0.00    +0.000 A 
ATOM     18  C   UNL     1       2.762   4.953  18.809  0.00  0.00    +0.000 A 
ATOM     19  H   UNL     1       3.405   7.505  19.584  0.00  0.00    +0.000 HD
ENDBRANCH   4   7
BRANCH   1  21
ATOM     20  O   UNL     1       0.144  12.702  22.017  0.00  0.00    +0.000 OA
ATOM     21  C   UNL     1      -0.367  11.593  22.075  0.00  0.00    +0.000 C 
ATOM     22  N   UNL     1      -1.523  11.304  22.772  0.00  0.00    +0.000 N 
ATOM     23  H   UNL     1      -1.685  10.342  23.040  0.00  0.00    +0.000 HD
BRANCH  22  24
ATOM     24  C   UNL     1      -2.190  12.321  23.559  0.00  0.00    +0.000 C 
BRANCH  24  25
ATOM     25  C   UNL     1      -3.631  12.523  23.169  0.00  0.00    +0.000 A 
ATOM     26  C   UNL     1      -4.041  12.734  21.842  0.00  0.00    +0.000 A 
ATOM     27  C   UNL     1      -5.389  12.961  21.539  0.00  0.00    +0.000 A 
ATOM     28  C   UNL     1      -6.343  13.000  22.557  0.00  0.00    +0.000 A 
ATOM     29  C   UNL     1      -5.947  12.822  23.878  0.00  0.00    +0.000 A 
ATOM     30  C   UNL     1      -4.604  12.592  24.171  0.00  0.00    +0.000 A 
ATOM     31  F   UNL     1      -4.247  12.438  25.454  0.00  0.00    +0.000 F 
ENDBRANCH  24  25
ENDBRANCH  22  24
ENDBRANCH   1  21
TORSDOF 4
ENDMDL
MODEL 3
REMARK VINA RESULT:      -9.0      4.522     10.423
REMARK  Name = 
REMARK  4 active torsions:
REMARK  status: ('A' for Active; 'I' for Inactive)
REMARK    1  A    between atoms: C_2  and  C_12
REMARK    2  A    between atoms: N_3  and  C_4
REMARK    3  A    between atoms: C_4  and  C_5
REMARK    4  A    between atoms: C_15  and  N_16
REMARK                            x       y       z     vdW  Elec       q    Type
REMARK                         _______ _______ _______ _____ _____    ______ ____
ROOT
ATOM      1  C   UNL     1      -0.034  10.159  19.890  0.00  0.00    +0.000 A 
ATOM      2  C   UNL     1       0.196  10.200  18.512  0.00  0.00    +0.000 A 
ATOM      3  C   UNL     1       1.213   9.419  17.947  0.00  0.00    +0.000 A 
ATOM      4  C   UNL     1       2.025   8.607  18.755  0.00  0.00    +0.000 A 
ATOM      5  C   UNL     1       1.701   8.490  20.112  0.00  0.00    +0.000 A 
ATOM      6  C   UNL     1       0.694   9.268  20.683  0.00  0.00    +0.000 A 
ENDROOT
BRANCH   4   7
ATOM      7  N   UNL     1       3.088   7.862  18.184  0.00  0.00    +0.000 N 
ATOM      8  C   UNL     1       2.988   6.504  17.932  0.00  0.00    +0.000 C 
ATOM      9  N   UNL     1       2.116   5.706  18.481  0.00  0.00    +0.000 NA
ATOM     10  S   UNL     1       2.473   4.143  18.164  0.00  0.00    +0.000 S 
ATOM     11  O   UNL     1       1.531   3.598  17.195  0.00  0.00    +0.000 OA
ATOM     12  O   UNL     1       2.819   3.449  19.384  0.00  0.00    +0.000 OA
ATOM     13  C   UNL     1       3.949   4.472  17.319  0.00  0.00    +0.000 A 
ATOM     14  C   UNL     1       4.942   3.595  16.939  0.00  0.00    +0.000 A 
ATOM     15  C   UNL     1       5.983   4.123  16.174  0.00  0.00    +0.000 A 
ATOM     16  C   UNL     1       5.972   5.478  15.787  0.00  0.00    +0.000 A 
ATOM     17  C   UNL     1       4.991   6.356  16.270  0.00  0.00    +0.000 A 
ATOM     18  C   UNL     1       4.020   5.831  17.104  0.00  0.00    +0.000 A 
ATOM     19  H   UNL     1       3.952   8.076  18.681  0.00  0.00    +0.000 HD
ENDBRANCH   4   7
BRANCH   1  21
ATOM     20  O   UNL     1      -1.199  11.102  21.706  0.00  0.00    +0.000 OA
ATOM     21  C   UNL     1      -1.054  11.058  20.494  0.00  0.00    +0.000 C 
ATOM     22  N   UNL     1      -1.818  11.772  19.592  0.00  0.00    +0.000 N 
ATOM     23  H   UNL     1      -1.858  11.437  18.639  0.00  0.00    +0.000 HD
BRANCH  22  24
ATOM     24  C   UNL     1      -2.921  12.596  20.041  0.00  0.00    +0.000 C 
BRANCH  24  25
ATOM     25  C   UNL     1      -4.259  12.124  19.536  0.00  0.00    +0.000 A 
ATOM     26  C   UNL     1      -4.457  11.643  18.231  0.00  0.00    +0.000 A 
ATOM     27  C   UNL     1      -5.731  11.257  17.798  0.00  0.00    +0.000 A 
ATOM     28  C   UNL     1      -6.829  11.365  18.654  0.00  0.00    +0.000 A 
ATOM     29  C   UNL     1      -6.652  11.866  19.939  0.00  0.00    +0.000 A 
ATOM     30  C   UNL     1      -5.380  12.244  20.364  0.00  0.00    +0.000 A 
ATOM     31  F   UNL     1      -5.240  12.739  21.602  0.00  0.00    +0.000 F 
ENDBRANCH  24  25
ENDBRANCH  22  24
ENDBRANCH   1  21
TORSDOF 4
ENDMDL
MODEL 4
REMARK VINA RESULT:      -8.8      3.252      4.671
REMARK  Name = 
REMARK  4 active torsions:
REMARK  status: ('A' for Active; 'I' for Inactive)
REMARK    1  A    between atoms: C_2  and  C_12
REMARK    2  A    between atoms: N_3  and  C_4
REMARK    3  A    between atoms: C_4  and  C_5
REMARK    4  A    between atoms: C_15  and  N_16
REMARK                            x       y       z     vdW  Elec       q    Type
REMARK                         _______ _______ _______ _____ _____    ______ ____
ROOT
ATOM      1  C   UNL     1       1.535   8.601  19.251  0.00  0.00    +0.000 A 
ATOM      2  C   UNL     1       1.485   8.204  20.591  0.00  0.00    +0.000 A 
ATOM      3  C   UNL     1       0.723   8.935  21.511  0.00  0.00    +0.000 A 
ATOM      4  C   UNL     1       0.022  10.083  21.108  0.00  0.00    +0.000 A 
ATOM      5  C   UNL     1      -0.010  10.394  19.744  0.00  0.00    +0.000 A 
ATOM      6  C   UNL     1       0.750   9.674  18.822  0.00  0.00    +0.000 A 
ENDROOT
BRANCH   4   7
ATOM      7  N   UNL     1      -0.702  10.851  22.056  0.00  0.00    +0.000 N 
ATOM      8  C   UNL     1      -0.651  12.234  22.080  0.00  0.00    +0.000 C 
ATOM      9  N   UNL     1       0.279  12.957  21.524  0.00  0.00    +0.000 NA
ATOM     10  S   UNL     1       0.165  14.519  21.991  0.00  0.00    +0.000 S 
ATOM     11  O   UNL     1      -0.344  15.336  20.897  0.00  0.00    +0.000 OA
ATOM     12  O   UNL     1       1.324  14.898  22.767  0.00  0.00    +0.000 OA
ATOM     13  C   UNL     1      -1.142  14.271  23.101  0.00  0.00    +0.000 A 
ATOM     14  C   UNL     1      -1.641  15.130  24.056  0.00  0.00    +0.000 A 
ATOM     15  C   UNL     1      -2.776  14.705  24.748  0.00  0.00    +0.000 A 
ATOM     16  C   UNL     1      -3.386  13.473  24.435  0.00  0.00    +0.000 A 
ATOM     17  C   UNL     1      -2.795  12.589  23.521  0.00  0.00    +0.000 A 
ATOM     18  C   UNL     1      -1.618  12.991  22.915  0.00  0.00    +0.000 A 
ATOM     19  H   UNL     1      -0.547  10.467  22.987  0.00  0.00    +0.000 HD
ENDBRANCH   4   7
BRANCH   1  21
ATOM     20  O   UNL     1       2.703   8.369  17.220  0.00  0.00    +0.000 OA
ATOM     21  C   UNL     1       2.418   7.874  18.299  0.00  0.00    +0.000 C 
ATOM     22  N   UNL     1       2.828   6.623  18.715  0.00  0.00    +0.000 N 
ATOM     23  H   UNL     1       2.294   6.169  19.445  0.00  0.00    +0.000 HD
BRANCH  22  24
ATOM     24  C   UNL     1       3.595   5.762  17.838  0.00  0.00    +0.000 C 
BRANCH  24  25
ATOM     25  C   UNL     1       5.082   5.856  18.065  0.00  0.00    +0.000 A 
ATOM     26  C   UNL     1       5.713   5.349  19.212  0.00  0.00    +0.000 A 
ATOM     27  C   UNL     1       7.093   5.501  19.394  0.00  0.00    +0.000 A 
ATOM     28  C   UNL     1       7.858   6.180  18.444  0.00  0.00    +0.000 A 
ATOM     29  C   UNL     1       7.241   6.712  17.317  0.00  0.00    +0.000 A 
ATOM     30  C   UNL     1       5.868   6.552  17.141  0.00  0.00    +0.000 A 
ATOM     31  F   UNL     1       5.296   7.089  16.054  0.00  0.00    +0.000 F 
ENDBRANCH  24  25
ENDBRANCH  22  24
ENDBRANCH   1  21
TORSDOF 4
ENDMDL
MODEL 5
REMARK VINA RESULT:      -8.8      3.420      4.810
REMARK  Name = 
REMARK  4 active torsions:
REMARK  status: ('A' for Active; 'I' for Inactive)
REMARK    1  A    between atoms: C_2  and  C_12
REMARK    2  A    between atoms: N_3  and  C_4
REMARK    3  A    between atoms: C_4  and  C_5
REMARK    4  A    between atoms: C_15  and  N_16
REMARK                            x       y       z     vdW  Elec       q    Type
REMARK                         _______ _______ _______ _____ _____    ______ ____
ROOT
ATOM      1  C   UNL     1       1.406   8.721  19.266  0.00  0.00    +0.000 A 
ATOM      2  C   UNL     1       1.377   8.290  20.595  0.00  0.00    +0.000 A 
ATOM      3  C   UNL     1       0.575   8.957  21.531  0.00  0.00    +0.000 A 
ATOM      4  C   UNL     1      -0.187  10.075  21.154  0.00  0.00    +0.000 A 
ATOM      5  C   UNL     1      -0.235  10.415  19.797  0.00  0.00    +0.000 A 
ATOM      6  C   UNL     1       0.564   9.760  18.860  0.00  0.00    +0.000 A 
ENDROOT
BRANCH   4   7
ATOM      7  N   UNL     1      -0.952  10.779  22.119  0.00  0.00    +0.000 N 
ATOM      8  C   UNL     1      -1.003  12.162  22.155  0.00  0.00    +0.000 C 
ATOM      9  N   UNL     1      -0.135  12.955  21.593  0.00  0.00    +0.000 NA
ATOM     10  S   UNL     1      -0.358  14.502  22.076  0.00  0.00    +0.000 S 
ATOM     11  O   UNL     1      -0.941  15.287  20.997  0.00  0.00    +0.000 OA
ATOM     12  O   UNL     1       0.781  14.958  22.840  0.00  0.00    +0.000 OA
ATOM     13  C   UNL     1      -1.628  14.148  23.200  0.00  0.00    +0.000 A 
ATOM     14  C   UNL     1      -2.175  14.961  24.170  0.00  0.00    +0.000 A 
ATOM     15  C   UNL     1      -3.266  14.448  24.874  0.00  0.00    +0.000 A 
ATOM     16  C   UNL     1      -3.788  13.177  24.558  0.00  0.00    +0.000 A 
ATOM     17  C   UNL     1      -3.146  12.346  23.628  0.00  0.00    +0.000 A 
ATOM     18  C   UNL     1      -2.011  12.838  23.009  0.00  0.00    +0.000 A 
ATOM     19  H   UNL     1      -0.756  10.399  23.044  0.00  0.00    +0.000 HD
ENDBRANCH   4   7
BRANCH   1  21
ATOM     20  O   UNL     1       2.633   8.628  17.257  0.00  0.00    +0.000 OA
ATOM     21  C   UNL     1       2.328   8.066  18.298  0.00  0.00    +0.000 C 
ATOM     22  N   UNL     1       2.751   6.800  18.653  0.00  0.00    +0.000 N 
ATOM     23  H   UNL     1       2.206   6.296  19.340  0.00  0.00    +0.000 HD
BRANCH  22  24
ATOM     24  C   UNL     1       3.557   6.006  17.749  0.00  0.00    +0.000 C 
BRANCH  24  25
ATOM     25  C   UNL     1       5.037   6.155  17.987  0.00  0.00    +0.000 A 
ATOM     26  C   UNL     1       5.864   6.954  17.180  0.00  0.00    +0.000 A 
ATOM     27  C   UNL     1       7.242   7.024  17.419  0.00  0.00    +0.000 A 
ATOM     28  C   UNL     1       7.816   6.281  18.452  0.00  0.00    +0.000 A 
ATOM     29  C   UNL     1       7.014   5.464  19.240  0.00  0.00    +0.000 A 
ATOM     30  C   UNL     1       5.642   5.403  18.999  0.00  0.00    +0.000 A 
ATOM     31  F   UNL     1       4.894   4.595  19.764  0.00  0.00    +0.000 F 
ENDBRANCH  24  25
ENDBRANCH  22  24
ENDBRANCH   1  21
TORSDOF 4
ENDMDL
MODEL 6
REMARK VINA RESULT:      -8.8      4.299      6.233
REMARK  Name = 
REMARK  4 active torsions:
REMARK  status: ('A' for Active; 'I' for Inactive)
REMARK    1  A    between atoms: C_2  and  C_12
REMARK    2  A    between atoms: N_3  and  C_4
REMARK    3  A    between atoms: C_4  and  C_5
REMARK    4  A    between atoms: C_15  and  N_16
REMARK                            x       y       z     vdW  Elec       q    Type
REMARK                         _______ _______ _______ _____ _____    ______ ____
ROOT
ATOM      1  C   UNL     1       1.031   8.882  20.541  0.00  0.00    +0.000 A 
ATOM      2  C   UNL     1       1.083   8.800  21.935  0.00  0.00    +0.000 A 
ATOM      3  C   UNL     1       0.362   9.711  22.719  0.00  0.00    +0.000 A 
ATOM      4  C   UNL     1      -0.400  10.726  22.119  0.00  0.00    +0.000 A 
ATOM      5  C   UNL     1      -0.533  10.717  20.725  0.00  0.00    +0.000 A 
ATOM      6  C   UNL     1       0.186   9.817  19.938  0.00  0.00    +0.000 A 
ENDROOT
BRANCH   4   7
ATOM      7  N   UNL     1      -1.082  11.678  22.918  0.00  0.00    +0.000 N 
ATOM      8  C   UNL     1      -0.907  13.042  22.753  0.00  0.00    +0.000 C 
ATOM      9  N   UNL     1       0.103  13.597  22.146  0.00  0.00    +0.000 NA
ATOM     10  S   UNL     1       0.115  15.214  22.387  0.00  0.00    +0.000 S 
ATOM     11  O   UNL     1      -0.282  15.908  21.169  0.00  0.00    +0.000 OA
ATOM     12  O   UNL     1       1.278  15.598  23.154  0.00  0.00    +0.000 OA
ATOM     13  C   UNL     1      -1.245  15.237  23.460  0.00  0.00    +0.000 A 
ATOM     14  C   UNL     1      -1.695  16.262  24.264  0.00  0.00    +0.000 A 
ATOM     15  C   UNL     1      -2.885  16.037  24.957  0.00  0.00    +0.000 A 
ATOM     16  C   UNL     1      -3.594  14.830  24.790  0.00  0.00    +0.000 A 
ATOM     17  C   UNL     1      -3.056  13.778  24.034  0.00  0.00    +0.000 A 
ATOM     18  C   UNL     1      -1.828  13.989  23.431  0.00  0.00    +0.000 A 
ATOM     19  H   UNL     1      -0.992  11.418  23.899  0.00  0.00    +0.000 HD
ENDBRANCH   4   7
BRANCH   1  21
ATOM     20  O   UNL     1       1.954   8.130  18.509  0.00  0.00    +0.000 OA
ATOM     21  C   UNL     1       1.871   7.970  19.717  0.00  0.00    +0.000 C 
ATOM     22  N   UNL     1       2.482   6.945  20.411  0.00  0.00    +0.000 N 
ATOM     23  H   UNL     1       2.104   6.697  21.316  0.00  0.00    +0.000 HD
BRANCH  22  24
ATOM     24  C   UNL     1       3.232   5.921  19.714  0.00  0.00    +0.000 C 
BRANCH  24  25
ATOM     25  C   UNL     1       2.426   4.679  19.435  0.00  0.00    +0.000 A 
ATOM     26  C   UNL     1       2.008   4.313  18.145  0.00  0.00    +0.000 A 
ATOM     27  C   UNL     1       1.222   3.171  17.946  0.00  0.00    +0.000 A 
ATOM     28  C   UNL     1       0.826   2.391  19.034  0.00  0.00    +0.000 A 
ATOM     29  C   UNL     1       1.208   2.758  20.319  0.00  0.00    +0.000 A 
ATOM     30  C   UNL     1       1.994   3.893  20.509  0.00  0.00    +0.000 A 
ATOM     31  F   UNL     1       2.336   4.233  21.760  0.00  0.00    +0.000 F 
ENDBRANCH  24  25
ENDBRANCH  22  24
ENDBRANCH   1  21
TORSDOF 4
ENDMDL
MODEL 7
REMARK VINA RESULT:      -8.8      0.921      1.552
REMARK  Name = 
REMARK  4 active torsions:
REMARK  status: ('A' for Active; 'I' for Inactive)
REMARK    1  A    between atoms: C_2  and  C_12
REMARK    2  A    between atoms: N_3  and  C_4
REMARK    3  A    between atoms: C_4  and  C_5
REMARK    4  A    between atoms: C_15  and  N_16
REMARK                            x       y       z     vdW  Elec       q    Type
REMARK                         _______ _______ _______ _____ _____    ______ ____
ROOT
ATOM      1  C   UNL     1       3.505   4.649  18.242  0.00  0.00    +0.000 A 
ATOM      2  C   UNL     1       3.583   6.006  17.913  0.00  0.00    +0.000 A 
ATOM      3  C   UNL     1       3.033   6.968  18.771  0.00  0.00    +0.000 A 
ATOM      4  C   UNL     1       2.379   6.583  19.953  0.00  0.00    +0.000 A 
ATOM      5  C   UNL     1       2.416   5.233  20.320  0.00  0.00    +0.000 A 
ATOM      6  C   UNL     1       2.957   4.269  19.470  0.00  0.00    +0.000 A 
ENDROOT
BRANCH   4   7
ATOM      7  N   UNL     1       1.775   7.558  20.787  0.00  0.00    +0.000 N 
ATOM      8  C   UNL     1       1.107   8.658  20.275  0.00  0.00    +0.000 C 
ATOM      9  N   UNL     1       1.245   9.117  19.064  0.00  0.00    +0.000 NA
ATOM     10  S   UNL     1       0.521  10.574  18.904  0.00  0.00    +0.000 S 
ATOM     11  O   UNL     1      -0.699  10.447  18.119  0.00  0.00    +0.000 OA
ATOM     12  O   UNL     1       1.507  11.599  18.644  0.00  0.00    +0.000 OA
ATOM     13  C   UNL     1       0.053  10.715  20.566  0.00  0.00    +0.000 A 
ATOM     14  C   UNL     1      -0.423  11.820  21.240  0.00  0.00    +0.000 A 
ATOM     15  C   UNL     1      -0.821  11.622  22.563  0.00  0.00    +0.000 A 
ATOM     16  C   UNL     1      -0.771  10.337  23.141  0.00  0.00    +0.000 A 
ATOM     17  C   UNL     1      -0.196   9.260  22.452  0.00  0.00    +0.000 A 
ATOM     18  C   UNL     1       0.279   9.500  21.175  0.00  0.00    +0.000 A 
ATOM     19  H   UNL     1       2.439   7.841  21.507  0.00  0.00    +0.000 HD
ENDBRANCH   4   7
BRANCH   1  21
ATOM     20  O   UNL     1       3.806   2.441  17.481  0.00  0.00    +0.000 OA
ATOM     21  C   UNL     1       4.010   3.629  17.283  0.00  0.00    +0.000 C 
ATOM     22  N   UNL     1       4.739   4.128  16.222  0.00  0.00    +0.000 N 
ATOM     23  H   UNL     1       5.130   5.056  16.313  0.00  0.00    +0.000 HD
BRANCH  22  24
ATOM     24  C   UNL     1       5.384   3.237  15.280  0.00  0.00    +0.000 C 
BRANCH  24  25
ATOM     25  C   UNL     1       6.289   3.952  14.311  0.00  0.00    +0.000 A 
ATOM     26  C   UNL     1       7.139   5.003  14.692  0.00  0.00    +0.000 A 
ATOM     27  C   UNL     1       7.929   5.663  13.743  0.00  0.00    +0.000 A 
ATOM     28  C   UNL     1       7.865   5.297  12.397  0.00  0.00    +0.000 A 
ATOM     29  C   UNL     1       7.006   4.278  12.001  0.00  0.00    +0.000 A 
ATOM     30  C   UNL     1       6.228   3.622  12.953  0.00  0.00    +0.000 A 
ATOM     31  F   UNL     1       5.397   2.654  12.542  0.00  0.00    +0.000 F 
ENDBRANCH  24  25
ENDBRANCH  22  24
ENDBRANCH   1  21
TORSDOF 4
ENDMDL
MODEL 8
REMARK VINA RESULT:      -8.8      3.766      5.653
REMARK  Name = 
REMARK  4 active torsions:
REMARK  status: ('A' for Active; 'I' for Inactive)
REMARK    1  A    between atoms: C_2  and  C_12
REMARK    2  A    between atoms: N_3  and  C_4
REMARK    3  A    between atoms: C_4  and  C_5
REMARK    4  A    between atoms: C_15  and  N_16
REMARK                            x       y       z     vdW  Elec       q    Type
REMARK                         _______ _______ _______ _____ _____    ______ ____
ROOT
ATOM      1  C   UNL     1       1.456   8.607  20.067  0.00  0.00    +0.000 A 
ATOM      2  C   UNL     1       0.762   9.697  19.534  0.00  0.00    +0.000 A 
ATOM      3  C   UNL     1       0.007  10.526  20.374  0.00  0.00    +0.000 A 
ATOM      4  C   UNL     1      -0.081  10.262  21.750  0.00  0.00    +0.000 A 
ATOM      5  C   UNL     1       0.715   9.239  22.279  0.00  0.00    +0.000 A 
ATOM      6  C   UNL     1       1.465   8.406  21.449  0.00  0.00    +0.000 A 
ENDROOT
BRANCH   4   7
ATOM      7  N   UNL     1      -0.893  11.072  22.585  0.00  0.00    +0.000 N 
ATOM      8  C   UNL     1      -0.893  12.454  22.498  0.00  0.00    +0.000 C 
ATOM      9  N   UNL     1       0.045  13.167  21.944  0.00  0.00    +0.000 NA
ATOM     10  S   UNL     1      -0.156  14.756  22.272  0.00  0.00    +0.000 S 
ATOM     11  O   UNL     1      -0.621  15.461  21.086  0.00  0.00    +0.000 OA
ATOM     12  O   UNL     1       0.936  15.243  23.085  0.00  0.00    +0.000 OA
ATOM     13  C   UNL     1      -1.523  14.543  23.315  0.00  0.00    +0.000 A 
ATOM     14  C   UNL     1      -2.114  15.455  24.163  0.00  0.00    +0.000 A 
ATOM     15  C   UNL     1      -3.276  15.040  24.816  0.00  0.00    +0.000 A 
ATOM     16  C   UNL     1      -3.819  13.764  24.568  0.00  0.00    +0.000 A 
ATOM     17  C   UNL     1      -3.138  12.834  23.768  0.00  0.00    +0.000 A 
ATOM     18  C   UNL     1      -1.939  13.234  23.206  0.00  0.00    +0.000 A 
ATOM     19  H   UNL     1      -0.785  10.770  23.552  0.00  0.00    +0.000 HD
ENDBRANCH   4   7
BRANCH   1  21
ATOM     20  O   UNL     1       2.130   7.835  17.946  0.00  0.00    +0.000 OA
ATOM     21  C   UNL     1       2.181   7.679  19.157  0.00  0.00    +0.000 C 
ATOM     22  N   UNL     1       2.848   6.644  19.781  0.00  0.00    +0.000 N 
ATOM     23  H   UNL     1       2.571   6.404  20.723  0.00  0.00    +0.000 HD
BRANCH  22  24
ATOM     24  C   UNL     1       3.498   5.605  19.008  0.00  0.00    +0.000 C 
BRANCH  24  25
ATOM     25  C   UNL     1       2.678   4.346  18.898  0.00  0.00    +0.000 A 
ATOM     26  C   UNL     1       1.554   4.094  19.701  0.00  0.00    +0.000 A 
ATOM     27  C   UNL     1       0.852   2.887  19.589  0.00  0.00    +0.000 A 
ATOM     28  C   UNL     1       1.275   1.907  18.689  0.00  0.00    +0.000 A 
ATOM     29  C   UNL     1       2.403   2.132  17.908  0.00  0.00    +0.000 A 
ATOM     30  C   UNL     1       3.093   3.338  18.022  0.00  0.00    +0.000 A 
ATOM     31  F   UNL     1       4.187   3.522  17.269  0.00  0.00    +0.000 F 
ENDBRANCH  24  25
ENDBRANCH  22  24
ENDBRANCH   1  21
TORSDOF 4
ENDMDL
MODEL 9
REMARK VINA RESULT:      -8.8      3.666      5.099
REMARK  Name = 
REMARK  4 active torsions:
REMARK  status: ('A' for Active; 'I' for Inactive)
REMARK    1  A    between atoms: C_2  and  C_12
REMARK    2  A    between atoms: N_3  and  C_4
REMARK    3  A    between atoms: C_4  and  C_5
REMARK    4  A    between atoms: C_15  and  N_16
REMARK                            x       y       z     vdW  Elec       q    Type
REMARK                         _______ _______ _______ _____ _____    ______ ____
ROOT
ATOM      1  C   UNL     1       1.418   8.742  19.298  0.00  0.00    +0.000 A 
ATOM      2  C   UNL     1       1.487   8.399  20.651  0.00  0.00    +0.000 A 
ATOM      3  C   UNL     1       0.687   9.068  21.586  0.00  0.00    +0.000 A 
ATOM      4  C   UNL     1      -0.174  10.102  21.182  0.00  0.00    +0.000 A 
ATOM      5  C   UNL     1      -0.315  10.347  19.811  0.00  0.00    +0.000 A 
ATOM      6  C   UNL     1       0.482   9.689  18.875  0.00  0.00    +0.000 A 
ENDROOT
BRANCH   4   7
ATOM      7  N   UNL     1      -0.940  10.813  22.141  0.00  0.00    +0.000 N 
ATOM      8  C   UNL     1      -0.986  12.196  22.171  0.00  0.00    +0.000 C 
ATOM      9  N   UNL     1      -0.113  12.984  21.610  0.00  0.00    +0.000 NA
ATOM     10  S   UNL     1      -0.332  14.533  22.085  0.00  0.00    +0.000 S 
ATOM     11  O   UNL     1      -0.908  15.317  21.001  0.00  0.00    +0.000 OA
ATOM     12  O   UNL     1       0.806  14.989  22.851  0.00  0.00    +0.000 OA
ATOM     13  C   UNL     1      -1.607  14.189  23.207  0.00  0.00    +0.000 A 
ATOM     14  C   UNL     1      -2.155  15.008  24.171  0.00  0.00    +0.000 A 
ATOM     15  C   UNL     1      -3.250  14.502  24.873  0.00  0.00    +0.000 A 
ATOM     16  C   UNL     1      -3.776  13.232  24.560  0.00  0.00    +0.000 A 
ATOM     17  C   UNL     1      -3.134  12.395  23.636  0.00  0.00    +0.000 A 
ATOM     18  C   UNL     1      -1.994  12.880  23.020  0.00  0.00    +0.000 A 
ATOM     19  H   UNL     1      -0.748  10.437  23.068  0.00  0.00    +0.000 HD
ENDBRANCH   4   7
BRANCH   1  21
ATOM     20  O   UNL     1       2.694   8.685  17.320  0.00  0.00    +0.000 OA
ATOM     21  C   UNL     1       2.336   8.090  18.325  0.00  0.00    +0.000 C 
ATOM     22  N   UNL     1       2.692   6.791  18.629  0.00  0.00    +0.000 N 
ATOM     23  H   UNL     1       2.106   6.281  19.277  0.00  0.00    +0.000 HD
BRANCH  22  24
ATOM     24  C   UNL     1       3.487   6.003  17.710  0.00  0.00    +0.000 C 
BRANCH  24  25
ATOM     25  C   UNL     1       3.428   4.524  17.991  0.00  0.00    +0.000 A 
ATOM     26  C   UNL     1       2.476   3.673  17.407  0.00  0.00    +0.000 A 
ATOM     27  C   UNL     1       2.438   2.312  17.737  0.00  0.00    +0.000 A 
ATOM     28  C   UNL     1       3.336   1.788  18.668  0.00  0.00    +0.000 A 
ATOM     29  C   UNL     1       4.265   2.625  19.275  0.00  0.00    +0.000 A 
ATOM     30  C   UNL     1       4.300   3.977  18.938  0.00  0.00    +0.000 A 
ATOM     31  F   UNL     1       5.195   4.766  19.550  0.00  0.00    +0.000 F 
ENDBRANCH  24  25
ENDBRANCH  22  24
ENDBRANCH   1  21
TORSDOF 4
ENDMDL
