MODEL 1
REMARK VINA RESULT:      -7.5      0.000      0.000
REMARK  Name = 
REMARK  4 active torsions:
REMARK  status: ('A' for Active; 'I' for Inactive)
REMARK    1  A    between atoms: C_1  and  C_2
REMARK    2  A    between atoms: C_6  and  S_7
REMARK    3  A    between atoms: S_7  and  N_10
REMARK    4  A    between atoms: C_15  and  C_17
REMARK                            x       y       z     vdW  Elec       q    Type
REMARK                         _______ _______ _______ _____ _____    ______ ____
ROOT
ATOM      1  N   UNL     1      -1.970  13.628  21.786  0.00  0.00    +0.000 NA
ATOM      2  C   UNL     1      -2.348  12.354  22.462  0.00  0.00    +0.000 C 
ATOM      3  C   UNL     1      -3.250  12.534  23.675  0.00  0.00    +0.000 C 
ATOM      4  C   UNL     1      -4.715  12.881  23.420  0.00  0.00    +0.000 C 
ATOM      5  N   UNL     1      -5.037  13.255  22.046  0.00  0.00    +0.000 N 
ATOM      6  C   UNL     1      -6.105  12.592  21.416  0.00  0.00    +0.000 C 
ATOM      7  O   UNL     1      -6.750  11.711  21.990  0.00  0.00    +0.000 OA
ATOM      8  C   UNL     1      -4.386  14.487  21.593  0.00  0.00    +0.000 C 
ATOM      9  C   UNL     1      -3.009  14.290  20.955  0.00  0.00    +0.000 C 
ENDROOT
BRANCH   6  10
ATOM     10  C   UNL     1      -6.539  12.911  20.021  0.00  0.00    +0.000 A 
ATOM     11  C   UNL     1      -7.529  13.851  19.720  0.00  0.00    +0.000 A 
ATOM     12  C   UNL     1      -7.915  14.119  18.405  0.00  0.00    +0.000 A 
ATOM     13  C   UNL     1      -7.241  13.508  17.358  0.00  0.00    +0.000 A 
ATOM     14  C   UNL     1      -6.194  12.639  17.641  0.00  0.00    +0.000 A 
ATOM     15  F   UNL     1      -5.503  12.104  16.627  0.00  0.00    +0.000 F 
ATOM     16  C   UNL     1      -5.843  12.329  18.954  0.00  0.00    +0.000 A 
ENDBRANCH   6  10
BRANCH   1  17
ATOM     17  S   UNL     1      -0.441  13.558  20.946  0.00  0.00    +0.000 S 
ATOM     18  O   UNL     1       0.572  13.709  21.977  0.00  0.00    +0.000 OA
ATOM     19  O   UNL     1      -0.463  14.493  19.842  0.00  0.00    +0.000 OA
BRANCH  17  25
ATOM     20  C   UNL     1      -2.730  10.051  15.537  0.00  0.00    +0.000 C 
ATOM     21  C   UNL     1      -2.149  10.467  16.852  0.00  0.00    +0.000 A 
ATOM     22  C   UNL     1      -2.554  11.621  17.498  0.00  0.00    +0.000 A 
ATOM     23  N   UNL     1      -2.005  12.092  18.645  0.00  0.00    +0.000 NA
ATOM     24  C   UNL     1      -0.977  11.422  19.214  0.00  0.00    +0.000 A 
ATOM     25  C   UNL     1      -0.269  11.880  20.335  0.00  0.00    +0.000 A 
ATOM     26  C   UNL     1       0.755  11.108  20.925  0.00  0.00    +0.000 A 
ATOM     27  C   UNL     1       1.090   9.863  20.409  0.00  0.00    +0.000 A 
ATOM     28  C   UNL     1       0.436   9.404  19.274  0.00  0.00    +0.000 A 
ATOM     29  C   UNL     1      -0.571  10.173  18.668  0.00  0.00    +0.000 A 
ATOM     30  C   UNL     1      -1.165   9.715  17.482  0.00  0.00    +0.000 A 
ENDBRANCH  17  25
ENDBRANCH   1  17
TORSDOF 3
ENDMDL
MODEL 2
REMARK VINA RESULT:      -7.3      3.064      4.246
REMARK  Name = 
REMARK  4 active torsions:
REMARK  status: ('A' for Active; 'I' for Inactive)
REMARK    1  A    between atoms: C_1  and  C_2
REMARK    2  A    between atoms: C_6  and  S_7
REMARK    3  A    between atoms: S_7  and  N_10
REMARK    4  A    between atoms: C_15  and  C_17
REMARK                            x       y       z     vdW  Elec       q    Type
REMARK                         _______ _______ _______ _____ _____    ______ ____
ROOT
ATOM      1  N   UNL     1      -0.340  11.062  21.334  0.00  0.00    +0.000 NA
ATOM      2  C   UNL     1      -0.787  11.759  22.574  0.00  0.00    +0.000 C 
ATOM      3  C   UNL     1      -0.756  13.279  22.483  0.00  0.00    +0.000 C 
ATOM      4  C   UNL     1      -1.848  13.959  21.659  0.00  0.00    +0.000 C 
ATOM      5  N   UNL     1      -2.656  13.064  20.836  0.00  0.00    +0.000 N 
ATOM      6  C   UNL     1      -4.055  13.151  20.945  0.00  0.00    +0.000 C 
ATOM      7  O   UNL     1      -4.595  13.945  21.719  0.00  0.00    +0.000 OA
ATOM      8  C   UNL     1      -1.905  12.383  19.778  0.00  0.00    +0.000 C 
ATOM      9  C   UNL     1      -1.285  11.044  20.187  0.00  0.00    +0.000 C 
ENDROOT
BRANCH   6  10
ATOM     10  C   UNL     1      -4.981  12.302  20.133  0.00  0.00    +0.000 A 
ATOM     11  C   UNL     1      -6.208  11.833  20.609  0.00  0.00    +0.000 A 
ATOM     12  C   UNL     1      -7.046  11.036  19.827  0.00  0.00    +0.000 A 
ATOM     13  C   UNL     1      -6.702  10.773  18.509  0.00  0.00    +0.000 A 
ATOM     14  C   UNL     1      -5.527  11.310  17.995  0.00  0.00    +0.000 A 
ATOM     15  F   UNL     1      -5.232  11.111  16.704  0.00  0.00    +0.000 F 
ATOM     16  C   UNL     1      -4.663  12.061  18.791  0.00  0.00    +0.000 A 
ENDBRANCH   6  10
BRANCH   1  17
ATOM     17  S   UNL     1       0.339   9.479  21.616  0.00  0.00    +0.000 S 
ATOM     18  O   UNL     1      -0.794   8.570  21.631  0.00  0.00    +0.000 OA
ATOM     19  O   UNL     1       1.210   9.534  22.771  0.00  0.00    +0.000 OA
BRANCH  17  25
ATOM     20  C   UNL     1       2.686   3.714  18.780  0.00  0.00    +0.000 C 
ATOM     21  C   UNL     1       2.421   5.137  19.157  0.00  0.00    +0.000 A 
ATOM     22  C   UNL     1       2.015   5.492  20.431  0.00  0.00    +0.000 A 
ATOM     23  N   UNL     1       1.679   6.752  20.806  0.00  0.00    +0.000 NA
ATOM     24  C   UNL     1       1.715   7.749  19.893  0.00  0.00    +0.000 A 
ATOM     25  C   UNL     1       1.282   9.059  20.148  0.00  0.00    +0.000 A 
ATOM     26  C   UNL     1       1.401  10.076  19.176  0.00  0.00    +0.000 A 
ATOM     27  C   UNL     1       1.956   9.805  17.933  0.00  0.00    +0.000 A 
ATOM     28  C   UNL     1       2.351   8.508  17.637  0.00  0.00    +0.000 A 
ATOM     29  C   UNL     1       2.219   7.485  18.591  0.00  0.00    +0.000 A 
ATOM     30  C   UNL     1       2.562   6.170  18.239  0.00  0.00    +0.000 A 
ENDBRANCH  17  25
ENDBRANCH   1  17
TORSDOF 3
ENDMDL
MODEL 3
REMARK VINA RESULT:      -7.3      3.318      4.629
REMARK  Name = 
REMARK  4 active torsions:
REMARK  status: ('A' for Active; 'I' for Inactive)
REMARK    1  A    between atoms: C_1  and  C_2
REMARK    2  A    between atoms: C_6  and  S_7
REMARK    3  A    between atoms: S_7  and  N_10
REMARK    4  A    between atoms: C_15  and  C_17
REMARK                            x       y       z     vdW  Elec       q    Type
REMARK                         _______ _______ _______ _____ _____    ______ ____
ROOT
ATOM      1  N   UNL     1      -0.144  11.032  20.913  0.00  0.00    +0.000 NA
ATOM      2  C   UNL     1      -0.468  11.927  22.060  0.00  0.00    +0.000 C 
ATOM      3  C   UNL     1      -0.361  13.412  21.745  0.00  0.00    +0.000 C 
ATOM      4  C   UNL     1      -1.467  14.035  20.895  0.00  0.00    +0.000 C 
ATOM      5  N   UNL     1      -2.376  13.084  20.262  0.00  0.00    +0.000 N 
ATOM      6  C   UNL     1      -3.758  13.275  20.439  0.00  0.00    +0.000 C 
ATOM      7  O   UNL     1      -4.201  14.205  21.118  0.00  0.00    +0.000 OA
ATOM      8  C   UNL     1      -1.736  12.213  19.273  0.00  0.00    +0.000 C 
ATOM      9  C   UNL     1      -1.164  10.910  19.839  0.00  0.00    +0.000 C 
ENDROOT
BRANCH   6  10
ATOM     10  C   UNL     1      -4.780  12.379  19.817  0.00  0.00    +0.000 A 
ATOM     11  C   UNL     1      -4.651  11.841  18.534  0.00  0.00    +0.000 A 
ATOM     12  C   UNL     1      -5.629  11.013  17.980  0.00  0.00    +0.000 A 
ATOM     13  C   UNL     1      -6.719  10.634  18.750  0.00  0.00    +0.000 A 
ATOM     14  C   UNL     1      -6.814  11.090  20.060  0.00  0.00    +0.000 A 
ATOM     15  F   UNL     1      -7.832  10.669  20.822  0.00  0.00    +0.000 F 
ATOM     16  C   UNL     1      -5.866  11.961  20.596  0.00  0.00    +0.000 A 
ENDBRANCH   6  10
BRANCH   1  17
ATOM     17  S   UNL     1       0.466   9.466  21.384  0.00  0.00    +0.000 S 
ATOM     18  O   UNL     1      -0.704   8.611  21.483  0.00  0.00    +0.000 OA
ATOM     19  O   UNL     1       1.324   9.618  22.539  0.00  0.00    +0.000 OA
BRANCH  17  25
ATOM     20  C   UNL     1       2.543   3.317  19.223  0.00  0.00    +0.000 C 
ATOM     21  C   UNL     1       2.349   4.784  19.442  0.00  0.00    +0.000 A 
ATOM     22  C   UNL     1       1.942   5.294  20.661  0.00  0.00    +0.000 A 
ATOM     23  N   UNL     1       1.669   6.602  20.895  0.00  0.00    +0.000 NA
ATOM     24  C   UNL     1       1.773   7.493  19.883  0.00  0.00    +0.000 A 
ATOM     25  C   UNL     1       1.408   8.843  19.989  0.00  0.00    +0.000 A 
ATOM     26  C   UNL     1       1.598   9.744  18.918  0.00  0.00    +0.000 A 
ATOM     27  C   UNL     1       2.156   9.314  17.723  0.00  0.00    +0.000 A 
ATOM     28  C   UNL     1       2.486   7.974  17.574  0.00  0.00    +0.000 A 
ATOM     29  C   UNL     1       2.283   7.066  18.627  0.00  0.00    +0.000 A 
ATOM     30  C   UNL     1       2.560   5.705  18.423  0.00  0.00    +0.000 A 
ENDBRANCH  17  25
ENDBRANCH   1  17
TORSDOF 3
ENDMDL
MODEL 4
REMARK VINA RESULT:      -7.2      1.707      2.587
REMARK  Name = 
REMARK  4 active torsions:
REMARK  status: ('A' for Active; 'I' for Inactive)
REMARK    1  A    between atoms: C_1  and  C_2
REMARK    2  A    between atoms: C_6  and  S_7
REMARK    3  A    between atoms: S_7  and  N_10
REMARK    4  A    between atoms: C_15  and  C_17
REMARK                            x       y       z     vdW  Elec       q    Type
REMARK                         _______ _______ _______ _____ _____    ______ ____
ROOT
ATOM      1  N   UNL     1      -2.797  13.609  23.126  0.00  0.00    +0.000 NA
ATOM      2  C   UNL     1      -3.381  12.376  23.728  0.00  0.00    +0.000 C 
ATOM      3  C   UNL     1      -4.716  12.594  24.427  0.00  0.00    +0.000 C 
ATOM      4  C   UNL     1      -5.948  12.797  23.547  0.00  0.00    +0.000 C 
ATOM      5  N   UNL     1      -5.672  13.015  22.130  0.00  0.00    +0.000 N 
ATOM      6  C   UNL     1      -6.352  12.213  21.195  0.00  0.00    +0.000 C 
ATOM      7  O   UNL     1      -7.147  11.340  21.548  0.00  0.00    +0.000 OA
ATOM      8  C   UNL     1      -4.934  14.249  21.847  0.00  0.00    +0.000 C 
ATOM      9  C   UNL     1      -3.410  14.105  21.867  0.00  0.00    +0.000 C 
ENDROOT
BRANCH   6  10
ATOM     10  C   UNL     1      -6.167  12.366  19.719  0.00  0.00    +0.000 A 
ATOM     11  C   UNL     1      -5.166  11.708  18.998  0.00  0.00    +0.000 A 
ATOM     12  C   UNL     1      -5.017  11.878  17.621  0.00  0.00    +0.000 A 
ATOM     13  C   UNL     1      -5.938  12.647  16.924  0.00  0.00    +0.000 A 
ATOM     14  C   UNL     1      -6.992  13.234  17.616  0.00  0.00    +0.000 A 
ATOM     15  F   UNL     1      -7.916  13.919  16.931  0.00  0.00    +0.000 F 
ATOM     16  C   UNL     1      -7.111  13.109  18.999  0.00  0.00    +0.000 A 
ENDBRANCH   6  10
BRANCH   1  17
ATOM     17  S   UNL     1      -1.055  13.586  23.013  0.00  0.00    +0.000 S 
ATOM     18  O   UNL     1      -0.668  12.217  23.306  0.00  0.00    +0.000 OA
ATOM     19  O   UNL     1      -0.512  14.657  23.820  0.00  0.00    +0.000 OA
BRANCH  17  25
ATOM     20  C   UNL     1      -1.817  10.046  17.209  0.00  0.00    +0.000 C 
ATOM     21  C   UNL     1      -1.407  11.024  18.264  0.00  0.00    +0.000 A 
ATOM     22  C   UNL     1      -1.392  10.690  19.606  0.00  0.00    +0.000 A 
ATOM     23  N   UNL     1      -1.112  11.557  20.610  0.00  0.00    +0.000 NA
ATOM     24  C   UNL     1      -0.844  12.850  20.317  0.00  0.00    +0.000 A 
ATOM     25  C   UNL     1      -0.652  13.848  21.283  0.00  0.00    +0.000 A 
ATOM     26  C   UNL     1      -0.312  15.169  20.920  0.00  0.00    +0.000 A 
ATOM     27  C   UNL     1      -0.154  15.518  19.586  0.00  0.00    +0.000 A 
ATOM     28  C   UNL     1      -0.381  14.562  18.606  0.00  0.00    +0.000 A 
ATOM     29  C   UNL     1      -0.739  13.249  18.957  0.00  0.00    +0.000 A 
ATOM     30  C   UNL     1      -1.031  12.323  17.943  0.00  0.00    +0.000 A 
ENDBRANCH  17  25
ENDBRANCH   1  17
TORSDOF 3
ENDMDL
MODEL 5
REMARK VINA RESULT:      -7.1      3.773      5.735
REMARK  Name = 
REMARK  4 active torsions:
REMARK  status: ('A' for Active; 'I' for Inactive)
REMARK    1  A    between atoms: C_1  and  C_2
REMARK    2  A    between atoms: C_6  and  S_7
REMARK    3  A    between atoms: S_7  and  N_10
REMARK    4  A    between atoms: C_15  and  C_17
REMARK                            x       y       z     vdW  Elec       q    Type
REMARK                         _______ _______ _______ _____ _____    ______ ____
ROOT
ATOM      1  N   UNL     1       0.361  10.591  20.409  0.00  0.00    +0.000 NA
ATOM      2  C   UNL     1       1.187  11.754  20.840  0.00  0.00    +0.000 C 
ATOM      3  C   UNL     1       1.267  12.878  19.817  0.00  0.00    +0.000 C 
ATOM      4  C   UNL     1       0.036  13.765  19.646  0.00  0.00    +0.000 C 
ATOM      5  N   UNL     1      -1.176  13.281  20.300  0.00  0.00    +0.000 N 
ATOM      6  C   UNL     1      -1.870  14.168  21.142  0.00  0.00    +0.000 C 
ATOM      7  O   UNL     1      -1.469  15.318  21.343  0.00  0.00    +0.000 OA
ATOM      8  C   UNL     1      -1.681  12.015  19.763  0.00  0.00    +0.000 C 
ATOM      9  C   UNL     1      -1.115  10.760  20.434  0.00  0.00    +0.000 C 
ENDROOT
BRANCH   6  10
ATOM     10  C   UNL     1      -3.135  13.790  21.843  0.00  0.00    +0.000 A 
ATOM     11  C   UNL     1      -4.401  13.918  21.266  0.00  0.00    +0.000 A 
ATOM     12  C   UNL     1      -5.564  13.561  21.951  0.00  0.00    +0.000 A 
ATOM     13  C   UNL     1      -5.464  12.977  23.205  0.00  0.00    +0.000 A 
ATOM     14  C   UNL     1      -4.205  12.760  23.754  0.00  0.00    +0.000 A 
ATOM     15  F   UNL     1      -4.110  12.136  24.935  0.00  0.00    +0.000 F 
ATOM     16  C   UNL     1      -3.046  13.166  23.094  0.00  0.00    +0.000 A 
ENDBRANCH   6  10
BRANCH   1  17
ATOM     17  S   UNL     1       0.833   9.076  21.136  0.00  0.00    +0.000 S 
ATOM     18  O   UNL     1      -0.403   8.334  21.320  0.00  0.00    +0.000 OA
ATOM     19  O   UNL     1       1.670   9.341  22.286  0.00  0.00    +0.000 OA
BRANCH  17  25
ATOM     20  C   UNL     1       2.200   2.501  19.833  0.00  0.00    +0.000 C 
ATOM     21  C   UNL     1       2.189   3.996  19.871  0.00  0.00    +0.000 A 
ATOM     22  C   UNL     1       1.787   4.696  20.994  0.00  0.00    +0.000 A 
ATOM     23  N   UNL     1       1.675   6.047  21.059  0.00  0.00    +0.000 NA
ATOM     24  C   UNL     1       1.950   6.789  19.962  0.00  0.00    +0.000 A 
ATOM     25  C   UNL     1       1.760   8.177  19.889  0.00  0.00    +0.000 A 
ATOM     26  C   UNL     1       2.123   8.910  18.739  0.00  0.00    +0.000 A 
ATOM     27  C   UNL     1       2.684   8.273  17.641  0.00  0.00    +0.000 A 
ATOM     28  C   UNL     1       2.843   6.895  17.668  0.00  0.00    +0.000 A 
ATOM     29  C   UNL     1       2.467   6.153  18.800  0.00  0.00    +0.000 A 
ATOM     30  C   UNL     1       2.573   4.754  18.772  0.00  0.00    +0.000 A 
ENDBRANCH  17  25
ENDBRANCH   1  17
TORSDOF 3
ENDMDL
MODEL 6
REMARK VINA RESULT:      -7.0      5.022      6.589
REMARK  Name = 
REMARK  4 active torsions:
REMARK  status: ('A' for Active; 'I' for Inactive)
REMARK    1  A    between atoms: C_1  and  C_2
REMARK    2  A    between atoms: C_6  and  S_7
REMARK    3  A    between atoms: S_7  and  N_10
REMARK    4  A    between atoms: C_15  and  C_17
REMARK                            x       y       z     vdW  Elec       q    Type
REMARK                         _______ _______ _______ _____ _____    ______ ____
ROOT
ATOM      1  N   UNL     1       0.953  12.632  19.622  0.00  0.00    +0.000 NA
ATOM      2  C   UNL     1       1.403  13.257  20.898  0.00  0.00    +0.000 C 
ATOM      3  C   UNL     1       2.900  13.524  20.970  0.00  0.00    +0.000 C 
ATOM      4  C   UNL     1       3.448  14.695  20.157  0.00  0.00    +0.000 C 
ATOM      5  N   UNL     1       2.515  15.277  19.197  0.00  0.00    +0.000 N 
ATOM      6  C   UNL     1       2.318  16.669  19.230  0.00  0.00    +0.000 C 
ATOM      7  O   UNL     1       2.898  17.386  20.049  0.00  0.00    +0.000 OA
ATOM      8  C   UNL     1       2.118  14.366  18.121  0.00  0.00    +0.000 C 
ATOM      9  C   UNL     1       0.885  13.509  18.424  0.00  0.00    +0.000 C 
ENDROOT
BRANCH   6  10
ATOM     10  C   UNL     1       1.406  17.376  18.278  0.00  0.00    +0.000 A 
ATOM     11  C   UNL     1       1.811  17.831  17.021  0.00  0.00    +0.000 A 
ATOM     12  C   UNL     1       0.935  18.494  16.159  0.00  0.00    +0.000 A 
ATOM     13  C   UNL     1      -0.399  18.628  16.513  0.00  0.00    +0.000 A 
ATOM     14  C   UNL     1      -0.836  18.099  17.722  0.00  0.00    +0.000 A 
ATOM     15  F   UNL     1      -2.137  18.172  18.031  0.00  0.00    +0.000 F 
ATOM     16  C   UNL     1       0.049  17.486  18.608  0.00  0.00    +0.000 A 
ENDBRANCH   6  10
BRANCH   1  17
ATOM     17  S   UNL     1      -0.491  11.664  19.776  0.00  0.00    +0.000 S 
ATOM     18  O   UNL     1      -0.981  11.484  18.420  0.00  0.00    +0.000 OA
ATOM     19  O   UNL     1      -1.362  12.264  20.763  0.00  0.00    +0.000 OA
BRANCH  17  25
ATOM     20  C   UNL     1       3.890   6.918  17.522  0.00  0.00    +0.000 C 
ATOM     21  C   UNL     1       2.804   7.665  18.230  0.00  0.00    +0.000 A 
ATOM     22  C   UNL     1       2.148   8.732  17.643  0.00  0.00    +0.000 A 
ATOM     23  N   UNL     1       1.218   9.498  18.266  0.00  0.00    +0.000 NA
ATOM     24  C   UNL     1       0.901   9.242  19.556  0.00  0.00    +0.000 A 
ATOM     25  C   UNL     1       0.039  10.038  20.323  0.00  0.00    +0.000 A 
ATOM     26  C   UNL     1      -0.306   9.688  21.646  0.00  0.00    +0.000 A 
ATOM     27  C   UNL     1       0.202   8.535  22.228  0.00  0.00    +0.000 A 
ATOM     28  C   UNL     1       1.092   7.750  21.508  0.00  0.00    +0.000 A 
ATOM     29  C   UNL     1       1.456   8.101  20.197  0.00  0.00    +0.000 A 
ATOM     30  C   UNL     1       2.412   7.328  19.520  0.00  0.00    +0.000 A 
ENDBRANCH  17  25
ENDBRANCH   1  17
TORSDOF 3
ENDMDL
MODEL 7
REMARK VINA RESULT:      -6.9      3.345      4.846
REMARK  Name = 
REMARK  4 active torsions:
REMARK  status: ('A' for Active; 'I' for Inactive)
REMARK    1  A    between atoms: C_1  and  C_2
REMARK    2  A    between atoms: C_6  and  S_7
REMARK    3  A    between atoms: S_7  and  N_10
REMARK    4  A    between atoms: C_15  and  C_17
REMARK                            x       y       z     vdW  Elec       q    Type
REMARK                         _______ _______ _______ _____ _____    ______ ____
ROOT
ATOM      1  N   UNL     1       0.108  10.804  20.571  0.00  0.00    +0.000 NA
ATOM      2  C   UNL     1       0.192  11.924  21.551  0.00  0.00    +0.000 C 
ATOM      3  C   UNL     1       0.392  13.294  20.919  0.00  0.00    +0.000 C 
ATOM      4  C   UNL     1      -0.810  13.936  20.228  0.00  0.00    +0.000 C 
ATOM      5  N   UNL     1      -1.955  13.054  20.026  0.00  0.00    +0.000 N 
ATOM      6  C   UNL     1      -3.215  13.498  20.465  0.00  0.00    +0.000 C 
ATOM      7  O   UNL     1      -3.359  14.591  21.018  0.00  0.00    +0.000 OA
ATOM      8  C   UNL     1      -1.694  11.931  19.122  0.00  0.00    +0.000 C 
ATOM      9  C   UNL     1      -1.157  10.668  19.802  0.00  0.00    +0.000 C 
ENDROOT
BRANCH   6  10
ATOM     10  C   UNL     1      -4.461  12.691  20.287  0.00  0.00    +0.000 A 
ATOM     11  C   UNL     1      -5.428  12.541  21.284  0.00  0.00    +0.000 A 
ATOM     12  C   UNL     1      -6.577  11.773  21.088  0.00  0.00    +0.000 A 
ATOM     13  C   UNL     1      -6.820  11.214  19.841  0.00  0.00    +0.000 A 
ATOM     14  C   UNL     1      -5.910  11.431  18.813  0.00  0.00    +0.000 A 
ATOM     15  F   UNL     1      -6.179  10.947  17.594  0.00  0.00    +0.000 F 
ATOM     16  C   UNL     1      -4.735  12.152  19.023  0.00  0.00    +0.000 A 
ENDBRANCH   6  10
BRANCH   1  17
ATOM     17  S   UNL     1       0.626   9.263  21.207  0.00  0.00    +0.000 S 
ATOM     18  O   UNL     1      -0.586   8.472  21.335  0.00  0.00    +0.000 OA
ATOM     19  O   UNL     1       1.446   9.485  22.379  0.00  0.00    +0.000 OA
BRANCH  17  25
ATOM     20  C   UNL     1       2.438   2.850  19.664  0.00  0.00    +0.000 C 
ATOM     21  C   UNL     1       2.319   4.339  19.752  0.00  0.00    +0.000 A 
ATOM     22  C   UNL     1       1.890   4.972  20.904  0.00  0.00    +0.000 A 
ATOM     23  N   UNL     1       1.683   6.308  21.015  0.00  0.00    +0.000 NA
ATOM     24  C   UNL     1       1.881   7.103  19.939  0.00  0.00    +0.000 A 
ATOM     25  C   UNL     1       1.590   8.474  19.916  0.00  0.00    +0.000 A 
ATOM     26  C   UNL     1       1.877   9.269  18.784  0.00  0.00    +0.000 A 
ATOM     27  C   UNL     1       2.460   8.709  17.656  0.00  0.00    +0.000 A 
ATOM     28  C   UNL     1       2.719   7.345  17.635  0.00  0.00    +0.000 A 
ATOM     29  C   UNL     1       2.420   6.543  18.748  0.00  0.00    +0.000 A 
ATOM     30  C   UNL     1       2.626   5.157  18.672  0.00  0.00    +0.000 A 
ENDBRANCH  17  25
ENDBRANCH   1  17
TORSDOF 3
ENDMDL
MODEL 8
REMARK VINA RESULT:      -6.9      3.606      5.687
REMARK  Name = 
REMARK  4 active torsions:
REMARK  status: ('A' for Active; 'I' for Inactive)
REMARK    1  A    between atoms: C_1  and  C_2
REMARK    2  A    between atoms: C_6  and  S_7
REMARK    3  A    between atoms: S_7  and  N_10
REMARK    4  A    between atoms: C_15  and  C_17
REMARK                            x       y       z     vdW  Elec       q    Type
REMARK                         _______ _______ _______ _____ _____    ______ ____
ROOT
ATOM      1  N   UNL     1       0.265  10.649  20.674  0.00  0.00    +0.000 NA
ATOM      2  C   UNL     1       1.105  11.802  21.107  0.00  0.00    +0.000 C 
ATOM      3  C   UNL     1       1.096  12.979  20.141  0.00  0.00    +0.000 C 
ATOM      4  C   UNL     1      -0.156  13.853  20.105  0.00  0.00    +0.000 C 
ATOM      5  N   UNL     1      -1.312  13.315  20.817  0.00  0.00    +0.000 N 
ATOM      6  C   UNL     1      -1.955  14.145  21.752  0.00  0.00    +0.000 C 
ATOM      7  O   UNL     1      -1.557  15.289  21.984  0.00  0.00    +0.000 OA
ATOM      8  C   UNL     1      -1.837  12.069  20.251  0.00  0.00    +0.000 C 
ATOM      9  C   UNL     1      -1.208  10.792  20.813  0.00  0.00    +0.000 C 
ENDROOT
BRANCH   6  10
ATOM     10  C   UNL     1      -3.162  13.708  22.520  0.00  0.00    +0.000 A 
ATOM     11  C   UNL     1      -3.095  12.923  23.674  0.00  0.00    +0.000 A 
ATOM     12  C   UNL     1      -4.243  12.527  24.364  0.00  0.00    +0.000 A 
ATOM     13  C   UNL     1      -5.482  12.996  23.952  0.00  0.00    +0.000 A 
ATOM     14  C   UNL     1      -5.554  13.852  22.859  0.00  0.00    +0.000 A 
ATOM     15  F   UNL     1      -6.743  14.356  22.506  0.00  0.00    +0.000 F 
ATOM     16  C   UNL     1      -4.414  14.205  22.137  0.00  0.00    +0.000 A 
ENDBRANCH   6  10
BRANCH   1  17
ATOM     17  S   UNL     1       0.809   9.107  21.285  0.00  0.00    +0.000 S 
ATOM     18  O   UNL     1      -0.399   8.325  21.489  0.00  0.00    +0.000 OA
ATOM     19  O   UNL     1       1.700   9.326  22.404  0.00  0.00    +0.000 OA
BRANCH  17  25
ATOM     20  C   UNL     1       2.468   2.673  19.658  0.00  0.00    +0.000 C 
ATOM     21  C   UNL     1       2.368   4.163  19.748  0.00  0.00    +0.000 A 
ATOM     22  C   UNL     1       2.014   4.803  20.921  0.00  0.00    +0.000 A 
ATOM     23  N   UNL     1       1.825   6.141  21.040  0.00  0.00    +0.000 NA
ATOM     24  C   UNL     1       1.967   6.931  19.952  0.00  0.00    +0.000 A 
ATOM     25  C   UNL     1       1.688   8.305  19.941  0.00  0.00    +0.000 A 
ATOM     26  C   UNL     1       1.913   9.094  18.791  0.00  0.00    +0.000 A 
ATOM     27  C   UNL     1       2.424   8.526  17.633  0.00  0.00    +0.000 A 
ATOM     28  C   UNL     1       2.668   7.160  17.600  0.00  0.00    +0.000 A 
ATOM     29  C   UNL     1       2.428   6.363  18.732  0.00  0.00    +0.000 A 
ATOM     30  C   UNL     1       2.618   4.975  18.648  0.00  0.00    +0.000 A 
ENDBRANCH  17  25
ENDBRANCH   1  17
TORSDOF 3
ENDMDL
MODEL 9
REMARK VINA RESULT:      -6.9      5.604      9.790
REMARK  Name = 
REMARK  4 active torsions:
REMARK  status: ('A' for Active; 'I' for Inactive)
REMARK    1  A    between atoms: C_1  and  C_2
REMARK    2  A    between atoms: C_6  and  S_7
REMARK    3  A    between atoms: S_7  and  N_10
REMARK    4  A    between atoms: C_15  and  C_17
REMARK                            x       y       z     vdW  Elec       q    Type
REMARK                         _______ _______ _______ _____ _____    ______ ____
ROOT
ATOM      1  N   UNL     1       1.423   8.173  19.029  0.00  0.00    +0.000 NA
ATOM      2  C   UNL     1       1.893   7.846  20.405  0.00  0.00    +0.000 C 
ATOM      3  C   UNL     1       1.442   6.483  20.913  0.00  0.00    +0.000 C 
ATOM      4  C   UNL     1       2.139   5.251  20.339  0.00  0.00    +0.000 C 
ATOM      5  N   UNL     1       2.986   5.500  19.176  0.00  0.00    +0.000 N 
ATOM      6  C   UNL     1       4.306   5.017  19.208  0.00  0.00    +0.000 C 
ATOM      7  O   UNL     1       4.752   4.413  20.187  0.00  0.00    +0.000 OA
ATOM      8  C   UNL     1       2.259   5.971  17.995  0.00  0.00    +0.000 C 
ATOM      9  C   UNL     1       2.106   7.492  17.899  0.00  0.00    +0.000 C 
ENDROOT
BRANCH   6  10
ATOM     10  C   UNL     1       5.255   5.191  18.065  0.00  0.00    +0.000 A 
ATOM     11  C   UNL     1       6.226   6.194  18.019  0.00  0.00    +0.000 A 
ATOM     12  C   UNL     1       7.092   6.333  16.932  0.00  0.00    +0.000 A 
ATOM     13  C   UNL     1       7.056   5.399  15.907  0.00  0.00    +0.000 A 
ATOM     14  C   UNL     1       6.155   4.343  15.984  0.00  0.00    +0.000 A 
ATOM     15  F   UNL     1       6.168   3.408  15.026  0.00  0.00    +0.000 F 
ATOM     16  C   UNL     1       5.253   4.234  17.041  0.00  0.00    +0.000 A 
ENDBRANCH   6  10
BRANCH   1  17
ATOM     17  S   UNL     1       1.254   9.884  18.725  0.00  0.00    +0.000 S 
ATOM     18  O   UNL     1       1.914  10.115  17.451  0.00  0.00    +0.000 OA
ATOM     19  O   UNL     1       1.696  10.620  19.889  0.00  0.00    +0.000 OA
BRANCH  17  25
ATOM     20  C   UNL     1      -3.555  13.931  21.424  0.00  0.00    +0.000 C 
ATOM     21  C   UNL     1      -2.808  12.868  20.683  0.00  0.00    +0.000 A 
ATOM     22  C   UNL     1      -1.588  12.389  21.124  0.00  0.00    +0.000 A 
ATOM     23  N   UNL     1      -0.826  11.490  20.451  0.00  0.00    +0.000 NA
ATOM     24  C   UNL     1      -1.251  11.024  19.255  0.00  0.00    +0.000 A 
ATOM     25  C   UNL     1      -0.492  10.181  18.430  0.00  0.00    +0.000 A 
ATOM     26  C   UNL     1      -1.010   9.674  17.219  0.00  0.00    +0.000 A 
ATOM     27  C   UNL     1      -2.296   9.996  16.810  0.00  0.00    +0.000 A 
ATOM     28  C   UNL     1      -3.055  10.864  17.584  0.00  0.00    +0.000 A 
ATOM     29  C   UNL     1      -2.540  11.389  18.781  0.00  0.00    +0.000 A 
ATOM     30  C   UNL     1      -3.302  12.318  19.507  0.00  0.00    +0.000 A 
ENDBRANCH  17  25
ENDBRANCH   1  17
TORSDOF 3
ENDMDL
