MODEL 1
REMARK VINA RESULT:      -8.2      0.000      0.000
REMARK  Name = 
REMARK  1 active torsions:
REMARK  status: ('A' for Active; 'I' for Inactive)
REMARK    1  A    between atoms: C_2  and  C_3
REMARK                            x       y       z     vdW  Elec       q    Type
REMARK                         _______ _______ _______ _____ _____    ______ ____
ROOT
ATOM      1  O   UNL     1       2.792   5.063  20.812  0.00  0.00    +0.000 OA
ATOM      2  C   UNL     1       2.811   5.598  19.702  0.00  0.00    +0.000 C 
ATOM      3  N   UNL     1       2.312   6.874  19.425  0.00  0.00    +0.000 N 
ATOM      4  C   UNL     1       2.470   7.629  18.155  0.00  0.00    +0.000 C 
ATOM      5  C   UNL     1       2.100   9.069  18.486  0.00  0.00    +0.000 C 
ATOM      6  N   UNL     1       1.435   8.899  19.751  0.00  0.00    +0.000 N 
ATOM      7  C   UNL     1       1.595   7.659  20.304  0.00  0.00    +0.000 A 
ATOM      8  N   UNL     1       1.014   7.602  21.475  0.00  0.00    +0.000 NA
ATOM      9  C   UNL     1       0.435   8.868  21.639  0.00  0.00    +0.000 A 
ATOM     10  C   UNL     1      -0.347   9.398  22.681  0.00  0.00    +0.000 A 
ATOM     11  C   UNL     1      -0.784  10.734  22.595  0.00  0.00    +0.000 A 
ATOM     12  C   UNL     1      -0.457  11.536  21.498  0.00  0.00    +0.000 A 
ATOM     13  C   UNL     1       0.304  11.033  20.443  0.00  0.00    +0.000 A 
ATOM     14  C   UNL     1       0.718   9.703  20.553  0.00  0.00    +0.000 A 
ENDROOT
BRANCH   2  15
ATOM     15  C   UNL     1       3.468   4.911  18.538  0.00  0.00    +0.000 A 
ATOM     16  N   UNL     1       2.749   4.202  17.639  0.00  0.00    +0.000 NA
ATOM     17  N   UNL     1       3.622   3.859  16.691  0.00  0.00    +0.000 N 
ATOM     18  C   UNL     1       4.904   4.241  16.942  0.00  0.00    +0.000 A 
ATOM     19  C   UNL     1       6.069   4.058  16.191  0.00  0.00    +0.000 A 
ATOM     20  C   UNL     1       7.255   4.552  16.730  0.00  0.00    +0.000 A 
ATOM     21  C   UNL     1       7.259   5.212  17.959  0.00  0.00    +0.000 A 
ATOM     22  C   UNL     1       6.070   5.407  18.684  0.00  0.00    +0.000 A 
ATOM     23  C   UNL     1       4.857   4.904  18.167  0.00  0.00    +0.000 A 
ATOM     24  H   UNL     1       3.277   3.364  15.877  0.00  0.00    +0.000 HD
ENDBRANCH   2  15
TORSDOF 1
ENDMDL
MODEL 2
REMARK VINA RESULT:      -7.9      2.027      3.100
REMARK  Name = 
REMARK  1 active torsions:
REMARK  status: ('A' for Active; 'I' for Inactive)
REMARK    1  A    between atoms: C_2  and  C_3
REMARK                            x       y       z     vdW  Elec       q    Type
REMARK                         _______ _______ _______ _____ _____    ______ ____
ROOT
ATOM      1  O   UNL     1       2.086   8.884  17.157  0.00  0.00    +0.000 OA
ATOM      2  C   UNL     1       2.364   8.122  18.086  0.00  0.00    +0.000 C 
ATOM      3  N   UNL     1       1.871   8.243  19.389  0.00  0.00    +0.000 N 
ATOM      4  C   UNL     1       2.032   7.258  20.489  0.00  0.00    +0.000 C 
ATOM      5  C   UNL     1       1.015   7.660  21.550  0.00  0.00    +0.000 C 
ATOM      6  N   UNL     1       0.677   8.990  21.119  0.00  0.00    +0.000 N 
ATOM      7  C   UNL     1       1.131   9.303  19.867  0.00  0.00    +0.000 A 
ATOM      8  N   UNL     1       0.735  10.503  19.524  0.00  0.00    +0.000 NA
ATOM      9  C   UNL     1       0.025  10.968  20.640  0.00  0.00    +0.000 A 
ATOM     10  C   UNL     1      -0.609  12.200  20.884  0.00  0.00    +0.000 A 
ATOM     11  C   UNL     1      -1.281  12.391  22.106  0.00  0.00    +0.000 A 
ATOM     12  C   UNL     1      -1.327  11.386  23.075  0.00  0.00    +0.000 A 
ATOM     13  C   UNL     1      -0.695  10.161  22.868  0.00  0.00    +0.000 A 
ATOM     14  C   UNL     1      -0.031  10.001  21.649  0.00  0.00    +0.000 A 
ENDROOT
BRANCH   2  15
ATOM     15  C   UNL     1       3.230   6.918  17.848  0.00  0.00    +0.000 A 
ATOM     16  N   UNL     1       4.566   7.033  17.674  0.00  0.00    +0.000 NA
ATOM     17  N   UNL     1       5.018   5.779  17.628  0.00  0.00    +0.000 N 
ATOM     18  C   UNL     1       4.047   4.828  17.693  0.00  0.00    +0.000 A 
ATOM     19  C   UNL     1       4.140   3.433  17.672  0.00  0.00    +0.000 A 
ATOM     20  C   UNL     1       2.947   2.717  17.734  0.00  0.00    +0.000 A 
ATOM     21  C   UNL     1       1.722   3.379  17.829  0.00  0.00    +0.000 A 
ATOM     22  C   UNL     1       1.656   4.784  17.875  0.00  0.00    +0.000 A 
ATOM     23  C   UNL     1       2.849   5.532  17.800  0.00  0.00    +0.000 A 
ATOM     24  H   UNL     1       6.019   5.632  17.561  0.00  0.00    +0.000 HD
ENDBRANCH   2  15
TORSDOF 1
ENDMDL
MODEL 3
REMARK VINA RESULT:      -7.8      4.252      5.714
REMARK  Name = 
REMARK  1 active torsions:
REMARK  status: ('A' for Active; 'I' for Inactive)
REMARK    1  A    between atoms: C_2  and  C_3
REMARK                            x       y       z     vdW  Elec       q    Type
REMARK                         _______ _______ _______ _____ _____    ______ ____
ROOT
ATOM      1  O   UNL     1       7.404   3.993  18.061  0.00  0.00    +0.000 OA
ATOM      2  C   UNL     1       6.564   4.400  17.255  0.00  0.00    +0.000 C 
ATOM      3  N   UNL     1       5.188   4.448  17.496  0.00  0.00    +0.000 N 
ATOM      4  C   UNL     1       4.163   5.090  16.634  0.00  0.00    +0.000 C 
ATOM      5  C   UNL     1       2.914   5.205  17.499  0.00  0.00    +0.000 C 
ATOM      6  N   UNL     1       3.242   4.309  18.576  0.00  0.00    +0.000 N 
ATOM      7  C   UNL     1       4.551   3.914  18.595  0.00  0.00    +0.000 A 
ATOM      8  N   UNL     1       4.784   3.152  19.634  0.00  0.00    +0.000 NA
ATOM      9  C   UNL     1       3.540   3.044  20.272  0.00  0.00    +0.000 A 
ATOM     10  C   UNL     1       3.150   2.330  21.419  0.00  0.00    +0.000 A 
ATOM     11  C   UNL     1       1.815   2.422  21.860  0.00  0.00    +0.000 A 
ATOM     12  C   UNL     1       0.879   3.204  21.180  0.00  0.00    +0.000 A 
ATOM     13  C   UNL     1       1.232   3.910  20.031  0.00  0.00    +0.000 A 
ATOM     14  C   UNL     1       2.561   3.796  19.614  0.00  0.00    +0.000 A 
ENDROOT
BRANCH   2  15
ATOM     15  C   UNL     1       6.994   4.965  15.931  0.00  0.00    +0.000 A 
ATOM     16  N   UNL     1       7.740   6.090  15.852  0.00  0.00    +0.000 NA
ATOM     17  N   UNL     1       8.043   6.214  14.558  0.00  0.00    +0.000 N 
ATOM     18  C   UNL     1       7.480   5.270  13.756  0.00  0.00    +0.000 A 
ATOM     19  C   UNL     1       7.567   5.086  12.373  0.00  0.00    +0.000 A 
ATOM     20  C   UNL     1       6.848   4.024  11.828  0.00  0.00    +0.000 A 
ATOM     21  C   UNL     1       6.092   3.182  12.644  0.00  0.00    +0.000 A 
ATOM     22  C   UNL     1       6.041   3.372  14.037  0.00  0.00    +0.000 A 
ATOM     23  C   UNL     1       6.749   4.449  14.612  0.00  0.00    +0.000 A 
ATOM     24  H   UNL     1       8.656   6.971  14.280  0.00  0.00    +0.000 HD
ENDBRANCH   2  15
TORSDOF 1
ENDMDL
MODEL 4
REMARK VINA RESULT:      -7.5      1.460      2.150
REMARK  Name = 
REMARK  1 active torsions:
REMARK  status: ('A' for Active; 'I' for Inactive)
REMARK    1  A    between atoms: C_2  and  C_3
REMARK                            x       y       z     vdW  Elec       q    Type
REMARK                         _______ _______ _______ _____ _____    ______ ____
ROOT
ATOM      1  O   UNL     1       2.530   8.526  17.186  0.00  0.00    +0.000 OA
ATOM      2  C   UNL     1       2.645   7.653  18.050  0.00  0.00    +0.000 C 
ATOM      3  N   UNL     1       2.070   7.714  19.322  0.00  0.00    +0.000 N 
ATOM      4  C   UNL     1       2.030   6.620  20.327  0.00  0.00    +0.000 C 
ATOM      5  C   UNL     1       0.988   7.045  21.354  0.00  0.00    +0.000 C 
ATOM      6  N   UNL     1       0.841   8.440  21.036  0.00  0.00    +0.000 N 
ATOM      7  C   UNL     1       1.424   8.809  19.855  0.00  0.00    +0.000 A 
ATOM      8  N   UNL     1       1.197  10.074  19.608  0.00  0.00    +0.000 NA
ATOM      9  C   UNL     1       0.462  10.519  20.717  0.00  0.00    +0.000 A 
ATOM     10  C   UNL     1      -0.041  11.792  21.041  0.00  0.00    +0.000 A 
ATOM     11  C   UNL     1      -0.780  11.952  22.229  0.00  0.00    +0.000 A 
ATOM     12  C   UNL     1      -1.017  10.875  23.087  0.00  0.00    +0.000 A 
ATOM     13  C   UNL     1      -0.517   9.605  22.800  0.00  0.00    +0.000 A 
ATOM     14  C   UNL     1       0.216   9.477  21.618  0.00  0.00    +0.000 A 
ENDROOT
BRANCH   2  15
ATOM     15  C   UNL     1       3.382   6.379  17.750  0.00  0.00    +0.000 A 
ATOM     16  N   UNL     1       2.737   5.192  17.670  0.00  0.00    +0.000 NA
ATOM     17  N   UNL     1       3.663   4.323  17.261  0.00  0.00    +0.000 N 
ATOM     18  C   UNL     1       4.910   4.850  17.130  0.00  0.00    +0.000 A 
ATOM     19  C   UNL     1       6.111   4.252  16.732  0.00  0.00    +0.000 A 
ATOM     20  C   UNL     1       7.246   5.059  16.716  0.00  0.00    +0.000 A 
ATOM     21  C   UNL     1       7.167   6.407  17.069  0.00  0.00    +0.000 A 
ATOM     22  C   UNL     1       5.943   6.992  17.440  0.00  0.00    +0.000 A 
ATOM     23  C   UNL     1       4.781   6.193  17.478  0.00  0.00    +0.000 A 
ATOM     24  H   UNL     1       3.376   3.369  17.076  0.00  0.00    +0.000 HD
ENDBRANCH   2  15
TORSDOF 1
ENDMDL
MODEL 5
REMARK VINA RESULT:      -7.5      2.310      3.442
REMARK  Name = 
REMARK  1 active torsions:
REMARK  status: ('A' for Active; 'I' for Inactive)
REMARK    1  A    between atoms: C_2  and  C_3
REMARK                            x       y       z     vdW  Elec       q    Type
REMARK                         _______ _______ _______ _____ _____    ______ ____
ROOT
ATOM      1  O   UNL     1       2.869   7.841  17.008  0.00  0.00    +0.000 OA
ATOM      2  C   UNL     1       2.782   7.404  18.158  0.00  0.00    +0.000 C 
ATOM      3  N   UNL     1       2.079   8.026  19.193  0.00  0.00    +0.000 N 
ATOM      4  C   UNL     1       1.798   7.457  20.537  0.00  0.00    +0.000 C 
ATOM      5  C   UNL     1       0.704   8.335  21.132  0.00  0.00    +0.000 C 
ATOM      6  N   UNL     1       0.760   9.476  20.258  0.00  0.00    +0.000 N 
ATOM      7  C   UNL     1       1.511   9.281  19.132  0.00  0.00    +0.000 A 
ATOM      8  N   UNL     1       1.464  10.338  18.362  0.00  0.00    +0.000 NA
ATOM      9  C   UNL     1       0.667  11.250  19.069  0.00  0.00    +0.000 A 
ATOM     10  C   UNL     1       0.284  12.569  18.769  0.00  0.00    +0.000 A 
ATOM     11  C   UNL     1      -0.559  13.256  19.664  0.00  0.00    +0.000 A 
ATOM     12  C   UNL     1      -1.016  12.653  20.838  0.00  0.00    +0.000 A 
ATOM     13  C   UNL     1      -0.641  11.352  21.170  0.00  0.00    +0.000 A 
ATOM     14  C   UNL     1       0.200  10.697  20.267  0.00  0.00    +0.000 A 
ENDROOT
BRANCH   2  15
ATOM     15  C   UNL     1       3.392   6.079  18.516  0.00  0.00    +0.000 A 
ATOM     16  N   UNL     1       4.677   5.980  18.925  0.00  0.00    +0.000 NA
ATOM     17  N   UNL     1       4.830   4.704  19.281  0.00  0.00    +0.000 N 
ATOM     18  C   UNL     1       3.735   3.925  19.066  0.00  0.00    +0.000 A 
ATOM     19  C   UNL     1       3.528   2.563  19.309  0.00  0.00    +0.000 A 
ATOM     20  C   UNL     1       2.286   2.038  18.958  0.00  0.00    +0.000 A 
ATOM     21  C   UNL     1       1.299   2.853  18.403  0.00  0.00    +0.000 A 
ATOM     22  C   UNL     1       1.521   4.226  18.193  0.00  0.00    +0.000 A 
ATOM     23  C   UNL     1       2.775   4.780  18.527  0.00  0.00    +0.000 A 
ATOM     24  H   UNL     1       5.717   4.420  19.680  0.00  0.00    +0.000 HD
ENDBRANCH   2  15
TORSDOF 1
ENDMDL
MODEL 6
REMARK VINA RESULT:      -7.2      2.587      7.878
REMARK  Name = 
REMARK  1 active torsions:
REMARK  status: ('A' for Active; 'I' for Inactive)
REMARK    1  A    between atoms: C_2  and  C_3
REMARK                            x       y       z     vdW  Elec       q    Type
REMARK                         _______ _______ _______ _____ _____    ______ ____
ROOT
ATOM      1  O   UNL     1       2.208  10.292  17.450  0.00  0.00    +0.000 OA
ATOM      2  C   UNL     1       1.518   9.844  18.368  0.00  0.00    +0.000 C 
ATOM      3  N   UNL     1       1.707   8.596  18.969  0.00  0.00    +0.000 N 
ATOM      4  C   UNL     1       1.022   8.089  20.186  0.00  0.00    +0.000 C 
ATOM      5  C   UNL     1       1.834   6.883  20.641  0.00  0.00    +0.000 C 
ATOM      6  N   UNL     1       2.625   6.625  19.467  0.00  0.00    +0.000 N 
ATOM      7  C   UNL     1       2.584   7.625  18.535  0.00  0.00    +0.000 A 
ATOM      8  N   UNL     1       3.372   7.345  17.528  0.00  0.00    +0.000 NA
ATOM      9  C   UNL     1       3.903   6.085  17.842  0.00  0.00    +0.000 A 
ATOM     10  C   UNL     1       4.785   5.252  17.131  0.00  0.00    +0.000 A 
ATOM     11  C   UNL     1       5.180   4.028  17.705  0.00  0.00    +0.000 A 
ATOM     12  C   UNL     1       4.712   3.630  18.959  0.00  0.00    +0.000 A 
ATOM     13  C   UNL     1       3.825   4.428  19.681  0.00  0.00    +0.000 A 
ATOM     14  C   UNL     1       3.446   5.634  19.085  0.00  0.00    +0.000 A 
ENDROOT
BRANCH   2  15
ATOM     15  C   UNL     1       0.426  10.678  18.975  0.00  0.00    +0.000 A 
ATOM     16  N   UNL     1       0.681  11.559  19.970  0.00  0.00    +0.000 NA
ATOM     17  N   UNL     1      -0.469  12.206  20.161  0.00  0.00    +0.000 N 
ATOM     18  C   UNL     1      -1.501  11.759  19.395  0.00  0.00    +0.000 A 
ATOM     19  C   UNL     1      -2.831  12.185  19.325  0.00  0.00    +0.000 A 
ATOM     20  C   UNL     1      -3.669  11.506  18.444  0.00  0.00    +0.000 A 
ATOM     21  C   UNL     1      -3.183  10.457  17.663  0.00  0.00    +0.000 A 
ATOM     22  C   UNL     1      -1.834  10.064  17.731  0.00  0.00    +0.000 A 
ATOM     23  C   UNL     1      -0.967  10.727  18.626  0.00  0.00    +0.000 A 
ATOM     24  H   UNL     1      -0.487  12.964  20.834  0.00  0.00    +0.000 HD
ENDBRANCH   2  15
TORSDOF 1
ENDMDL
MODEL 7
REMARK VINA RESULT:      -7.2      2.021      2.896
REMARK  Name = 
REMARK  1 active torsions:
REMARK  status: ('A' for Active; 'I' for Inactive)
REMARK    1  A    between atoms: C_2  and  C_3
REMARK                            x       y       z     vdW  Elec       q    Type
REMARK                         _______ _______ _______ _____ _____    ______ ____
ROOT
ATOM      1  O   UNL     1       1.768   6.832  21.102  0.00  0.00    +0.000 OA
ATOM      2  C   UNL     1       2.079   7.051  19.929  0.00  0.00    +0.000 C 
ATOM      3  N   UNL     1       1.803   8.237  19.241  0.00  0.00    +0.000 N 
ATOM      4  C   UNL     1       2.308   8.616  17.897  0.00  0.00    +0.000 C 
ATOM      5  C   UNL     1       2.052  10.112  17.770  0.00  0.00    +0.000 C 
ATOM      6  N   UNL     1       1.126  10.326  18.850  0.00  0.00    +0.000 N 
ATOM      7  C   UNL     1       1.020   9.269  19.712  0.00  0.00    +0.000 A 
ATOM      8  N   UNL     1       0.208   9.561  20.696  0.00  0.00    +0.000 NA
ATOM      9  C   UNL     1      -0.238  10.859  20.406  0.00  0.00    +0.000 A 
ATOM     10  C   UNL     1      -1.148  11.694  21.078  0.00  0.00    +0.000 A 
ATOM     11  C   UNL     1      -1.395  12.984  20.570  0.00  0.00    +0.000 A 
ATOM     12  C   UNL     1      -0.757  13.444  19.416  0.00  0.00    +0.000 A 
ATOM     13  C   UNL     1       0.139  12.633  18.720  0.00  0.00    +0.000 A 
ATOM     14  C   UNL     1       0.361  11.357  19.244  0.00  0.00    +0.000 A 
ENDROOT
BRANCH   2  15
ATOM     15  C   UNL     1       2.875   6.041  19.152  0.00  0.00    +0.000 A 
ATOM     16  N   UNL     1       4.133   6.305  18.731  0.00  0.00    +0.000 NA
ATOM     17  N   UNL     1       4.570   5.158  18.209  0.00  0.00    +0.000 N 
ATOM     18  C   UNL     1       3.647   4.159  18.193  0.00  0.00    +0.000 A 
ATOM     19  C   UNL     1       3.742   2.843  17.729  0.00  0.00    +0.000 A 
ATOM     20  C   UNL     1       2.600   2.051  17.832  0.00  0.00    +0.000 A 
ATOM     21  C   UNL     1       1.427   2.560  18.390  0.00  0.00    +0.000 A 
ATOM     22  C   UNL     1       1.364   3.879  18.874  0.00  0.00    +0.000 A 
ATOM     23  C   UNL     1       2.502   4.706  18.770  0.00  0.00    +0.000 A 
ATOM     24  H   UNL     1       5.528   5.115  17.881  0.00  0.00    +0.000 HD
ENDBRANCH   2  15
TORSDOF 1
ENDMDL
MODEL 8
REMARK VINA RESULT:      -7.1      3.324      5.673
REMARK  Name = 
REMARK  1 active torsions:
REMARK  status: ('A' for Active; 'I' for Inactive)
REMARK    1  A    between atoms: C_2  and  C_3
REMARK                            x       y       z     vdW  Elec       q    Type
REMARK                         _______ _______ _______ _____ _____    ______ ____
ROOT
ATOM      1  O   UNL     1       5.014   7.031  15.176  0.00  0.00    +0.000 OA
ATOM      2  C   UNL     1       5.354   5.853  15.300  0.00  0.00    +0.000 C 
ATOM      3  N   UNL     1       4.874   4.986  16.286  0.00  0.00    +0.000 N 
ATOM      4  C   UNL     1       5.114   3.522  16.369  0.00  0.00    +0.000 C 
ATOM      5  C   UNL     1       4.089   2.994  17.363  0.00  0.00    +0.000 C 
ATOM      6  N   UNL     1       3.658   4.215  17.990  0.00  0.00    +0.000 N 
ATOM      7  C   UNL     1       4.072   5.349  17.347  0.00  0.00    +0.000 A 
ATOM      8  N   UNL     1       3.593   6.413  17.941  0.00  0.00    +0.000 NA
ATOM      9  C   UNL     1       2.871   5.907  19.031  0.00  0.00    +0.000 A 
ATOM     10  C   UNL     1       2.161   6.564  20.052  0.00  0.00    +0.000 A 
ATOM     11  C   UNL     1       1.494   5.793  21.025  0.00  0.00    +0.000 A 
ATOM     12  C   UNL     1       1.528   4.397  20.993  0.00  0.00    +0.000 A 
ATOM     13  C   UNL     1       2.237   3.719  20.002  0.00  0.00    +0.000 A 
ATOM     14  C   UNL     1       2.892   4.509  19.054  0.00  0.00    +0.000 A 
ENDROOT
BRANCH   2  15
ATOM     15  C   UNL     1       6.295   5.225  14.311  0.00  0.00    +0.000 A 
ATOM     16  N   UNL     1       7.621   5.491  14.331  0.00  0.00    +0.000 NA
ATOM     17  N   UNL     1       8.151   4.671  13.421  0.00  0.00    +0.000 N 
ATOM     18  C   UNL     1       7.242   3.919  12.744  0.00  0.00    +0.000 A 
ATOM     19  C   UNL     1       7.422   2.968  11.734  0.00  0.00    +0.000 A 
ATOM     20  C   UNL     1       6.276   2.371  11.213  0.00  0.00    +0.000 A 
ATOM     21  C   UNL     1       5.013   2.709  11.699  0.00  0.00    +0.000 A 
ATOM     22  C   UNL     1       4.858   3.649  12.734  0.00  0.00    +0.000 A 
ATOM     23  C   UNL     1       6.002   4.278  13.269  0.00  0.00    +0.000 A 
ATOM     24  H   UNL     1       9.158   4.662  13.313  0.00  0.00    +0.000 HD
ENDBRANCH   2  15
TORSDOF 1
ENDMDL
MODEL 9
REMARK VINA RESULT:      -7.0      2.161      7.341
REMARK  Name = 
REMARK  1 active torsions:
REMARK  status: ('A' for Active; 'I' for Inactive)
REMARK    1  A    between atoms: C_2  and  C_3
REMARK                            x       y       z     vdW  Elec       q    Type
REMARK                         _______ _______ _______ _____ _____    ______ ____
ROOT
ATOM      1  O   UNL     1       0.189   7.964  21.849  0.00  0.00    +0.000 OA
ATOM      2  C   UNL     1       0.801   8.521  20.935  0.00  0.00    +0.000 C 
ATOM      3  N   UNL     1       1.613   7.864  20.006  0.00  0.00    +0.000 N 
ATOM      4  C   UNL     1       2.225   8.460  18.790  0.00  0.00    +0.000 C 
ATOM      5  C   UNL     1       2.673   7.280  17.937  0.00  0.00    +0.000 C 
ATOM      6  N   UNL     1       2.615   6.208  18.896  0.00  0.00    +0.000 N 
ATOM      7  C   UNL     1       1.971   6.533  20.058  0.00  0.00    +0.000 A 
ATOM      8  N   UNL     1       1.907   5.494  20.851  0.00  0.00    +0.000 NA
ATOM      9  C   UNL     1       2.579   4.481  20.153  0.00  0.00    +0.000 A 
ATOM     10  C   UNL     1       2.865   3.150  20.506  0.00  0.00    +0.000 A 
ATOM     11  C   UNL     1       3.545   2.330  19.585  0.00  0.00    +0.000 A 
ATOM     12  C   UNL     1       3.940   2.815  18.335  0.00  0.00    +0.000 A 
ATOM     13  C   UNL     1       3.684   4.134  17.964  0.00  0.00    +0.000 A 
ATOM     14  C   UNL     1       3.012   4.926  18.900  0.00  0.00    +0.000 A 
ENDROOT
BRANCH   2  15
ATOM     15  C   UNL     1       0.649   9.998  20.708  0.00  0.00    +0.000 A 
ATOM     16  N   UNL     1       1.334  10.900  21.446  0.00  0.00    +0.000 NA
ATOM     17  N   UNL     1       1.062  12.081  20.888  0.00  0.00    +0.000 N 
ATOM     18  C   UNL     1       0.176  12.026  19.857  0.00  0.00    +0.000 A 
ATOM     19  C   UNL     1      -0.339  13.043  19.047  0.00  0.00    +0.000 A 
ATOM     20  C   UNL     1      -1.261  12.671  18.071  0.00  0.00    +0.000 A 
ATOM     21  C   UNL     1      -1.631  11.335  17.913  0.00  0.00    +0.000 A 
ATOM     22  C   UNL     1      -1.078  10.325  18.722  0.00  0.00    +0.000 A 
ATOM     23  C   UNL     1      -0.153  10.678  19.727  0.00  0.00    +0.000 A 
ATOM     24  H   UNL     1       1.528  12.903  21.255  0.00  0.00    +0.000 HD
ENDBRANCH   2  15
TORSDOF 1
ENDMDL
