MODEL 1
REMARK VINA RESULT:      -7.8      0.000      0.000
REMARK  Name = 
REMARK  7 active torsions:
REMARK  status: ('A' for Active; 'I' for Inactive)
REMARK    1  A    between atoms: C_1  and  N_2
REMARK    2  A    between atoms: C_6  and  C_7
REMARK    3  A    between atoms: C_7  and  C_8
REMARK    4  A    between atoms: C_8  and  C_9
REMARK    5  A    between atoms: C_13  and  N_14
REMARK    6  A    between atoms: C_15  and  C_17
REMARK    7  A    between atoms: C_18  and  O_19
REMARK                            x       y       z     vdW  Elec       q    Type
REMARK                         _______ _______ _______ _____ _____    ______ ____
ROOT
ATOM      1  C   UNL     1       4.186   5.635  18.026  0.00  0.00    +0.000 A 
ATOM      2  C   UNL     1       5.252   5.590  18.948  0.00  0.00    +0.000 A 
ATOM      3  C   UNL     1       6.500   5.076  18.610  0.00  0.00    +0.000 A 
ATOM      4  C   UNL     1       6.729   4.590  17.327  0.00  0.00    +0.000 A 
ATOM      5  C   UNL     1       5.719   4.617  16.368  0.00  0.00    +0.000 A 
ATOM      6  C   UNL     1       4.466   5.150  16.725  0.00  0.00    +0.000 A 
ENDROOT
BRANCH   1   7
ATOM      7  C   UNL     1       2.732   6.181  18.472  0.00  0.00    +0.000 C 
ATOM      8  C   UNL     1       2.601   6.939  19.822  0.00  0.00    +0.000 C 
ATOM      9  O   UNL     1       2.166   8.153  19.173  0.00  0.00    +0.000 OA
ATOM     10  C   UNL     1       2.338   7.564  17.871  0.00  0.00    +0.000 C 
BRANCH   7  11
ATOM     11  C   UNL     1       1.638   5.126  18.206  0.00  0.00    +0.000 C 
BRANCH  11  17
ATOM     12  C   UNL     1       2.802   2.195  18.029  0.00  0.00    +0.000 C 
ATOM     13  N   UNL     1       2.060   2.774  19.117  0.00  0.00    +0.000 N 
ATOM     14  C   UNL     1       1.685   2.114  20.248  0.00  0.00    +0.000 A 
ATOM     15  N   UNL     1       1.028   2.931  21.036  0.00  0.00    +0.000 NA
ATOM     16  N   UNL     1       0.955   4.145  20.402  0.00  0.00    +0.000 NA
ATOM     17  C   UNL     1       1.570   4.052  19.239  0.00  0.00    +0.000 A 
ENDBRANCH  11  17
ENDBRANCH   7  11
ENDBRANCH   1   7
BRANCH   5  18
ATOM     18  N   UNL     1       5.883   4.112  15.055  0.00  0.00    +0.000 N 
ATOM     19  C   UNL     1       6.732   4.603  14.085  0.00  0.00    +0.000 C 
ATOM     20  O   UNL     1       7.472   5.580  14.164  0.00  0.00    +0.000 OA
ATOM     21  H   UNL     1       5.329   3.297  14.817  0.00  0.00    +0.000 HD
BRANCH  19  22
ATOM     22  C   UNL     1       6.706   3.841  12.854  0.00  0.00    +0.000 C 
ATOM     23  C   UNL     1       6.043   2.796  12.406  0.00  0.00    +0.000 C 
ATOM     24  C   UNL     1       7.216   3.704  11.609  0.00  0.00    +0.000 C 
BRANCH  23  25
ATOM     25  O   UNL     1       5.735   1.887  11.477  0.00  0.00    +0.000 OA
ATOM     26  H   UNL     1       6.317   1.123  11.646  0.00  0.00    +0.000 HD
ENDBRANCH  23  25
ENDBRANCH  19  22
ENDBRANCH   5  18
TORSDOF 6
ENDMDL
MODEL 2
REMARK VINA RESULT:      -7.7      3.365      5.266
REMARK  Name = 
REMARK  7 active torsions:
REMARK  status: ('A' for Active; 'I' for Inactive)
REMARK    1  A    between atoms: C_1  and  N_2
REMARK    2  A    between atoms: C_6  and  C_7
REMARK    3  A    between atoms: C_7  and  C_8
REMARK    4  A    between atoms: C_8  and  C_9
REMARK    5  A    between atoms: C_13  and  N_14
REMARK    6  A    between atoms: C_15  and  C_17
REMARK    7  A    between atoms: C_18  and  O_19
REMARK                            x       y       z     vdW  Elec       q    Type
REMARK                         _______ _______ _______ _____ _____    ______ ____
ROOT
ATOM      1  C   UNL     1       4.963   4.218  17.021  0.00  0.00    +0.000 A 
ATOM      2  C   UNL     1       5.374   3.623  15.810  0.00  0.00    +0.000 A 
ATOM      3  C   UNL     1       6.322   4.215  14.981  0.00  0.00    +0.000 A 
ATOM      4  C   UNL     1       6.901   5.429  15.340  0.00  0.00    +0.000 A 
ATOM      5  C   UNL     1       6.544   6.060  16.529  0.00  0.00    +0.000 A 
ATOM      6  C   UNL     1       5.591   5.441  17.360  0.00  0.00    +0.000 A 
ENDROOT
BRANCH   1   7
ATOM      7  C   UNL     1       3.813   3.533  17.927  0.00  0.00    +0.000 C 
ATOM      8  C   UNL     1       2.341   3.590  17.433  0.00  0.00    +0.000 C 
ATOM      9  O   UNL     1       2.249   2.152  17.340  0.00  0.00    +0.000 OA
ATOM     10  C   UNL     1       3.632   2.001  17.709  0.00  0.00    +0.000 C 
BRANCH   7  11
ATOM     11  C   UNL     1       4.014   3.862  19.421  0.00  0.00    +0.000 C 
BRANCH  11  17
ATOM     12  C   UNL     1       1.498   3.393  21.272  0.00  0.00    +0.000 C 
ATOM     13  N   UNL     1       1.957   4.642  20.726  0.00  0.00    +0.000 N 
ATOM     14  C   UNL     1       1.331   5.842  20.880  0.00  0.00    +0.000 A 
ATOM     15  N   UNL     1       2.013   6.776  20.262  0.00  0.00    +0.000 NA
ATOM     16  N   UNL     1       3.098   6.175  19.677  0.00  0.00    +0.000 NA
ATOM     17  C   UNL     1       3.063   4.885  19.948  0.00  0.00    +0.000 A 
ENDBRANCH  11  17
ENDBRANCH   7  11
ENDBRANCH   1   7
BRANCH   5  18
ATOM     18  N   UNL     1       7.076   7.308  16.935  0.00  0.00    +0.000 N 
ATOM     19  C   UNL     1       7.903   7.537  18.016  0.00  0.00    +0.000 C 
ATOM     20  O   UNL     1       8.300   6.718  18.840  0.00  0.00    +0.000 OA
ATOM     21  H   UNL     1       6.835   8.106  16.358  0.00  0.00    +0.000 HD
BRANCH  19  22
ATOM     22  C   UNL     1       8.318   8.918  18.143  0.00  0.00    +0.000 C 
ATOM     23  C   UNL     1       8.981   9.626  19.033  0.00  0.00    +0.000 C 
ATOM     24  C   UNL     1       8.316  10.146  17.575  0.00  0.00    +0.000 C 
BRANCH  23  25
ATOM     25  O   UNL     1       9.521  10.756  19.496  0.00  0.00    +0.000 OA
ATOM     26  H   UNL     1       9.479  10.694  20.469  0.00  0.00    +0.000 HD
ENDBRANCH  23  25
ENDBRANCH  19  22
ENDBRANCH   5  18
TORSDOF 6
ENDMDL
MODEL 3
REMARK VINA RESULT:      -7.7      2.243      3.472
REMARK  Name = 
REMARK  7 active torsions:
REMARK  status: ('A' for Active; 'I' for Inactive)
REMARK    1  A    between atoms: C_1  and  N_2
REMARK    2  A    between atoms: C_6  and  C_7
REMARK    3  A    between atoms: C_7  and  C_8
REMARK    4  A    between atoms: C_8  and  C_9
REMARK    5  A    between atoms: C_13  and  N_14
REMARK    6  A    between atoms: C_15  and  C_17
REMARK    7  A    between atoms: C_18  and  O_19
REMARK                            x       y       z     vdW  Elec       q    Type
REMARK                         _______ _______ _______ _____ _____    ______ ____
ROOT
ATOM      1  C   UNL     1       4.254   4.942  18.395  0.00  0.00    +0.000 A 
ATOM      2  C   UNL     1       5.423   5.202  19.140  0.00  0.00    +0.000 A 
ATOM      3  C   UNL     1       6.693   5.090  18.583  0.00  0.00    +0.000 A 
ATOM      4  C   UNL     1       6.840   4.715  17.251  0.00  0.00    +0.000 A 
ATOM      5  C   UNL     1       5.723   4.454  16.462  0.00  0.00    +0.000 A 
ATOM      6  C   UNL     1       4.445   4.584  17.038  0.00  0.00    +0.000 A 
ENDROOT
BRANCH   1   7
ATOM      7  C   UNL     1       2.798   5.021  19.092  0.00  0.00    +0.000 C 
ATOM      8  C   UNL     1       1.546   4.643  18.251  0.00  0.00    +0.000 C 
ATOM      9  O   UNL     1       1.213   3.542  19.123  0.00  0.00    +0.000 OA
ATOM     10  C   UNL     1       2.394   3.760  19.915  0.00  0.00    +0.000 C 
BRANCH   7  11
ATOM     11  C   UNL     1       2.654   6.305  19.935  0.00  0.00    +0.000 C 
BRANCH  11  17
ATOM     12  C   UNL     1       0.924   8.805  20.792  0.00  0.00    +0.000 C 
ATOM     13  N   UNL     1       1.565   8.582  19.524  0.00  0.00    +0.000 N 
ATOM     14  C   UNL     1       1.479   9.411  18.446  0.00  0.00    +0.000 A 
ATOM     15  N   UNL     1       2.184   8.919  17.456  0.00  0.00    +0.000 NA
ATOM     16  N   UNL     1       2.729   7.736  17.886  0.00  0.00    +0.000 NA
ATOM     17  C   UNL     1       2.350   7.525  19.131  0.00  0.00    +0.000 A 
ENDBRANCH  11  17
ENDBRANCH   7  11
ENDBRANCH   1   7
BRANCH   5  18
ATOM     18  N   UNL     1       5.808   4.043  15.109  0.00  0.00    +0.000 N 
ATOM     19  C   UNL     1       6.689   4.517  14.159  0.00  0.00    +0.000 C 
ATOM     20  O   UNL     1       7.532   5.399  14.296  0.00  0.00    +0.000 OA
ATOM     21  H   UNL     1       5.164   3.314  14.822  0.00  0.00    +0.000 HD
BRANCH  19  22
ATOM     22  C   UNL     1       6.558   3.863  12.873  0.00  0.00    +0.000 C 
ATOM     23  C   UNL     1       5.744   2.974  12.345  0.00  0.00    +0.000 C 
ATOM     24  C   UNL     1       7.058   3.741  11.622  0.00  0.00    +0.000 C 
BRANCH  23  25
ATOM     25  O   UNL     1       5.308   2.200  11.349  0.00  0.00    +0.000 OA
ATOM     26  H   UNL     1       5.562   1.288  11.587  0.00  0.00    +0.000 HD
ENDBRANCH  23  25
ENDBRANCH  19  22
ENDBRANCH   5  18
TORSDOF 6
ENDMDL
MODEL 4
REMARK VINA RESULT:      -7.6      0.699      1.301
REMARK  Name = 
REMARK  7 active torsions:
REMARK  status: ('A' for Active; 'I' for Inactive)
REMARK    1  A    between atoms: C_1  and  N_2
REMARK    2  A    between atoms: C_6  and  C_7
REMARK    3  A    between atoms: C_7  and  C_8
REMARK    4  A    between atoms: C_8  and  C_9
REMARK    5  A    between atoms: C_13  and  N_14
REMARK    6  A    between atoms: C_15  and  C_17
REMARK    7  A    between atoms: C_18  and  O_19
REMARK                            x       y       z     vdW  Elec       q    Type
REMARK                         _______ _______ _______ _____ _____    ______ ____
ROOT
ATOM      1  C   UNL     1       4.032   5.676  18.059  0.00  0.00    +0.000 A 
ATOM      2  C   UNL     1       5.032   5.524  19.042  0.00  0.00    +0.000 A 
ATOM      3  C   UNL     1       6.266   4.949  18.756  0.00  0.00    +0.000 A 
ATOM      4  C   UNL     1       6.548   4.508  17.467  0.00  0.00    +0.000 A 
ATOM      5  C   UNL     1       5.605   4.640  16.451  0.00  0.00    +0.000 A 
ATOM      6  C   UNL     1       4.366   5.234  16.756  0.00  0.00    +0.000 A 
ENDROOT
BRANCH   1   7
ATOM      7  C   UNL     1       2.587   6.291  18.441  0.00  0.00    +0.000 C 
ATOM      8  C   UNL     1       2.387   6.906  19.854  0.00  0.00    +0.000 C 
ATOM      9  O   UNL     1       2.106   8.216  19.315  0.00  0.00    +0.000 OA
ATOM     10  C   UNL     1       2.354   7.759  17.973  0.00  0.00    +0.000 C 
BRANCH   7  11
ATOM     11  C   UNL     1       1.447   5.367  17.965  0.00  0.00    +0.000 C 
BRANCH  11  17
ATOM     12  C   UNL     1       1.163   3.789  20.687  0.00  0.00    +0.000 C 
ATOM     13  N   UNL     1       1.598   3.268  19.418  0.00  0.00    +0.000 N 
ATOM     14  C   UNL     1       2.019   1.992  19.199  0.00  0.00    +0.000 A 
ATOM     15  N   UNL     1       2.339   1.846  17.935  0.00  0.00    +0.000 NA
ATOM     16  N   UNL     1       2.140   3.053  17.318  0.00  0.00    +0.000 NA
ATOM     17  C   UNL     1       1.700   3.917  18.212  0.00  0.00    +0.000 A 
ENDBRANCH  11  17
ENDBRANCH   7  11
ENDBRANCH   1   7
BRANCH   5  18
ATOM     18  N   UNL     1       5.822   4.186  15.127  0.00  0.00    +0.000 N 
ATOM     19  C   UNL     1       6.754   4.673  14.233  0.00  0.00    +0.000 C 
ATOM     20  O   UNL     1       7.537   5.603  14.402  0.00  0.00    +0.000 OA
ATOM     21  H   UNL     1       5.242   3.414  14.819  0.00  0.00    +0.000 HD
BRANCH  19  22
ATOM     22  C   UNL     1       6.763   3.968  12.968  0.00  0.00    +0.000 C 
ATOM     23  C   UNL     1       6.180   2.893  12.483  0.00  0.00    +0.000 C 
ATOM     24  C   UNL     1       7.256   3.932  11.709  0.00  0.00    +0.000 C 
BRANCH  23  25
ATOM     25  O   UNL     1       5.927   2.006  11.518  0.00  0.00    +0.000 OA
ATOM     26  H   UNL     1       6.797   1.727  11.175  0.00  0.00    +0.000 HD
ENDBRANCH  23  25
ENDBRANCH  19  22
ENDBRANCH   5  18
TORSDOF 6
ENDMDL
MODEL 5
REMARK VINA RESULT:      -7.5      3.280      5.310
REMARK  Name = 
REMARK  7 active torsions:
REMARK  status: ('A' for Active; 'I' for Inactive)
REMARK    1  A    between atoms: C_1  and  N_2
REMARK    2  A    between atoms: C_6  and  C_7
REMARK    3  A    between atoms: C_7  and  C_8
REMARK    4  A    between atoms: C_8  and  C_9
REMARK    5  A    between atoms: C_13  and  N_14
REMARK    6  A    between atoms: C_15  and  C_17
REMARK    7  A    between atoms: C_18  and  O_19
REMARK                            x       y       z     vdW  Elec       q    Type
REMARK                         _______ _______ _______ _____ _____    ______ ____
ROOT
ATOM      1  C   UNL     1       4.942   4.192  16.999  0.00  0.00    +0.000 A 
ATOM      2  C   UNL     1       5.376   3.578  15.806  0.00  0.00    +0.000 A 
ATOM      3  C   UNL     1       6.359   4.144  15.000  0.00  0.00    +0.000 A 
ATOM      4  C   UNL     1       6.950   5.350  15.363  0.00  0.00    +0.000 A 
ATOM      5  C   UNL     1       6.571   5.999  16.535  0.00  0.00    +0.000 A 
ATOM      6  C   UNL     1       5.583   5.407  17.344  0.00  0.00    +0.000 A 
ENDROOT
BRANCH   1   7
ATOM      7  C   UNL     1       3.754   3.538  17.878  0.00  0.00    +0.000 C 
ATOM      8  C   UNL     1       3.590   1.993  17.879  0.00  0.00    +0.000 C 
ATOM      9  O   UNL     1       3.843   1.902  19.298  0.00  0.00    +0.000 OA
ATOM     10  C   UNL     1       4.097   3.316  19.382  0.00  0.00    +0.000 C 
BRANCH   7  11
ATOM     11  C   UNL     1       2.442   4.334  17.718  0.00  0.00    +0.000 C 
BRANCH  11  17
ATOM     12  C   UNL     1       2.965   7.442  17.934  0.00  0.00    +0.000 C 
ATOM     13  N   UNL     1       2.407   6.579  18.941  0.00  0.00    +0.000 N 
ATOM     14  C   UNL     1       2.059   6.968  20.199  0.00  0.00    +0.000 A 
ATOM     15  N   UNL     1       1.578   5.942  20.859  0.00  0.00    +0.000 NA
ATOM     16  N   UNL     1       1.628   4.855  20.024  0.00  0.00    +0.000 NA
ATOM     17  C   UNL     1       2.136   5.235  18.868  0.00  0.00    +0.000 A 
ENDBRANCH  11  17
ENDBRANCH   7  11
ENDBRANCH   1   7
BRANCH   5  18
ATOM     18  N   UNL     1       7.115   7.241  16.944  0.00  0.00    +0.000 N 
ATOM     19  C   UNL     1       7.892   7.471  18.061  0.00  0.00    +0.000 C 
ATOM     20  O   UNL     1       8.225   6.659  18.919  0.00  0.00    +0.000 OA
ATOM     21  H   UNL     1       6.924   8.033  16.341  0.00  0.00    +0.000 HD
BRANCH  19  22
ATOM     22  C   UNL     1       8.336   8.844  18.183  0.00  0.00    +0.000 C 
ATOM     23  C   UNL     1       9.050   9.531  19.050  0.00  0.00    +0.000 C 
ATOM     24  C   UNL     1       8.332  10.077  17.628  0.00  0.00    +0.000 C 
BRANCH  23  25
ATOM     25  O   UNL     1       9.629  10.646  19.500  0.00  0.00    +0.000 OA
ATOM     26  H   UNL     1      10.060  11.056  18.726  0.00  0.00    +0.000 HD
ENDBRANCH  23  25
ENDBRANCH  19  22
ENDBRANCH   5  18
TORSDOF 6
ENDMDL
MODEL 6
REMARK VINA RESULT:      -7.5      3.656      8.054
REMARK  Name = 
REMARK  7 active torsions:
REMARK  status: ('A' for Active; 'I' for Inactive)
REMARK    1  A    between atoms: C_1  and  N_2
REMARK    2  A    between atoms: C_6  and  C_7
REMARK    3  A    between atoms: C_7  and  C_8
REMARK    4  A    between atoms: C_8  and  C_9
REMARK    5  A    between atoms: C_13  and  N_14
REMARK    6  A    between atoms: C_15  and  C_17
REMARK    7  A    between atoms: C_18  and  O_19
REMARK                            x       y       z     vdW  Elec       q    Type
REMARK                         _______ _______ _______ _____ _____    ______ ____
ROOT
ATOM      1  C   UNL     1       2.898   5.622  18.798  0.00  0.00    +0.000 A 
ATOM      2  C   UNL     1       3.219   6.317  17.614  0.00  0.00    +0.000 A 
ATOM      3  C   UNL     1       2.957   7.675  17.462  0.00  0.00    +0.000 A 
ATOM      4  C   UNL     1       2.367   8.392  18.498  0.00  0.00    +0.000 A 
ATOM      5  C   UNL     1       2.036   7.763  19.696  0.00  0.00    +0.000 A 
ATOM      6  C   UNL     1       2.318   6.391  19.837  0.00  0.00    +0.000 A 
ENDROOT
BRANCH   1   7
ATOM      7  C   UNL     1       3.158   4.031  18.916  0.00  0.00    +0.000 C 
ATOM      8  C   UNL     1       2.947   3.340  20.292  0.00  0.00    +0.000 C 
ATOM      9  O   UNL     1       1.892   2.497  19.780  0.00  0.00    +0.000 OA
ATOM     10  C   UNL     1       1.955   3.136  18.492  0.00  0.00    +0.000 C 
BRANCH   7  11
ATOM     11  C   UNL     1       4.446   3.622  18.172  0.00  0.00    +0.000 C 
BRANCH  11  17
ATOM     12  C   UNL     1       6.793   4.632  16.314  0.00  0.00    +0.000 C 
ATOM     13  N   UNL     1       6.670   4.808  17.737  0.00  0.00    +0.000 N 
ATOM     14  C   UNL     1       7.598   5.406  18.535  0.00  0.00    +0.000 A 
ATOM     15  N   UNL     1       7.174   5.407  19.776  0.00  0.00    +0.000 NA
ATOM     16  N   UNL     1       5.953   4.782  19.795  0.00  0.00    +0.000 NA
ATOM     17  C   UNL     1       5.650   4.412  18.567  0.00  0.00    +0.000 A 
ENDBRANCH  11  17
ENDBRANCH   7  11
ENDBRANCH   1   7
BRANCH   5  18
ATOM     18  N   UNL     1       1.410   8.431  20.776  0.00  0.00    +0.000 N 
ATOM     19  C   UNL     1       0.363   9.326  20.693  0.00  0.00    +0.000 C 
ATOM     20  O   UNL     1      -0.193   9.734  19.677  0.00  0.00    +0.000 OA
ATOM     21  H   UNL     1       1.760   8.211  21.701  0.00  0.00    +0.000 HD
BRANCH  19  22
ATOM     22  C   UNL     1      -0.090   9.806  21.982  0.00  0.00    +0.000 C 
ATOM     23  C   UNL     1      -0.627  10.917  22.439  0.00  0.00    +0.000 C 
ATOM     24  C   UNL     1      -0.243   9.519  23.295  0.00  0.00    +0.000 C 
BRANCH  23  25
ATOM     25  O   UNL     1      -1.134  11.688  23.405  0.00  0.00    +0.000 OA
ATOM     26  H   UNL     1      -2.104  11.622  23.318  0.00  0.00    +0.000 HD
ENDBRANCH  23  25
ENDBRANCH  19  22
ENDBRANCH   5  18
TORSDOF 6
ENDMDL
MODEL 7
REMARK VINA RESULT:      -7.4      0.970      1.141
REMARK  Name = 
REMARK  7 active torsions:
REMARK  status: ('A' for Active; 'I' for Inactive)
REMARK    1  A    between atoms: C_1  and  N_2
REMARK    2  A    between atoms: C_6  and  C_7
REMARK    3  A    between atoms: C_7  and  C_8
REMARK    4  A    between atoms: C_8  and  C_9
REMARK    5  A    between atoms: C_13  and  N_14
REMARK    6  A    between atoms: C_15  and  C_17
REMARK    7  A    between atoms: C_18  and  O_19
REMARK                            x       y       z     vdW  Elec       q    Type
REMARK                         _______ _______ _______ _____ _____    ______ ____
ROOT
ATOM      1  C   UNL     1       4.852   5.555  18.050  0.00  0.00    +0.000 A 
ATOM      2  C   UNL     1       6.060   5.593  18.778  0.00  0.00    +0.000 A 
ATOM      3  C   UNL     1       7.252   5.101  18.257  0.00  0.00    +0.000 A 
ATOM      4  C   UNL     1       7.281   4.554  16.978  0.00  0.00    +0.000 A 
ATOM      5  C   UNL     1       6.123   4.497  16.206  0.00  0.00    +0.000 A 
ATOM      6  C   UNL     1       4.928   5.010  16.745  0.00  0.00    +0.000 A 
ENDROOT
BRANCH   1   7
ATOM      7  C   UNL     1       3.473   6.078  18.711  0.00  0.00    +0.000 C 
ATOM      8  C   UNL     1       3.041   7.551  18.468  0.00  0.00    +0.000 C 
ATOM      9  O   UNL     1       1.833   7.152  17.785  0.00  0.00    +0.000 OA
ATOM     10  C   UNL     1       2.189   5.761  17.887  0.00  0.00    +0.000 C 
BRANCH   7  11
ATOM     11  C   UNL     1       3.335   5.589  20.167  0.00  0.00    +0.000 C 
BRANCH  11  17
ATOM     12  C   UNL     1       4.193   2.565  19.852  0.00  0.00    +0.000 C 
ATOM     13  N   UNL     1       2.878   3.073  20.143  0.00  0.00    +0.000 N 
ATOM     14  C   UNL     1       1.757   2.312  20.278  0.00  0.00    +0.000 A 
ATOM     15  N   UNL     1       0.731   3.084  20.546  0.00  0.00    +0.000 NA
ATOM     16  N   UNL     1       1.185   4.378  20.571  0.00  0.00    +0.000 NA
ATOM     17  C   UNL     1       2.480   4.376  20.319  0.00  0.00    +0.000 A 
ENDBRANCH  11  17
ENDBRANCH   7  11
ENDBRANCH   1   7
BRANCH   5  18
ATOM     18  N   UNL     1       6.083   3.928  14.909  0.00  0.00    +0.000 N 
ATOM     19  C   UNL     1       6.726   4.399  13.784  0.00  0.00    +0.000 C 
ATOM     20  O   UNL     1       7.418   5.409  13.686  0.00  0.00    +0.000 OA
ATOM     21  H   UNL     1       5.537   3.079  14.811  0.00  0.00    +0.000 HD
BRANCH  19  22
ATOM     22  C   UNL     1       6.526   3.569  12.614  0.00  0.00    +0.000 C 
ATOM     23  C   UNL     1       5.505   2.950  12.060  0.00  0.00    +0.000 C 
ATOM     24  C   UNL     1       7.105   2.993  11.536  0.00  0.00    +0.000 C 
BRANCH  23  25
ATOM     25  O   UNL     1       4.939   2.189  11.120  0.00  0.00    +0.000 OA
ATOM     26  H   UNL     1       5.327   1.300  11.225  0.00  0.00    +0.000 HD
ENDBRANCH  23  25
ENDBRANCH  19  22
ENDBRANCH   5  18
TORSDOF 6
ENDMDL
MODEL 8
REMARK VINA RESULT:      -7.4      1.099      1.226
REMARK  Name = 
REMARK  7 active torsions:
REMARK  status: ('A' for Active; 'I' for Inactive)
REMARK    1  A    between atoms: C_1  and  N_2
REMARK    2  A    between atoms: C_6  and  C_7
REMARK    3  A    between atoms: C_7  and  C_8
REMARK    4  A    between atoms: C_8  and  C_9
REMARK    5  A    between atoms: C_13  and  N_14
REMARK    6  A    between atoms: C_15  and  C_17
REMARK    7  A    between atoms: C_18  and  O_19
REMARK                            x       y       z     vdW  Elec       q    Type
REMARK                         _______ _______ _______ _____ _____    ______ ____
ROOT
ATOM      1  C   UNL     1       4.550   5.257  17.612  0.00  0.00    +0.000 A 
ATOM      2  C   UNL     1       5.805   5.627  18.138  0.00  0.00    +0.000 A 
ATOM      3  C   UNL     1       6.996   5.342  17.476  0.00  0.00    +0.000 A 
ATOM      4  C   UNL     1       6.973   4.676  16.254  0.00  0.00    +0.000 A 
ATOM      5  C   UNL     1       5.763   4.294  15.679  0.00  0.00    +0.000 A 
ATOM      6  C   UNL     1       4.568   4.601  16.357  0.00  0.00    +0.000 A 
ENDROOT
BRANCH   1   7
ATOM      7  C   UNL     1       3.191   5.549  18.437  0.00  0.00    +0.000 C 
ATOM      8  C   UNL     1       3.293   6.270  19.810  0.00  0.00    +0.000 C 
ATOM      9  O   UNL     1       2.514   7.396  19.350  0.00  0.00    +0.000 OA
ATOM     10  C   UNL     1       2.437   6.848  18.021  0.00  0.00    +0.000 C 
BRANCH   7  11
ATOM     11  C   UNL     1       2.252   4.326  18.410  0.00  0.00    +0.000 C 
BRANCH  11  17
ATOM     12  C   UNL     1       4.296   2.440  19.908  0.00  0.00    +0.000 C 
ATOM     13  N   UNL     1       2.980   2.822  20.346  0.00  0.00    +0.000 N 
ATOM     14  C   UNL     1       2.371   2.374  21.479  0.00  0.00    +0.000 A 
ATOM     15  N   UNL     1       1.184   2.920  21.585  0.00  0.00    +0.000 NA
ATOM     16  N   UNL     1       1.002   3.728  20.492  0.00  0.00    +0.000 NA
ATOM     17  C   UNL     1       2.082   3.664  19.737  0.00  0.00    +0.000 A 
ENDBRANCH  11  17
ENDBRANCH   7  11
ENDBRANCH   1   7
BRANCH   5  18
ATOM     18  N   UNL     1       5.676   3.591  14.453  0.00  0.00    +0.000 N 
ATOM     19  C   UNL     1       6.368   3.871  13.293  0.00  0.00    +0.000 C 
ATOM     20  O   UNL     1       7.155   4.793  13.096  0.00  0.00    +0.000 OA
ATOM     21  H   UNL     1       5.052   2.792  14.439  0.00  0.00    +0.000 HD
BRANCH  19  22
ATOM     22  C   UNL     1       6.096   2.940  12.218  0.00  0.00    +0.000 C 
ATOM     23  C   UNL     1       6.757   1.973  11.618  0.00  0.00    +0.000 C 
ATOM     24  C   UNL     1       5.193   2.513  11.306  0.00  0.00    +0.000 C 
BRANCH  23  25
ATOM     25  O   UNL     1       6.884   0.994  10.719  0.00  0.00    +0.000 OA
ATOM     26  H   UNL     1       6.040   0.505  10.734  0.00  0.00    +0.000 HD
ENDBRANCH  23  25
ENDBRANCH  19  22
ENDBRANCH   5  18
TORSDOF 6
ENDMDL
MODEL 9
REMARK VINA RESULT:      -7.3      3.306      5.109
REMARK  Name = 
REMARK  7 active torsions:
REMARK  status: ('A' for Active; 'I' for Inactive)
REMARK    1  A    between atoms: C_1  and  N_2
REMARK    2  A    between atoms: C_6  and  C_7
REMARK    3  A    between atoms: C_7  and  C_8
REMARK    4  A    between atoms: C_8  and  C_9
REMARK    5  A    between atoms: C_13  and  N_14
REMARK    6  A    between atoms: C_15  and  C_17
REMARK    7  A    between atoms: C_18  and  O_19
REMARK                            x       y       z     vdW  Elec       q    Type
REMARK                         _______ _______ _______ _____ _____    ______ ____
ROOT
ATOM      1  C   UNL     1       4.939   4.531  17.163  0.00  0.00    +0.000 A 
ATOM      2  C   UNL     1       5.404   3.889  15.996  0.00  0.00    +0.000 A 
ATOM      3  C   UNL     1       6.431   4.418  15.222  0.00  0.00    +0.000 A 
ATOM      4  C   UNL     1       7.038   5.614  15.591  0.00  0.00    +0.000 A 
ATOM      5  C   UNL     1       6.630   6.291  16.738  0.00  0.00    +0.000 A 
ATOM      6  C   UNL     1       5.597   5.735  17.516  0.00  0.00    +0.000 A 
ENDROOT
BRANCH   1   7
ATOM      7  C   UNL     1       3.702   3.920  18.003  0.00  0.00    +0.000 C 
ATOM      8  C   UNL     1       2.302   3.855  17.331  0.00  0.00    +0.000 C 
ATOM      9  O   UNL     1       2.257   2.415  17.414  0.00  0.00    +0.000 OA
ATOM     10  C   UNL     1       3.586   2.367  17.965  0.00  0.00    +0.000 C 
BRANCH   7  11
ATOM     11  C   UNL     1       3.704   4.443  19.455  0.00  0.00    +0.000 C 
BRANCH  11  17
ATOM     12  C   UNL     1       0.658   4.437  20.292  0.00  0.00    +0.000 C 
ATOM     13  N   UNL     1       1.702   3.582  20.792  0.00  0.00    +0.000 N 
ATOM     14  C   UNL     1       1.547   2.647  21.771  0.00  0.00    +0.000 A 
ATOM     15  N   UNL     1       2.689   2.040  21.984  0.00  0.00    +0.000 NA
ATOM     16  N   UNL     1       3.616   2.599  21.141  0.00  0.00    +0.000 NA
ATOM     17  C   UNL     1       3.025   3.536  20.426  0.00  0.00    +0.000 A 
ENDBRANCH  11  17
ENDBRANCH   7  11
ENDBRANCH   1   7
BRANCH   5  18
ATOM     18  N   UNL     1       7.189   7.524  17.151  0.00  0.00    +0.000 N 
ATOM     19  C   UNL     1       8.049   7.724  18.212  0.00  0.00    +0.000 C 
ATOM     20  O   UNL     1       8.459   6.886  19.010  0.00  0.00    +0.000 OA
ATOM     21  H   UNL     1       6.942   8.336  16.596  0.00  0.00    +0.000 HD
BRANCH  19  22
ATOM     22  C   UNL     1       8.484   9.098  18.352  0.00  0.00    +0.000 C 
ATOM     23  C   UNL     1       8.233  10.235  17.738  0.00  0.00    +0.000 C 
ATOM     24  C   UNL     1       9.261   9.963  19.044  0.00  0.00    +0.000 C 
BRANCH  23  25
ATOM     25  O   UNL     1       8.378  11.549  17.554  0.00  0.00    +0.000 OA
ATOM     26  H   UNL     1       9.205  11.659  17.048  0.00  0.00    +0.000 HD
ENDBRANCH  23  25
ENDBRANCH  19  22
ENDBRANCH   5  18
TORSDOF 6
ENDMDL
