MODEL 1
REMARK VINA RESULT:      -8.2      0.000      0.000
REMARK  Name = 
REMARK  6 active torsions:
REMARK  status: ('A' for Active; 'I' for Inactive)
REMARK    1  A    between atoms: C_2  and  C_3
REMARK    2  A    between atoms: C_3  and  C_4
REMARK    3  A    between atoms: N_10  and  C_11
REMARK    4  A    between atoms: C_11  and  C_12
REMARK    5  A    between atoms: N_14  and  C_15
REMARK    6  A    between atoms: C_19  and  C_20
REMARK                            x       y       z     vdW  Elec       q    Type
REMARK                         _______ _______ _______ _____ _____    ______ ____
ROOT
ATOM      1  C   UNL     1       6.199   4.757  18.212  0.00  0.00    +0.000 C 
ATOM      2  O   UNL     1       6.760   5.121  19.245  0.00  0.00    +0.000 OA
ATOM      3  N   UNL     1       4.828   4.683  18.003  0.00  0.00    +0.000 N 
ATOM      4  H   UNL     1       4.531   4.090  17.228  0.00  0.00    +0.000 HD
ENDROOT
BRANCH   3   5
ATOM      5  C   UNL     1       3.819   5.168  18.869  0.00  0.00    +0.000 A 
ATOM      6  C   UNL     1       3.274   4.401  19.904  0.00  0.00    +0.000 A 
ATOM      7  C   UNL     1       2.261   4.913  20.724  0.00  0.00    +0.000 A 
ATOM      8  C   UNL     1       1.785   6.205  20.524  0.00  0.00    +0.000 A 
ATOM      9  C   UNL     1       2.334   6.992  19.505  0.00  0.00    +0.000 A 
ATOM     10  C   UNL     1       3.353   6.477  18.685  0.00  0.00    +0.000 A 
BRANCH   9  11
ATOM     11  C   UNL     1       1.777   8.342  19.237  0.00  0.00    +0.000 C 
ATOM     12  O   UNL     1       2.003   8.866  18.148  0.00  0.00    +0.000 OA
ATOM     13  N   UNL     1       1.095   8.919  20.278  0.00  0.00    +0.000 N 
ATOM     14  C   UNL     1       0.568  10.214  20.233  0.00  0.00    +0.000 A 
ATOM     15  C   UNL     1      -0.110  10.701  19.119  0.00  0.00    +0.000 A 
ATOM     16  C   UNL     1      -0.569  12.015  19.139  0.00  0.00    +0.000 A 
ATOM     17  C   UNL     1      -0.302  12.809  20.246  0.00  0.00    +0.000 A 
ATOM     18  C   UNL     1       0.362  12.233  21.316  0.00  0.00    +0.000 A 
ATOM     19  N   UNL     1       0.759  10.942  21.351  0.00  0.00    +0.000 NA
ATOM     20  H   UNL     1       1.334   8.628  21.219  0.00  0.00    +0.000 HD
ENDBRANCH   9  11
ENDBRANCH   3   5
BRANCH   1  21
ATOM     21  C   UNL     1       7.028   4.227  17.040  0.00  0.00    +0.000 C 
BRANCH  21  24
ATOM     22  O   UNL     1       7.750   5.446  14.663  0.00  0.00    +0.000 OA
ATOM     23  C   UNL     1       6.678   4.842  14.692  0.00  0.00    +0.000 C 
ATOM     24  N   UNL     1       6.240   4.192  15.823  0.00  0.00    +0.000 N 
ATOM     25  H   UNL     1       5.253   3.982  15.911  0.00  0.00    +0.000 HD
BRANCH  23  26
ATOM     26  C   UNL     1       5.736   4.749  13.503  0.00  0.00    +0.000 C 
BRANCH  26  27
ATOM     27  C   UNL     1       6.069   3.625  12.556  0.00  0.00    +0.000 A 
ATOM     28  C   UNL     1       7.390   3.419  12.131  0.00  0.00    +0.000 A 
ATOM     29  C   UNL     1       7.705   2.360  11.276  0.00  0.00    +0.000 A 
ATOM     30  C   UNL     1       6.706   1.490  10.846  0.00  0.00    +0.000 A 
ATOM     31  C   UNL     1       5.392   1.677  11.268  0.00  0.00    +0.000 A 
ATOM     32  C   UNL     1       5.075   2.737  12.119  0.00  0.00    +0.000 A 
ENDBRANCH  26  27
ENDBRANCH  23  26
ENDBRANCH  21  24
ENDBRANCH   1  21
TORSDOF 6
ENDMDL
MODEL 2
REMARK VINA RESULT:      -8.1      4.442      6.476
REMARK  Name = 
REMARK  6 active torsions:
REMARK  status: ('A' for Active; 'I' for Inactive)
REMARK    1  A    between atoms: C_2  and  C_3
REMARK    2  A    between atoms: C_3  and  C_4
REMARK    3  A    between atoms: N_10  and  C_11
REMARK    4  A    between atoms: C_11  and  C_12
REMARK    5  A    between atoms: N_14  and  C_15
REMARK    6  A    between atoms: C_19  and  C_20
REMARK                            x       y       z     vdW  Elec       q    Type
REMARK                         _______ _______ _______ _____ _____    ______ ____
ROOT
ATOM      1  C   UNL     1       6.075   6.366  17.521  0.00  0.00    +0.000 C 
ATOM      2  O   UNL     1       5.132   7.047  17.122  0.00  0.00    +0.000 OA
ATOM      3  N   UNL     1       6.016   5.357  18.473  0.00  0.00    +0.000 N 
ATOM      4  H   UNL     1       6.905   5.104  18.906  0.00  0.00    +0.000 HD
ENDROOT
BRANCH   3   5
ATOM      5  C   UNL     1       4.842   4.805  19.040  0.00  0.00    +0.000 A 
ATOM      6  C   UNL     1       4.598   3.429  19.089  0.00  0.00    +0.000 A 
ATOM      7  C   UNL     1       3.413   2.926  19.639  0.00  0.00    +0.000 A 
ATOM      8  C   UNL     1       2.458   3.795  20.157  0.00  0.00    +0.000 A 
ATOM      9  C   UNL     1       2.696   5.175  20.133  0.00  0.00    +0.000 A 
ATOM     10  C   UNL     1       3.888   5.677  19.583  0.00  0.00    +0.000 A 
BRANCH   9  11
ATOM     11  C   UNL     1       1.648   6.111  20.612  0.00  0.00    +0.000 C 
ATOM     12  O   UNL     1       0.543   5.657  20.903  0.00  0.00    +0.000 OA
ATOM     13  N   UNL     1       2.000   7.437  20.629  0.00  0.00    +0.000 N 
ATOM     14  C   UNL     1       1.118   8.465  20.977  0.00  0.00    +0.000 A 
ATOM     15  C   UNL     1       0.255   8.366  22.064  0.00  0.00    +0.000 A 
ATOM     16  C   UNL     1      -0.620   9.419  22.319  0.00  0.00    +0.000 A 
ATOM     17  C   UNL     1      -0.635  10.511  21.462  0.00  0.00    +0.000 A 
ATOM     18  C   UNL     1       0.274  10.530  20.417  0.00  0.00    +0.000 A 
ATOM     19  N   UNL     1       1.180   9.555  20.186  0.00  0.00    +0.000 NA
ATOM     20  H   UNL     1       2.722   7.742  19.986  0.00  0.00    +0.000 HD
ENDBRANCH   9  11
ENDBRANCH   3   5
BRANCH   1  21
ATOM     21  C   UNL     1       7.495   6.671  17.039  0.00  0.00    +0.000 C 
BRANCH  21  24
ATOM     22  O   UNL     1       8.735   8.171  19.006  0.00  0.00    +0.000 OA
ATOM     23  C   UNL     1       8.335   8.764  18.004  0.00  0.00    +0.000 C 
ATOM     24  N   UNL     1       7.720   8.103  16.966  0.00  0.00    +0.000 N 
ATOM     25  H   UNL     1       7.143   8.635  16.325  0.00  0.00    +0.000 HD
BRANCH  23  26
ATOM     26  C   UNL     1       8.474  10.264  17.805  0.00  0.00    +0.000 C 
BRANCH  26  27
ATOM     27  C   UNL     1       9.594  10.877  18.606  0.00  0.00    +0.000 A 
ATOM     28  C   UNL     1      10.797  11.246  17.984  0.00  0.00    +0.000 A 
ATOM     29  C   UNL     1      11.824  11.840  18.720  0.00  0.00    +0.000 A 
ATOM     30  C   UNL     1      11.658  12.082  20.081  0.00  0.00    +0.000 A 
ATOM     31  C   UNL     1      10.466  11.730  20.710  0.00  0.00    +0.000 A 
ATOM     32  C   UNL     1       9.440  11.132  19.976  0.00  0.00    +0.000 A 
ENDBRANCH  26  27
ENDBRANCH  23  26
ENDBRANCH  21  24
ENDBRANCH   1  21
TORSDOF 6
ENDMDL
MODEL 3
REMARK VINA RESULT:      -8.1      5.494      9.345
REMARK  Name = 
REMARK  6 active torsions:
REMARK  status: ('A' for Active; 'I' for Inactive)
REMARK    1  A    between atoms: C_2  and  C_3
REMARK    2  A    between atoms: C_3  and  C_4
REMARK    3  A    between atoms: N_10  and  C_11
REMARK    4  A    between atoms: C_11  and  C_12
REMARK    5  A    between atoms: N_14  and  C_15
REMARK    6  A    between atoms: C_19  and  C_20
REMARK                            x       y       z     vdW  Elec       q    Type
REMARK                         _______ _______ _______ _____ _____    ______ ____
ROOT
ATOM      1  C   UNL     1       8.143   8.315  17.979  0.00  0.00    +0.000 C 
ATOM      2  O   UNL     1       8.519   7.611  18.915  0.00  0.00    +0.000 OA
ATOM      3  N   UNL     1       7.428   7.891  16.866  0.00  0.00    +0.000 N 
ATOM      4  H   UNL     1       7.458   8.513  16.058  0.00  0.00    +0.000 HD
ENDROOT
BRANCH   3   5
ATOM      5  C   UNL     1       6.850   6.613  16.676  0.00  0.00    +0.000 A 
ATOM      6  C   UNL     1       7.349   5.683  15.759  0.00  0.00    +0.000 A 
ATOM      7  C   UNL     1       6.733   4.438  15.586  0.00  0.00    +0.000 A 
ATOM      8  C   UNL     1       5.612   4.102  16.338  0.00  0.00    +0.000 A 
ATOM      9  C   UNL     1       5.111   5.015  17.275  0.00  0.00    +0.000 A 
ATOM     10  C   UNL     1       5.734   6.263  17.448  0.00  0.00    +0.000 A 
BRANCH   9  11
ATOM     11  C   UNL     1       3.870   4.694  18.024  0.00  0.00    +0.000 C 
ATOM     12  O   UNL     1       2.889   5.419  17.874  0.00  0.00    +0.000 OA
ATOM     13  N   UNL     1       3.954   3.626  18.881  0.00  0.00    +0.000 N 
ATOM     14  C   UNL     1       2.910   3.226  19.721  0.00  0.00    +0.000 A 
ATOM     15  C   UNL     1       1.590   3.163  19.286  0.00  0.00    +0.000 A 
ATOM     16  C   UNL     1       0.603   2.794  20.196  0.00  0.00    +0.000 A 
ATOM     17  C   UNL     1       0.958   2.542  21.515  0.00  0.00    +0.000 A 
ATOM     18  C   UNL     1       2.299   2.611  21.852  0.00  0.00    +0.000 A 
ATOM     19  N   UNL     1       3.285   2.900  20.974  0.00  0.00    +0.000 NA
ATOM     20  H   UNL     1       4.867   3.389  19.253  0.00  0.00    +0.000 HD
ENDBRANCH   9  11
ENDBRANCH   3   5
BRANCH   1  21
ATOM     21  C   UNL     1       8.553   9.788  17.919  0.00  0.00    +0.000 C 
BRANCH  21  24
ATOM     22  O   UNL     1      10.282  11.937  18.146  0.00  0.00    +0.000 OA
ATOM     23  C   UNL     1      10.065  11.270  19.157  0.00  0.00    +0.000 C 
ATOM     24  N   UNL     1       9.210  10.192  19.148  0.00  0.00    +0.000 N 
ATOM     25  H   UNL     1       9.291   9.501  19.884  0.00  0.00    +0.000 HD
BRANCH  23  26
ATOM     26  C   UNL     1      10.707  11.559  20.505  0.00  0.00    +0.000 C 
BRANCH  26  27
ATOM     27  C   UNL     1       9.937  12.550  21.339  0.00  0.00    +0.000 A 
ATOM     28  C   UNL     1      10.218  13.922  21.256  0.00  0.00    +0.000 A 
ATOM     29  C   UNL     1       9.486  14.844  22.006  0.00  0.00    +0.000 A 
ATOM     30  C   UNL     1       8.461  14.407  22.841  0.00  0.00    +0.000 A 
ATOM     31  C   UNL     1       8.165  13.050  22.927  0.00  0.00    +0.000 A 
ATOM     32  C   UNL     1       8.898  12.126  22.180  0.00  0.00    +0.000 A 
ENDBRANCH  26  27
ENDBRANCH  23  26
ENDBRANCH  21  24
ENDBRANCH   1  21
TORSDOF 6
ENDMDL
MODEL 4
REMARK VINA RESULT:      -8.1      6.421      7.957
REMARK  Name = 
REMARK  6 active torsions:
REMARK  status: ('A' for Active; 'I' for Inactive)
REMARK    1  A    between atoms: C_2  and  C_3
REMARK    2  A    between atoms: C_3  and  C_4
REMARK    3  A    between atoms: N_10  and  C_11
REMARK    4  A    between atoms: C_11  and  C_12
REMARK    5  A    between atoms: N_14  and  C_15
REMARK    6  A    between atoms: C_19  and  C_20
REMARK                            x       y       z     vdW  Elec       q    Type
REMARK                         _______ _______ _______ _____ _____    ______ ____
ROOT
ATOM      1  C   UNL     1       8.075   8.095  18.211  0.00  0.00    +0.000 C 
ATOM      2  O   UNL     1       7.530   8.565  17.214  0.00  0.00    +0.000 OA
ATOM      3  N   UNL     1       8.967   8.753  19.048  0.00  0.00    +0.000 N 
ATOM      4  H   UNL     1       9.550   8.153  19.632  0.00  0.00    +0.000 HD
ENDROOT
BRANCH   3   5
ATOM      5  C   UNL     1       9.288  10.132  19.016  0.00  0.00    +0.000 A 
ATOM      6  C   UNL     1       9.724  10.783  17.858  0.00  0.00    +0.000 A 
ATOM      7  C   UNL     1      10.052  12.143  17.875  0.00  0.00    +0.000 A 
ATOM      8  C   UNL     1       9.939  12.875  19.054  0.00  0.00    +0.000 A 
ATOM      9  C   UNL     1       9.484  12.242  20.217  0.00  0.00    +0.000 A 
ATOM     10  C   UNL     1       9.153  10.876  20.196  0.00  0.00    +0.000 A 
BRANCH   9  11
ATOM     11  C   UNL     1       9.436  12.998  21.495  0.00  0.00    +0.000 C 
ATOM     12  O   UNL     1      10.245  13.906  21.671  0.00  0.00    +0.000 OA
ATOM     13  N   UNL     1       8.511  12.560  22.408  0.00  0.00    +0.000 N 
ATOM     14  C   UNL     1       8.376  13.101  23.691  0.00  0.00    +0.000 A 
ATOM     15  C   UNL     1       8.409  14.472  23.924  0.00  0.00    +0.000 A 
ATOM     16  C   UNL     1       8.307  14.928  25.236  0.00  0.00    +0.000 A 
ATOM     17  C   UNL     1       8.220  14.005  26.270  0.00  0.00    +0.000 A 
ATOM     18  C   UNL     1       8.175  12.661  25.939  0.00  0.00    +0.000 A 
ATOM     19  N   UNL     1       8.203  12.194  24.672  0.00  0.00    +0.000 NA
ATOM     20  H   UNL     1       8.224  11.588  22.362  0.00  0.00    +0.000 HD
ENDBRANCH   9  11
ENDBRANCH   3   5
BRANCH   1  21
ATOM     21  C   UNL     1       7.876   6.620  18.565  0.00  0.00    +0.000 C 
BRANCH  21  24
ATOM     22  O   UNL     1       5.526   5.347  19.280  0.00  0.00    +0.000 OA
ATOM     23  C   UNL     1       5.827   5.360  18.086  0.00  0.00    +0.000 C 
ATOM     24  N   UNL     1       6.968   5.981  17.632  0.00  0.00    +0.000 N 
ATOM     25  H   UNL     1       7.338   5.715  16.727  0.00  0.00    +0.000 HD
BRANCH  23  26
ATOM     26  C   UNL     1       4.987   4.706  17.002  0.00  0.00    +0.000 C 
BRANCH  26  27
ATOM     27  C   UNL     1       3.776   3.982  17.531  0.00  0.00    +0.000 A 
ATOM     28  C   UNL     1       2.557   4.658  17.696  0.00  0.00    +0.000 A 
ATOM     29  C   UNL     1       1.427   3.982  18.159  0.00  0.00    +0.000 A 
ATOM     30  C   UNL     1       1.498   2.623  18.453  0.00  0.00    +0.000 A 
ATOM     31  C   UNL     1       2.698   1.937  18.286  0.00  0.00    +0.000 A 
ATOM     32  C   UNL     1       3.831   2.613  17.826  0.00  0.00    +0.000 A 
ENDBRANCH  26  27
ENDBRANCH  23  26
ENDBRANCH  21  24
ENDBRANCH   1  21
TORSDOF 6
ENDMDL
MODEL 5
REMARK VINA RESULT:      -8.0      3.421      6.031
REMARK  Name = 
REMARK  6 active torsions:
REMARK  status: ('A' for Active; 'I' for Inactive)
REMARK    1  A    between atoms: C_2  and  C_3
REMARK    2  A    between atoms: C_3  and  C_4
REMARK    3  A    between atoms: N_10  and  C_11
REMARK    4  A    between atoms: C_11  and  C_12
REMARK    5  A    between atoms: N_14  and  C_15
REMARK    6  A    between atoms: C_19  and  C_20
REMARK                            x       y       z     vdW  Elec       q    Type
REMARK                         _______ _______ _______ _____ _____    ______ ____
ROOT
ATOM      1  C   UNL     1       2.019   8.434  18.473  0.00  0.00    +0.000 C 
ATOM      2  O   UNL     1       2.369   8.676  17.319  0.00  0.00    +0.000 OA
ATOM      3  N   UNL     1       1.311   9.284  19.313  0.00  0.00    +0.000 N 
ATOM      4  H   UNL     1       1.363   9.067  20.308  0.00  0.00    +0.000 HD
ENDROOT
BRANCH   3   5
ATOM      5  C   UNL     1       0.710  10.514  18.951  0.00  0.00    +0.000 A 
ATOM      6  C   UNL     1       1.415  11.721  18.916  0.00  0.00    +0.000 A 
ATOM      7  C   UNL     1       0.778  12.919  18.574  0.00  0.00    +0.000 A 
ATOM      8  C   UNL     1      -0.577  12.924  18.254  0.00  0.00    +0.000 A 
ATOM      9  C   UNL     1      -1.292  11.720  18.265  0.00  0.00    +0.000 A 
ATOM     10  C   UNL     1      -0.648  10.518  18.606  0.00  0.00    +0.000 A 
BRANCH   9  11
ATOM     11  C   UNL     1      -2.753  11.731  18.001  0.00  0.00    +0.000 C 
ATOM     12  O   UNL     1      -3.147  11.481  16.864  0.00  0.00    +0.000 OA
ATOM     13  N   UNL     1      -3.545  12.087  19.063  0.00  0.00    +0.000 N 
ATOM     14  C   UNL     1      -4.934  12.225  18.979  0.00  0.00    +0.000 A 
ATOM     15  C   UNL     1      -5.731  11.308  18.301  0.00  0.00    +0.000 A 
ATOM     16  C   UNL     1      -7.102  11.538  18.229  0.00  0.00    +0.000 A 
ATOM     17  C   UNL     1      -7.626  12.692  18.797  0.00  0.00    +0.000 A 
ATOM     18  C   UNL     1      -6.758  13.537  19.469  0.00  0.00    +0.000 A 
ATOM     19  N   UNL     1      -5.436  13.304  19.613  0.00  0.00    +0.000 NA
ATOM     20  H   UNL     1      -3.137  12.677  19.781  0.00  0.00    +0.000 HD
ENDBRANCH   9  11
ENDBRANCH   3   5
BRANCH   1  21
ATOM     21  C   UNL     1       2.459   7.133  19.146  0.00  0.00    +0.000 C 
BRANCH  21  24
ATOM     22  O   UNL     1       3.659   4.703  19.703  0.00  0.00    +0.000 OA
ATOM     23  C   UNL     1       3.365   4.938  18.532  0.00  0.00    +0.000 C 
ATOM     24  N   UNL     1       2.751   6.112  18.158  0.00  0.00    +0.000 N 
ATOM     25  H   UNL     1       2.806   6.401  17.189  0.00  0.00    +0.000 HD
BRANCH  23  26
ATOM     26  C   UNL     1       3.640   3.975  17.388  0.00  0.00    +0.000 C 
BRANCH  26  27
ATOM     27  C   UNL     1       4.907   4.282  16.633  0.00  0.00    +0.000 A 
ATOM     28  C   UNL     1       6.123   4.438  17.314  0.00  0.00    +0.000 A 
ATOM     29  C   UNL     1       7.303   4.695  16.613  0.00  0.00    +0.000 A 
ATOM     30  C   UNL     1       7.283   4.787  15.224  0.00  0.00    +0.000 A 
ATOM     31  C   UNL     1       6.085   4.625  14.534  0.00  0.00    +0.000 A 
ATOM     32  C   UNL     1       4.903   4.373  15.234  0.00  0.00    +0.000 A 
ENDBRANCH  26  27
ENDBRANCH  23  26
ENDBRANCH  21  24
ENDBRANCH   1  21
TORSDOF 6
ENDMDL
MODEL 6
REMARK VINA RESULT:      -8.0      4.918      8.057
REMARK  Name = 
REMARK  6 active torsions:
REMARK  status: ('A' for Active; 'I' for Inactive)
REMARK    1  A    between atoms: C_2  and  C_3
REMARK    2  A    between atoms: C_3  and  C_4
REMARK    3  A    between atoms: N_10  and  C_11
REMARK    4  A    between atoms: C_11  and  C_12
REMARK    5  A    between atoms: N_14  and  C_15
REMARK    6  A    between atoms: C_19  and  C_20
REMARK                            x       y       z     vdW  Elec       q    Type
REMARK                         _______ _______ _______ _____ _____    ______ ____
ROOT
ATOM      1  C   UNL     1       0.220  10.009  18.196  0.00  0.00    +0.000 C 
ATOM      2  O   UNL     1       0.136  10.611  19.265  0.00  0.00    +0.000 OA
ATOM      3  N   UNL     1      -0.802   9.825  17.274  0.00  0.00    +0.000 N 
ATOM      4  H   UNL     1      -0.665   9.067  16.606  0.00  0.00    +0.000 HD
ENDROOT
BRANCH   3   5
ATOM      5  C   UNL     1      -2.079  10.436  17.302  0.00  0.00    +0.000 A 
ATOM      6  C   UNL     1      -2.914  10.503  16.182  0.00  0.00    +0.000 A 
ATOM      7  C   UNL     1      -4.160  11.136  16.248  0.00  0.00    +0.000 A 
ATOM      8  C   UNL     1      -4.593  11.706  17.441  0.00  0.00    +0.000 A 
ATOM      9  C   UNL     1      -3.777  11.631  18.577  0.00  0.00    +0.000 A 
ATOM     10  C   UNL     1      -2.528  10.991  18.508  0.00  0.00    +0.000 A 
BRANCH   9  11
ATOM     11  C   UNL     1      -4.199  12.304  19.831  0.00  0.00    +0.000 C 
ATOM     12  O   UNL     1      -3.344  12.863  20.515  0.00  0.00    +0.000 OA
ATOM     13  N   UNL     1      -5.528  12.185  20.150  0.00  0.00    +0.000 N 
ATOM     14  C   UNL     1      -6.088  12.688  21.329  0.00  0.00    +0.000 A 
ATOM     15  C   UNL     1      -5.770  13.950  21.821  0.00  0.00    +0.000 A 
ATOM     16  C   UNL     1      -6.340  14.361  23.023  0.00  0.00    +0.000 A 
ATOM     17  C   UNL     1      -7.171  13.488  23.712  0.00  0.00    +0.000 A 
ATOM     18  C   UNL     1      -7.446  12.260  23.135  0.00  0.00    +0.000 A 
ATOM     19  N   UNL     1      -6.962  11.862  21.939  0.00  0.00    +0.000 NA
ATOM     20  H   UNL     1      -6.030  11.378  19.793  0.00  0.00    +0.000 HD
ENDBRANCH   9  11
ENDBRANCH   3   5
BRANCH   1  21
ATOM     21  C   UNL     1       1.514   9.280  17.830  0.00  0.00    +0.000 C 
BRANCH  21  24
ATOM     22  O   UNL     1       3.514   7.387  17.555  0.00  0.00    +0.000 OA
ATOM     23  C   UNL     1       2.849   7.367  18.590  0.00  0.00    +0.000 C 
ATOM     24  N   UNL     1       1.843   8.277  18.825  0.00  0.00    +0.000 N 
ATOM     25  H   UNL     1       1.134   8.050  19.513  0.00  0.00    +0.000 HD
BRANCH  23  26
ATOM     26  C   UNL     1       3.061   6.355  19.704  0.00  0.00    +0.000 C 
BRANCH  26  27
ATOM     27  C   UNL     1       2.272   5.084  19.523  0.00  0.00    +0.000 A 
ATOM     28  C   UNL     1       1.704   4.434  20.628  0.00  0.00    +0.000 A 
ATOM     29  C   UNL     1       0.949   3.272  20.459  0.00  0.00    +0.000 A 
ATOM     30  C   UNL     1       0.744   2.753  19.182  0.00  0.00    +0.000 A 
ATOM     31  C   UNL     1       1.294   3.393  18.075  0.00  0.00    +0.000 A 
ATOM     32  C   UNL     1       2.053   4.553  18.244  0.00  0.00    +0.000 A 
ENDBRANCH  26  27
ENDBRANCH  23  26
ENDBRANCH  21  24
ENDBRANCH   1  21
TORSDOF 6
ENDMDL
MODEL 7
REMARK VINA RESULT:      -8.0      5.676      9.464
REMARK  Name = 
REMARK  6 active torsions:
REMARK  status: ('A' for Active; 'I' for Inactive)
REMARK    1  A    between atoms: C_2  and  C_3
REMARK    2  A    between atoms: C_3  and  C_4
REMARK    3  A    between atoms: N_10  and  C_11
REMARK    4  A    between atoms: C_11  and  C_12
REMARK    5  A    between atoms: N_14  and  C_15
REMARK    6  A    between atoms: C_19  and  C_20
REMARK                            x       y       z     vdW  Elec       q    Type
REMARK                         _______ _______ _______ _____ _____    ______ ____
ROOT
ATOM      1  C   UNL     1       8.180   8.399  18.016  0.00  0.00    +0.000 C 
ATOM      2  O   UNL     1       8.670   7.731  18.925  0.00  0.00    +0.000 OA
ATOM      3  N   UNL     1       7.486   7.909  16.917  0.00  0.00    +0.000 N 
ATOM      4  H   UNL     1       7.413   8.542  16.121  0.00  0.00    +0.000 HD
ENDROOT
BRANCH   3   5
ATOM      5  C   UNL     1       7.063   6.572  16.719  0.00  0.00    +0.000 A 
ATOM      6  C   UNL     1       7.457   5.807  15.617  0.00  0.00    +0.000 A 
ATOM      7  C   UNL     1       6.998   4.496  15.447  0.00  0.00    +0.000 A 
ATOM      8  C   UNL     1       6.142   3.928  16.386  0.00  0.00    +0.000 A 
ATOM      9  C   UNL     1       5.754   4.674  17.506  0.00  0.00    +0.000 A 
ATOM     10  C   UNL     1       6.219   5.990  17.674  0.00  0.00    +0.000 A 
BRANCH   9  11
ATOM     11  C   UNL     1       4.780   4.102  18.470  0.00  0.00    +0.000 C 
ATOM     12  O   UNL     1       5.209   3.496  19.449  0.00  0.00    +0.000 OA
ATOM     13  N   UNL     1       3.458   4.254  18.137  0.00  0.00    +0.000 N 
ATOM     14  C   UNL     1       2.406   3.714  18.884  0.00  0.00    +0.000 A 
ATOM     15  C   UNL     1       2.378   3.773  20.274  0.00  0.00    +0.000 A 
ATOM     16  C   UNL     1       1.314   3.176  20.947  0.00  0.00    +0.000 A 
ATOM     17  C   UNL     1       0.341   2.508  20.216  0.00  0.00    +0.000 A 
ATOM     18  C   UNL     1       0.442   2.519  18.835  0.00  0.00    +0.000 A 
ATOM     19  N   UNL     1       1.425   3.147  18.155  0.00  0.00    +0.000 NA
ATOM     20  H   UNL     1       3.226   4.356  17.155  0.00  0.00    +0.000 HD
ENDBRANCH   9  11
ENDBRANCH   3   5
BRANCH   1  21
ATOM     21  C   UNL     1       8.404   9.912  17.974  0.00  0.00    +0.000 C 
BRANCH  21  24
ATOM     22  O   UNL     1      10.327  11.899  17.855  0.00  0.00    +0.000 OA
ATOM     23  C   UNL     1      10.154  11.337  18.936  0.00  0.00    +0.000 C 
ATOM     24  N   UNL     1       9.211  10.347  19.098  0.00  0.00    +0.000 N 
ATOM     25  H   UNL     1       9.304   9.711  19.881  0.00  0.00    +0.000 HD
BRANCH  23  26
ATOM     26  C   UNL     1      10.947  11.667  20.190  0.00  0.00    +0.000 C 
BRANCH  26  27
ATOM     27  C   UNL     1      10.349  12.785  21.005  0.00  0.00    +0.000 A 
ATOM     28  C   UNL     1      10.715  14.118  20.763  0.00  0.00    +0.000 A 
ATOM     29  C   UNL     1      10.141  15.157  21.498  0.00  0.00    +0.000 A 
ATOM     30  C   UNL     1       9.187  14.877  22.474  0.00  0.00    +0.000 A 
ATOM     31  C   UNL     1       8.808  13.560  22.718  0.00  0.00    +0.000 A 
ATOM     32  C   UNL     1       9.384  12.520  21.987  0.00  0.00    +0.000 A 
ENDBRANCH  26  27
ENDBRANCH  23  26
ENDBRANCH  21  24
ENDBRANCH   1  21
TORSDOF 6
ENDMDL
MODEL 8
REMARK VINA RESULT:      -7.9      6.170      7.946
REMARK  Name = 
REMARK  6 active torsions:
REMARK  status: ('A' for Active; 'I' for Inactive)
REMARK    1  A    between atoms: C_2  and  C_3
REMARK    2  A    between atoms: C_3  and  C_4
REMARK    3  A    between atoms: N_10  and  C_11
REMARK    4  A    between atoms: C_11  and  C_12
REMARK    5  A    between atoms: N_14  and  C_15
REMARK    6  A    between atoms: C_19  and  C_20
REMARK                            x       y       z     vdW  Elec       q    Type
REMARK                         _______ _______ _______ _____ _____    ______ ____
ROOT
ATOM      1  C   UNL     1       8.388   9.339  18.216  0.00  0.00    +0.000 C 
ATOM      2  O   UNL     1       7.786  10.230  17.620  0.00  0.00    +0.000 OA
ATOM      3  N   UNL     1       9.359   9.514  19.193  0.00  0.00    +0.000 N 
ATOM      4  H   UNL     1       9.964   8.711  19.365  0.00  0.00    +0.000 HD
ENDROOT
BRANCH   3   5
ATOM      5  C   UNL     1       9.718  10.737  19.811  0.00  0.00    +0.000 A 
ATOM      6  C   UNL     1      10.805  11.509  19.389  0.00  0.00    +0.000 A 
ATOM      7  C   UNL     1      11.139  12.701  20.042  0.00  0.00    +0.000 A 
ATOM      8  C   UNL     1      10.383  13.142  21.124  0.00  0.00    +0.000 A 
ATOM      9  C   UNL     1       9.280  12.390  21.546  0.00  0.00    +0.000 A 
ATOM     10  C   UNL     1       8.945  11.194  20.886  0.00  0.00    +0.000 A 
BRANCH   9  11
ATOM     11  C   UNL     1       8.517  12.814  22.748  0.00  0.00    +0.000 C 
ATOM     12  O   UNL     1       8.877  13.824  23.346  0.00  0.00    +0.000 OA
ATOM     13  N   UNL     1       7.492  11.982  23.122  0.00  0.00    +0.000 N 
ATOM     14  C   UNL     1       6.717  12.181  24.269  0.00  0.00    +0.000 A 
ATOM     15  C   UNL     1       6.238  13.437  24.633  0.00  0.00    +0.000 A 
ATOM     16  C   UNL     1       5.506  13.557  25.811  0.00  0.00    +0.000 A 
ATOM     17  C   UNL     1       5.313  12.435  26.606  0.00  0.00    +0.000 A 
ATOM     18  C   UNL     1       5.809  11.224  26.154  0.00  0.00    +0.000 A 
ATOM     19  N   UNL     1       6.463  11.066  24.982  0.00  0.00    +0.000 NA
ATOM     20  H   UNL     1       7.555  11.005  22.859  0.00  0.00    +0.000 HD
ENDBRANCH   9  11
ENDBRANCH   3   5
BRANCH   1  21
ATOM     21  C   UNL     1       8.171   7.876  17.823  0.00  0.00    +0.000 C 
BRANCH  21  24
ATOM     22  O   UNL     1       7.323   5.853  16.137  0.00  0.00    +0.000 OA
ATOM     23  C   UNL     1       6.468   6.614  16.590  0.00  0.00    +0.000 C 
ATOM     24  N   UNL     1       6.790   7.641  17.447  0.00  0.00    +0.000 N 
ATOM     25  H   UNL     1       6.140   8.411  17.548  0.00  0.00    +0.000 HD
BRANCH  23  26
ATOM     26  C   UNL     1       4.988   6.505  16.258  0.00  0.00    +0.000 C 
BRANCH  26  27
ATOM     27  C   UNL     1       4.093   6.580  17.468  0.00  0.00    +0.000 A 
ATOM     28  C   UNL     1       3.234   7.674  17.653  0.00  0.00    +0.000 A 
ATOM     29  C   UNL     1       2.383   7.731  18.758  0.00  0.00    +0.000 A 
ATOM     30  C   UNL     1       2.373   6.691  19.685  0.00  0.00    +0.000 A 
ATOM     31  C   UNL     1       3.212   5.595  19.509  0.00  0.00    +0.000 A 
ATOM     32  C   UNL     1       4.067   5.539  18.406  0.00  0.00    +0.000 A 
ENDBRANCH  26  27
ENDBRANCH  23  26
ENDBRANCH  21  24
ENDBRANCH   1  21
TORSDOF 6
ENDMDL
MODEL 9
REMARK VINA RESULT:      -7.9      5.994      9.482
REMARK  Name = 
REMARK  6 active torsions:
REMARK  status: ('A' for Active; 'I' for Inactive)
REMARK    1  A    between atoms: C_2  and  C_3
REMARK    2  A    between atoms: C_3  and  C_4
REMARK    3  A    between atoms: N_10  and  C_11
REMARK    4  A    between atoms: C_11  and  C_12
REMARK    5  A    between atoms: N_14  and  C_15
REMARK    6  A    between atoms: C_19  and  C_20
REMARK                            x       y       z     vdW  Elec       q    Type
REMARK                         _______ _______ _______ _____ _____    ______ ____
ROOT
ATOM      1  C   UNL     1       8.151   8.593  17.993  0.00  0.00    +0.000 C 
ATOM      2  O   UNL     1       8.730   7.946  18.865  0.00  0.00    +0.000 OA
ATOM      3  N   UNL     1       7.404   8.074  16.944  0.00  0.00    +0.000 N 
ATOM      4  H   UNL     1       7.251   8.704  16.156  0.00  0.00    +0.000 HD
ENDROOT
BRANCH   3   5
ATOM      5  C   UNL     1       7.024   6.721  16.772  0.00  0.00    +0.000 A 
ATOM      6  C   UNL     1       7.357   5.978  15.635  0.00  0.00    +0.000 A 
ATOM      7  C   UNL     1       6.941   4.649  15.495  0.00  0.00    +0.000 A 
ATOM      8  C   UNL     1       6.192   4.041  16.498  0.00  0.00    +0.000 A 
ATOM      9  C   UNL     1       5.867   4.766  17.651  0.00  0.00    +0.000 A 
ATOM     10  C   UNL     1       6.288   6.100  17.790  0.00  0.00    +0.000 A 
BRANCH   9  11
ATOM     11  C   UNL     1       5.002   4.148  18.688  0.00  0.00    +0.000 C 
ATOM     12  O   UNL     1       5.509   3.358  19.481  0.00  0.00    +0.000 OA
ATOM     13  N   UNL     1       3.672   4.479  18.625  0.00  0.00    +0.000 N 
ATOM     14  C   UNL     1       2.700   3.935  19.470  0.00  0.00    +0.000 A 
ATOM     15  C   UNL     1       2.909   3.779  20.837  0.00  0.00    +0.000 A 
ATOM     16  C   UNL     1       1.905   3.192  21.603  0.00  0.00    +0.000 A 
ATOM     17  C   UNL     1       0.750   2.744  20.977  0.00  0.00    +0.000 A 
ATOM     18  C   UNL     1       0.622   2.961  19.615  0.00  0.00    +0.000 A 
ATOM     19  N   UNL     1       1.549   3.588  18.860  0.00  0.00    +0.000 NA
ATOM     20  H   UNL     1       3.296   4.756  17.724  0.00  0.00    +0.000 HD
ENDBRANCH   9  11
ENDBRANCH   3   5
BRANCH   1  21
ATOM     21  C   UNL     1       8.310  10.114  17.940  0.00  0.00    +0.000 C 
BRANCH  21  24
ATOM     22  O   UNL     1      10.656  11.514  17.501  0.00  0.00    +0.000 OA
ATOM     23  C   UNL     1      10.355  11.257  18.666  0.00  0.00    +0.000 C 
ATOM     24  N   UNL     1       9.201  10.578  18.986  0.00  0.00    +0.000 N 
ATOM     25  H   UNL     1       9.140  10.123  19.889  0.00  0.00    +0.000 HD
BRANCH  23  26
ATOM     26  C   UNL     1      11.208  11.654  19.860  0.00  0.00    +0.000 C 
BRANCH  26  27
ATOM     27  C   UNL     1      10.985  13.072  20.316  0.00  0.00    +0.000 A 
ATOM     28  C   UNL     1      10.012  13.365  21.284  0.00  0.00    +0.000 A 
ATOM     29  C   UNL     1       9.823  14.675  21.729  0.00  0.00    +0.000 A 
ATOM     30  C   UNL     1      10.611  15.705  21.219  0.00  0.00    +0.000 A 
ATOM     31  C   UNL     1      11.586  15.428  20.265  0.00  0.00    +0.000 A 
ATOM     32  C   UNL     1      11.773  14.119  19.817  0.00  0.00    +0.000 A 
ENDBRANCH  26  27
ENDBRANCH  23  26
ENDBRANCH  21  24
ENDBRANCH   1  21
TORSDOF 6
ENDMDL
