MODEL 1
REMARK VINA RESULT:      -9.3      0.000      0.000
REMARK  Name = 
REMARK  3 active torsions:
REMARK  status: ('A' for Active; 'I' for Inactive)
REMARK    1  A    between atoms: C_2  and  C_23
REMARK    2  A    between atoms: N_3  and  C_4
REMARK    3  A    between atoms: C_8  and  C_9
REMARK                            x       y       z     vdW  Elec       q    Type
REMARK                         _______ _______ _______ _____ _____    ______ ____
ROOT
ATOM      1  C   UNL     1       2.240   4.967  20.707  0.00  0.00    +0.000 A 
ATOM      2  C   UNL     1       2.092   3.981  21.684  0.00  0.00    +0.000 A 
ATOM      3  C   UNL     1       2.587   2.684  21.471  0.00  0.00    +0.000 A 
ATOM      4  C   UNL     1       3.223   2.347  20.275  0.00  0.00    +0.000 A 
ATOM      5  C   UNL     1       3.353   3.318  19.285  0.00  0.00    +0.000 A 
ATOM      6  C   UNL     1       2.881   4.626  19.511  0.00  0.00    +0.000 A 
ENDROOT
BRANCH   5   7
ATOM      7  C   UNL     1       4.002   3.042  17.980  0.00  0.00    +0.000 C 
ATOM      8  O   UNL     1       3.879   1.880  17.580  0.00  0.00    +0.000 OA
ATOM      9  N   UNL     1       4.693   4.045  17.246  0.00  0.00    +0.000 N 
ATOM     10  C   UNL     1       5.187   3.561  15.919  0.00  0.00    +0.000 C 
ATOM     11  C   UNL     1       5.006   4.448  14.684  0.00  0.00    +0.000 C 
ATOM     12  C   UNL     1       5.895   5.681  14.648  0.00  0.00    +0.000 C 
ATOM     13  C   UNL     1       5.593   6.550  15.840  0.00  0.00    +0.000 C 
ATOM     14  C   UNL     1       6.215   5.995  17.092  0.00  0.00    +0.000 A 
ATOM     15  C   UNL     1       7.453   6.518  17.502  0.00  0.00    +0.000 A 
ATOM     16  C   UNL     1       7.910   6.298  18.792  0.00  0.00    +0.000 A 
ATOM     17  C   UNL     1       7.099   5.611  19.681  0.00  0.00    +0.000 A 
ATOM     18  C   UNL     1       5.948   4.961  19.223  0.00  0.00    +0.000 A 
ATOM     19  C   UNL     1       5.557   5.035  17.878  0.00  0.00    +0.000 A 
ENDBRANCH   5   7
BRANCH   1  22
ATOM     20  O   UNL     1       2.653   7.323  18.934  0.00  0.00    +0.000 OA
ATOM     21  C   UNL     1       2.020   7.356  19.982  0.00  0.00    +0.000 C 
ATOM     22  N   UNL     1       1.766   6.294  20.833  0.00  0.00    +0.000 N 
ATOM     23  H   UNL     1       1.081   6.447  21.562  0.00  0.00    +0.000 HD
BRANCH  21  24
ATOM     24  C   UNL     1       1.392   8.639  20.382  0.00  0.00    +0.000 A 
ATOM     25  C   UNL     1       0.904   9.570  19.465  0.00  0.00    +0.000 A 
ATOM     26  C   UNL     1       0.325  10.752  19.937  0.00  0.00    +0.000 A 
ATOM     27  C   UNL     1       0.269  10.962  21.296  0.00  0.00    +0.000 A 
ATOM     28  N   UNL     1       0.720  10.077  22.213  0.00  0.00    +0.000 NA
ATOM     29  C   UNL     1       1.260   8.928  21.735  0.00  0.00    +0.000 A 
ENDBRANCH  21  24
ENDBRANCH   1  22
TORSDOF 3
ENDMDL
MODEL 2
REMARK VINA RESULT:      -8.5      2.909      8.941
REMARK  Name = 
REMARK  3 active torsions:
REMARK  status: ('A' for Active; 'I' for Inactive)
REMARK    1  A    between atoms: C_2  and  C_23
REMARK    2  A    between atoms: N_3  and  C_4
REMARK    3  A    between atoms: C_8  and  C_9
REMARK                            x       y       z     vdW  Elec       q    Type
REMARK                         _______ _______ _______ _____ _____    ______ ____
ROOT
ATOM      1  C   UNL     1       2.423   7.454  18.853  0.00  0.00    +0.000 A 
ATOM      2  C   UNL     1       2.637   8.277  17.748  0.00  0.00    +0.000 A 
ATOM      3  C   UNL     1       2.137   9.590  17.725  0.00  0.00    +0.000 A 
ATOM      4  C   UNL     1       1.401  10.094  18.799  0.00  0.00    +0.000 A 
ATOM      5  C   UNL     1       1.160   9.270  19.896  0.00  0.00    +0.000 A 
ATOM      6  C   UNL     1       1.687   7.963  19.929  0.00  0.00    +0.000 A 
ENDROOT
BRANCH   5   7
ATOM      7  C   UNL     1       0.377   9.720  21.072  0.00  0.00    +0.000 C 
ATOM      8  O   UNL     1       0.546   9.044  22.092  0.00  0.00    +0.000 OA
ATOM      9  N   UNL     1      -0.484  10.852  21.027  0.00  0.00    +0.000 N 
ATOM     10  C   UNL     1      -1.099  11.171  22.353  0.00  0.00    +0.000 C 
ATOM     11  C   UNL     1      -1.150  12.627  22.823  0.00  0.00    +0.000 C 
ATOM     12  C   UNL     1      -2.138  13.505  22.070  0.00  0.00    +0.000 C 
ATOM     13  C   UNL     1      -1.762  13.545  20.612  0.00  0.00    +0.000 C 
ATOM     14  C   UNL     1      -2.172  12.281  19.908  0.00  0.00    +0.000 A 
ATOM     15  C   UNL     1      -3.387  12.281  19.205  0.00  0.00    +0.000 A 
ATOM     16  C   UNL     1      -3.657  11.286  18.279  0.00  0.00    +0.000 A 
ATOM     17  C   UNL     1      -2.686  10.333  18.018  0.00  0.00    +0.000 A 
ATOM     18  C   UNL     1      -1.551  10.247  18.832  0.00  0.00    +0.000 A 
ATOM     19  C   UNL     1      -1.341  11.149  19.886  0.00  0.00    +0.000 A 
ENDBRANCH   5   7
BRANCH   1  22
ATOM     20  O   UNL     1       1.411   4.972  17.553  0.00  0.00    +0.000 OA
ATOM     21  C   UNL     1       2.346   5.000  18.344  0.00  0.00    +0.000 C 
ATOM     22  N   UNL     1       2.882   6.119  18.958  0.00  0.00    +0.000 N 
ATOM     23  H   UNL     1       3.762   5.996  19.443  0.00  0.00    +0.000 HD
BRANCH  21  24
ATOM     24  C   UNL     1       3.040   3.727  18.654  0.00  0.00    +0.000 A 
ATOM     25  C   UNL     1       2.708   2.510  18.058  0.00  0.00    +0.000 A 
ATOM     26  C   UNL     1       3.422   1.361  18.412  0.00  0.00    +0.000 A 
ATOM     27  C   UNL     1       4.423   1.469  19.349  0.00  0.00    +0.000 A 
ATOM     28  N   UNL     1       4.781   2.633  19.937  0.00  0.00    +0.000 NA
ATOM     29  C   UNL     1       4.089   3.738  19.566  0.00  0.00    +0.000 A 
ENDBRANCH  21  24
ENDBRANCH   1  22
TORSDOF 3
ENDMDL
MODEL 3
REMARK VINA RESULT:      -8.1      2.663      9.118
REMARK  Name = 
REMARK  3 active torsions:
REMARK  status: ('A' for Active; 'I' for Inactive)
REMARK    1  A    between atoms: C_2  and  C_23
REMARK    2  A    between atoms: N_3  and  C_4
REMARK    3  A    between atoms: C_8  and  C_9
REMARK                            x       y       z     vdW  Elec       q    Type
REMARK                         _______ _______ _______ _____ _____    ______ ____
ROOT
ATOM      1  C   UNL     1       2.157   7.728  18.779  0.00  0.00    +0.000 A 
ATOM      2  C   UNL     1       2.532   8.597  17.755  0.00  0.00    +0.000 A 
ATOM      3  C   UNL     1       2.201   9.961  17.817  0.00  0.00    +0.000 A 
ATOM      4  C   UNL     1       1.477  10.474  18.894  0.00  0.00    +0.000 A 
ATOM      5  C   UNL     1       1.075   9.608  19.909  0.00  0.00    +0.000 A 
ATOM      6  C   UNL     1       1.433   8.245  19.859  0.00  0.00    +0.000 A 
ENDROOT
BRANCH   5   7
ATOM      7  C   UNL     1       0.291  10.066  21.082  0.00  0.00    +0.000 C 
ATOM      8  O   UNL     1       0.512   9.441  22.124  0.00  0.00    +0.000 OA
ATOM      9  N   UNL     1      -0.627  11.150  21.008  0.00  0.00    +0.000 N 
ATOM     10  C   UNL     1      -1.234  11.491  22.332  0.00  0.00    +0.000 C 
ATOM     11  C   UNL     1      -1.352  12.961  22.745  0.00  0.00    +0.000 C 
ATOM     12  C   UNL     1      -2.396  13.757  21.978  0.00  0.00    +0.000 C 
ATOM     13  C   UNL     1      -2.048  13.757  20.512  0.00  0.00    +0.000 C 
ATOM     14  C   UNL     1      -2.406  12.446  19.867  0.00  0.00    +0.000 A 
ATOM     15  C   UNL     1      -3.632  12.356  19.188  0.00  0.00    +0.000 A 
ATOM     16  C   UNL     1      -3.867  11.312  18.308  0.00  0.00    +0.000 A 
ATOM     17  C   UNL     1      -2.853  10.399  18.066  0.00  0.00    +0.000 A 
ATOM     18  C   UNL     1      -1.701  10.404  18.861  0.00  0.00    +0.000 A 
ATOM     19  C   UNL     1      -1.519  11.356  19.873  0.00  0.00    +0.000 A 
ENDBRANCH   5   7
BRANCH   1  22
ATOM     20  O   UNL     1       4.458   6.230  17.627  0.00  0.00    +0.000 OA
ATOM     21  C   UNL     1       3.521   5.702  18.213  0.00  0.00    +0.000 C 
ATOM     22  N   UNL     1       2.440   6.341  18.796  0.00  0.00    +0.000 N 
ATOM     23  H   UNL     1       1.846   5.780  19.393  0.00  0.00    +0.000 HD
BRANCH  21  24
ATOM     24  C   UNL     1       3.544   4.230  18.388  0.00  0.00    +0.000 A 
ATOM     25  C   UNL     1       4.279   3.590  19.387  0.00  0.00    +0.000 A 
ATOM     26  C   UNL     1       4.235   2.195  19.476  0.00  0.00    +0.000 A 
ATOM     27  C   UNL     1       3.477   1.499  18.564  0.00  0.00    +0.000 A 
ATOM     28  N   UNL     1       2.742   2.086  17.593  0.00  0.00    +0.000 NA
ATOM     29  C   UNL     1       2.782   3.440  17.535  0.00  0.00    +0.000 A 
ENDBRANCH  21  24
ENDBRANCH   1  22
TORSDOF 3
ENDMDL
MODEL 4
REMARK VINA RESULT:      -8.1      2.832      9.449
REMARK  Name = 
REMARK  3 active torsions:
REMARK  status: ('A' for Active; 'I' for Inactive)
REMARK    1  A    between atoms: C_2  and  C_23
REMARK    2  A    between atoms: N_3  and  C_4
REMARK    3  A    between atoms: C_8  and  C_9
REMARK                            x       y       z     vdW  Elec       q    Type
REMARK                         _______ _______ _______ _____ _____    ______ ____
ROOT
ATOM      1  C   UNL     1       1.845   8.602  18.618  0.00  0.00    +0.000 A 
ATOM      2  C   UNL     1       2.269   9.570  17.708  0.00  0.00    +0.000 A 
ATOM      3  C   UNL     1       2.067  10.935  17.969  0.00  0.00    +0.000 A 
ATOM      4  C   UNL     1       1.425  11.354  19.135  0.00  0.00    +0.000 A 
ATOM      5  C   UNL     1       0.975  10.393  20.038  0.00  0.00    +0.000 A 
ATOM      6  C   UNL     1       1.204   9.025  19.788  0.00  0.00    +0.000 A 
ENDROOT
BRANCH   5   7
ATOM      7  C   UNL     1       0.272  10.749  21.294  0.00  0.00    +0.000 C 
ATOM      8  O   UNL     1       0.606  10.081  22.278  0.00  0.00    +0.000 OA
ATOM      9  N   UNL     1      -0.696  11.791  21.357  0.00  0.00    +0.000 N 
ATOM     10  C   UNL     1      -1.205  12.031  22.742  0.00  0.00    +0.000 C 
ATOM     11  C   UNL     1      -1.352  13.469  23.247  0.00  0.00    +0.000 C 
ATOM     12  C   UNL     1      -2.490  14.254  22.612  0.00  0.00    +0.000 C 
ATOM     13  C   UNL     1      -2.265  14.349  21.126  0.00  0.00    +0.000 C 
ATOM     14  C   UNL     1      -2.617  13.059  20.438  0.00  0.00    +0.000 A 
ATOM     15  C   UNL     1      -3.890  12.947  19.856  0.00  0.00    +0.000 A 
ATOM     16  C   UNL     1      -4.152  11.941  18.939  0.00  0.00    +0.000 A 
ATOM     17  C   UNL     1      -3.122  11.092  18.565  0.00  0.00    +0.000 A 
ATOM     18  C   UNL     1      -1.910  11.110  19.263  0.00  0.00    +0.000 A 
ATOM     19  C   UNL     1      -1.686  12.015  20.310  0.00  0.00    +0.000 A 
ENDBRANCH   5   7
BRANCH   1  22
ATOM     20  O   UNL     1       4.180   7.051  17.613  0.00  0.00    +0.000 OA
ATOM     21  C   UNL     1       3.110   6.549  17.932  0.00  0.00    +0.000 C 
ATOM     22  N   UNL     1       2.000   7.207  18.433  0.00  0.00    +0.000 N 
ATOM     23  H   UNL     1       1.260   6.631  18.815  0.00  0.00    +0.000 HD
BRANCH  21  24
ATOM     24  C   UNL     1       2.973   5.075  17.843  0.00  0.00    +0.000 A 
ATOM     25  C   UNL     1       4.060   4.213  17.696  0.00  0.00    +0.000 A 
ATOM     26  C   UNL     1       3.832   2.835  17.625  0.00  0.00    +0.000 A 
ATOM     27  C   UNL     1       2.537   2.377  17.689  0.00  0.00    +0.000 A 
ATOM     28  N   UNL     1       1.461   3.181  17.845  0.00  0.00    +0.000 NA
ATOM     29  C   UNL     1       1.705   4.512  17.932  0.00  0.00    +0.000 A 
ENDBRANCH  21  24
ENDBRANCH   1  22
TORSDOF 3
ENDMDL
MODEL 5
REMARK VINA RESULT:      -8.1      1.134      1.276
REMARK  Name = 
REMARK  3 active torsions:
REMARK  status: ('A' for Active; 'I' for Inactive)
REMARK    1  A    between atoms: C_2  and  C_23
REMARK    2  A    between atoms: N_3  and  C_4
REMARK    3  A    between atoms: C_8  and  C_9
REMARK                            x       y       z     vdW  Elec       q    Type
REMARK                         _______ _______ _______ _____ _____    ______ ____
ROOT
ATOM      1  C   UNL     1       2.039   6.004  19.991  0.00  0.00    +0.000 A 
ATOM      2  C   UNL     1       1.533   5.219  21.028  0.00  0.00    +0.000 A 
ATOM      3  C   UNL     1       1.755   3.832  21.050  0.00  0.00    +0.000 A 
ATOM      4  C   UNL     1       2.472   3.206  20.030  0.00  0.00    +0.000 A 
ATOM      5  C   UNL     1       2.960   3.977  18.978  0.00  0.00    +0.000 A 
ATOM      6  C   UNL     1       2.760   5.372  18.972  0.00  0.00    +0.000 A 
ENDROOT
BRANCH   5   7
ATOM      7  C   UNL     1       3.719   3.391  17.846  0.00  0.00    +0.000 C 
ATOM      8  O   UNL     1       3.443   2.213  17.598  0.00  0.00    +0.000 OA
ATOM      9  N   UNL     1       4.674   4.138  17.101  0.00  0.00    +0.000 N 
ATOM     10  C   UNL     1       5.247   3.370  15.953  0.00  0.00    +0.000 C 
ATOM     11  C   UNL     1       5.398   4.058  14.593  0.00  0.00    +0.000 C 
ATOM     12  C   UNL     1       6.492   5.112  14.530  0.00  0.00    +0.000 C 
ATOM     13  C   UNL     1       6.193   6.203  15.525  0.00  0.00    +0.000 C 
ATOM     14  C   UNL     1       6.530   5.771  16.926  0.00  0.00    +0.000 A 
ATOM     15  C   UNL     1       7.774   6.152  17.454  0.00  0.00    +0.000 A 
ATOM     16  C   UNL     1       8.004   6.079  18.819  0.00  0.00    +0.000 A 
ATOM     17  C   UNL     1       6.970   5.684  19.652  0.00  0.00    +0.000 A 
ATOM     18  C   UNL     1       5.793   5.158  19.108  0.00  0.00    +0.000 A 
ATOM     19  C   UNL     1       5.608   5.069  17.721  0.00  0.00    +0.000 A 
ENDBRANCH   5   7
BRANCH   1  22
ATOM     20  O   UNL     1       0.386   7.851  21.641  0.00  0.00    +0.000 OA
ATOM     21  C   UNL     1       1.047   8.203  20.673  0.00  0.00    +0.000 C 
ATOM     22  N   UNL     1       1.858   7.403  19.885  0.00  0.00    +0.000 N 
ATOM     23  H   UNL     1       2.473   7.876  19.235  0.00  0.00    +0.000 HD
BRANCH  21  24
ATOM     24  C   UNL     1       1.053   9.641  20.313  0.00  0.00    +0.000 A 
ATOM     25  C   UNL     1       1.208  10.102  19.005  0.00  0.00    +0.000 A 
ATOM     26  C   UNL     1       1.197  11.479  18.762  0.00  0.00    +0.000 A 
ATOM     27  C   UNL     1       1.045  12.335  19.828  0.00  0.00    +0.000 A 
ATOM     28  N   UNL     1       0.879  11.925  21.105  0.00  0.00    +0.000 NA
ATOM     29  C   UNL     1       0.873  10.585  21.317  0.00  0.00    +0.000 A 
ENDBRANCH  21  24
ENDBRANCH   1  22
TORSDOF 3
ENDMDL
MODEL 6
REMARK VINA RESULT:      -8.1      1.017      1.197
REMARK  Name = 
REMARK  3 active torsions:
REMARK  status: ('A' for Active; 'I' for Inactive)
REMARK    1  A    between atoms: C_2  and  C_23
REMARK    2  A    between atoms: N_3  and  C_4
REMARK    3  A    between atoms: C_8  and  C_9
REMARK                            x       y       z     vdW  Elec       q    Type
REMARK                         _______ _______ _______ _____ _____    ______ ____
ROOT
ATOM      1  C   UNL     1       2.064   5.530  20.204  0.00  0.00    +0.000 A 
ATOM      2  C   UNL     1       1.811   4.691  21.289  0.00  0.00    +0.000 A 
ATOM      3  C   UNL     1       2.273   3.364  21.291  0.00  0.00    +0.000 A 
ATOM      4  C   UNL     1       2.980   2.851  20.203  0.00  0.00    +0.000 A 
ATOM      5  C   UNL     1       3.216   3.674  19.104  0.00  0.00    +0.000 A 
ATOM      6  C   UNL     1       2.776   5.013  19.116  0.00  0.00    +0.000 A 
ENDROOT
BRANCH   5   7
ATOM      7  C   UNL     1       3.947   3.206  17.902  0.00  0.00    +0.000 C 
ATOM      8  O   UNL     1       3.767   2.017  17.622  0.00  0.00    +0.000 OA
ATOM      9  N   UNL     1       4.772   4.069  17.128  0.00  0.00    +0.000 N 
ATOM     10  C   UNL     1       5.334   3.402  15.912  0.00  0.00    +0.000 C 
ATOM     11  C   UNL     1       5.325   4.151  14.576  0.00  0.00    +0.000 C 
ATOM     12  C   UNL     1       6.307   5.308  14.487  0.00  0.00    +0.000 C 
ATOM     13  C   UNL     1       5.976   6.328  15.545  0.00  0.00    +0.000 C 
ATOM     14  C   UNL     1       6.448   5.880  16.901  0.00  0.00    +0.000 A 
ATOM     15  C   UNL     1       7.684   6.361  17.362  0.00  0.00    +0.000 A 
ATOM     16  C   UNL     1       8.015   6.261  18.704  0.00  0.00    +0.000 A 
ATOM     17  C   UNL     1       7.084   5.738  19.586  0.00  0.00    +0.000 A 
ATOM     18  C   UNL     1       5.927   5.120  19.098  0.00  0.00    +0.000 A 
ATOM     19  C   UNL     1       5.655   5.064  17.724  0.00  0.00    +0.000 A 
ENDBRANCH   5   7
BRANCH   1  22
ATOM     20  O   UNL     1       2.485   7.537  18.045  0.00  0.00    +0.000 OA
ATOM     21  C   UNL     1       1.886   7.768  19.088  0.00  0.00    +0.000 C 
ATOM     22  N   UNL     1       1.630   6.874  20.114  0.00  0.00    +0.000 N 
ATOM     23  H   UNL     1       0.972   7.170  20.824  0.00  0.00    +0.000 HD
BRANCH  21  24
ATOM     24  C   UNL     1       1.306   9.119  19.280  0.00  0.00    +0.000 A 
ATOM     25  C   UNL     1       0.246   9.381  20.148  0.00  0.00    +0.000 A 
ATOM     26  C   UNL     1      -0.232  10.690  20.265  0.00  0.00    +0.000 A 
ATOM     27  C   UNL     1       0.355  11.676  19.506  0.00  0.00    +0.000 A 
ATOM     28  N   UNL     1       1.392  11.462  18.666  0.00  0.00    +0.000 NA
ATOM     29  C   UNL     1       1.853  10.189  18.581  0.00  0.00    +0.000 A 
ENDBRANCH  21  24
ENDBRANCH   1  22
TORSDOF 3
ENDMDL
MODEL 7
REMARK VINA RESULT:      -8.1      2.363      4.841
REMARK  Name = 
REMARK  3 active torsions:
REMARK  status: ('A' for Active; 'I' for Inactive)
REMARK    1  A    between atoms: C_2  and  C_23
REMARK    2  A    between atoms: N_3  and  C_4
REMARK    3  A    between atoms: C_8  and  C_9
REMARK                            x       y       z     vdW  Elec       q    Type
REMARK                         _______ _______ _______ _____ _____    ______ ____
ROOT
ATOM      1  C   UNL     1       1.109   9.912  19.735  0.00  0.00    +0.000 A 
ATOM      2  C   UNL     1       1.469  10.225  18.424  0.00  0.00    +0.000 A 
ATOM      3  C   UNL     1       2.018   9.246  17.579  0.00  0.00    +0.000 A 
ATOM      4  C   UNL     1       2.230   7.944  18.035  0.00  0.00    +0.000 A 
ATOM      5  C   UNL     1       1.897   7.629  19.351  0.00  0.00    +0.000 A 
ATOM      6  C   UNL     1       1.320   8.605  20.188  0.00  0.00    +0.000 A 
ENDROOT
BRANCH   5   7
ATOM      7  C   UNL     1       2.102   6.275  19.921  0.00  0.00    +0.000 C 
ATOM      8  O   UNL     1       1.909   6.195  21.138  0.00  0.00    +0.000 OA
ATOM      9  N   UNL     1       2.472   5.159  19.120  0.00  0.00    +0.000 N 
ATOM     10  C   UNL     1       2.533   3.880  19.894  0.00  0.00    +0.000 C 
ATOM     11  C   UNL     1       1.922   2.611  19.292  0.00  0.00    +0.000 C 
ATOM     12  C   UNL     1       2.695   2.025  18.120  0.00  0.00    +0.000 C 
ATOM     13  C   UNL     1       2.755   3.036  17.005  0.00  0.00    +0.000 C 
ATOM     14  C   UNL     1       3.773   4.105  17.292  0.00  0.00    +0.000 A 
ATOM     15  C   UNL     1       5.051   3.969  16.727  0.00  0.00    +0.000 A 
ATOM     16  C   UNL     1       5.910   5.056  16.673  0.00  0.00    +0.000 A 
ATOM     17  C   UNL     1       5.462   6.285  17.129  0.00  0.00    +0.000 A 
ATOM     18  C   UNL     1       4.255   6.376  17.831  0.00  0.00    +0.000 A 
ATOM     19  C   UNL     1       3.448   5.249  18.041  0.00  0.00    +0.000 A 
ENDBRANCH   5   7
BRANCH   1  22
ATOM     20  O   UNL     1      -1.565  11.223  19.764  0.00  0.00    +0.000 OA
ATOM     21  C   UNL     1      -0.689  11.431  20.595  0.00  0.00    +0.000 C 
ATOM     22  N   UNL     1       0.558  10.835  20.655  0.00  0.00    +0.000 N 
ATOM     23  H   UNL     1       1.095  10.982  21.501  0.00  0.00    +0.000 HD
BRANCH  21  24
ATOM     24  C   UNL     1      -0.985  12.371  21.704  0.00  0.00    +0.000 A 
ATOM     25  C   UNL     1      -2.104  12.254  22.528  0.00  0.00    +0.000 A 
ATOM     26  C   UNL     1      -2.297  13.188  23.551  0.00  0.00    +0.000 A 
ATOM     27  C   UNL     1      -1.379  14.201  23.701  0.00  0.00    +0.000 A 
ATOM     28  N   UNL     1      -0.277  14.337  22.930  0.00  0.00    +0.000 NA
ATOM     29  C   UNL     1      -0.098  13.411  21.957  0.00  0.00    +0.000 A 
ENDBRANCH  21  24
ENDBRANCH   1  22
TORSDOF 3
ENDMDL
MODEL 8
REMARK VINA RESULT:      -8.0      3.092      9.759
REMARK  Name = 
REMARK  3 active torsions:
REMARK  status: ('A' for Active; 'I' for Inactive)
REMARK    1  A    between atoms: C_2  and  C_23
REMARK    2  A    between atoms: N_3  and  C_4
REMARK    3  A    between atoms: C_8  and  C_9
REMARK                            x       y       z     vdW  Elec       q    Type
REMARK                         _______ _______ _______ _____ _____    ______ ____
ROOT
ATOM      1  C   UNL     1       1.866   9.676  18.573  0.00  0.00    +0.000 A 
ATOM      2  C   UNL     1       2.313  10.819  17.909  0.00  0.00    +0.000 A 
ATOM      3  C   UNL     1       1.961  12.098  18.370  0.00  0.00    +0.000 A 
ATOM      4  C   UNL     1       1.146  12.256  19.491  0.00  0.00    +0.000 A 
ATOM      5  C   UNL     1       0.674  11.120  20.146  0.00  0.00    +0.000 A 
ATOM      6  C   UNL     1       1.052   9.838  19.699  0.00  0.00    +0.000 A 
ENDROOT
BRANCH   5   7
ATOM      7  C   UNL     1      -0.208  11.196  21.336  0.00  0.00    +0.000 C 
ATOM      8  O   UNL     1       0.158  10.505  22.292  0.00  0.00    +0.000 OA
ATOM      9  N   UNL     1      -1.369  12.016  21.372  0.00  0.00    +0.000 N 
ATOM     10  C   UNL     1      -2.051  12.004  22.704  0.00  0.00    +0.000 C 
ATOM     11  C   UNL     1      -2.539  13.324  23.307  0.00  0.00    +0.000 C 
ATOM     12  C   UNL     1      -3.746  13.935  22.612  0.00  0.00    +0.000 C 
ATOM     13  C   UNL     1      -3.400  14.229  21.176  0.00  0.00    +0.000 C 
ATOM     14  C   UNL     1      -3.411  12.976  20.344  0.00  0.00    +0.000 A 
ATOM     15  C   UNL     1      -4.570  12.681  19.609  0.00  0.00    +0.000 A 
ATOM     16  C   UNL     1      -4.528  11.746  18.586  0.00  0.00    +0.000 A 
ATOM     17  C   UNL     1      -3.315  11.159  18.265  0.00  0.00    +0.000 A 
ATOM     18  C   UNL     1      -2.206  11.338  19.100  0.00  0.00    +0.000 A 
ATOM     19  C   UNL     1      -2.277  12.153  20.239  0.00  0.00    +0.000 A 
ENDBRANCH   5   7
BRANCH   1  22
ATOM     20  O   UNL     1       2.297   7.233  20.221  0.00  0.00    +0.000 OA
ATOM     21  C   UNL     1       2.381   7.260  18.999  0.00  0.00    +0.000 C 
ATOM     22  N   UNL     1       2.165   8.351  18.175  0.00  0.00    +0.000 N 
ATOM     23  H   UNL     1       2.100   8.167  17.182  0.00  0.00    +0.000 HD
BRANCH  21  24
ATOM     24  C   UNL     1       2.687   5.994  18.289  0.00  0.00    +0.000 A 
ATOM     25  C   UNL     1       1.806   4.914  18.237  0.00  0.00    +0.000 A 
ATOM     26  C   UNL     1       2.181   3.761  17.540  0.00  0.00    +0.000 A 
ATOM     27  C   UNL     1       3.418   3.728  16.938  0.00  0.00    +0.000 A 
ATOM     28  N   UNL     1       4.292   4.760  16.957  0.00  0.00    +0.000 NA
ATOM     29  C   UNL     1       3.901   5.875  17.622  0.00  0.00    +0.000 A 
ENDBRANCH  21  24
ENDBRANCH   1  22
TORSDOF 3
ENDMDL
MODEL 9
REMARK VINA RESULT:      -7.9      3.374      5.560
REMARK  Name = 
REMARK  3 active torsions:
REMARK  status: ('A' for Active; 'I' for Inactive)
REMARK    1  A    between atoms: C_2  and  C_23
REMARK    2  A    between atoms: N_3  and  C_4
REMARK    3  A    between atoms: C_8  and  C_9
REMARK                            x       y       z     vdW  Elec       q    Type
REMARK                         _______ _______ _______ _____ _____    ______ ____
ROOT
ATOM      1  C   UNL     1      -0.473   9.632  19.736  0.00  0.00    +0.000 A 
ATOM      2  C   UNL     1      -0.169   9.486  21.090  0.00  0.00    +0.000 A 
ATOM      3  C   UNL     1       1.050   8.915  21.492  0.00  0.00    +0.000 A 
ATOM      4  C   UNL     1       1.977   8.467  20.549  0.00  0.00    +0.000 A 
ATOM      5  C   UNL     1       1.671   8.586  19.195  0.00  0.00    +0.000 A 
ATOM      6  C   UNL     1       0.460   9.185  18.794  0.00  0.00    +0.000 A 
ENDROOT
BRANCH   5   7
ATOM      7  C   UNL     1       2.591   8.124  18.128  0.00  0.00    +0.000 C 
ATOM      8  O   UNL     1       2.506   8.753  17.068  0.00  0.00    +0.000 OA
ATOM      9  N   UNL     1       3.509   7.055  18.323  0.00  0.00    +0.000 N 
ATOM     10  C   UNL     1       4.397   6.825  17.142  0.00  0.00    +0.000 C 
ATOM     11  C   UNL     1       5.893   6.587  17.365  0.00  0.00    +0.000 C 
ATOM     12  C   UNL     1       6.239   5.240  17.981  0.00  0.00    +0.000 C 
ATOM     13  C   UNL     1       5.587   5.126  19.333  0.00  0.00    +0.000 C 
ATOM     14  C   UNL     1       4.119   4.821  19.207  0.00  0.00    +0.000 A 
ATOM     15  C   UNL     1       3.711   3.482  19.318  0.00  0.00    +0.000 A 
ATOM     16  C   UNL     1       2.378   3.176  19.543  0.00  0.00    +0.000 A 
ATOM     17  C   UNL     1       1.474   4.211  19.717  0.00  0.00    +0.000 A 
ATOM     18  C   UNL     1       1.857   5.530  19.449  0.00  0.00    +0.000 A 
ATOM     19  C   UNL     1       3.166   5.842  19.056  0.00  0.00    +0.000 A 
ENDBRANCH   5   7
BRANCH   1  22
ATOM     20  O   UNL     1      -1.354  12.473  19.594  0.00  0.00    +0.000 OA
ATOM     21  C   UNL     1      -2.038  11.524  19.230  0.00  0.00    +0.000 C 
ATOM     22  N   UNL     1      -1.677  10.188  19.242  0.00  0.00    +0.000 N 
ATOM     23  H   UNL     1      -2.283   9.547  18.745  0.00  0.00    +0.000 HD
BRANCH  21  24
ATOM     24  C   UNL     1      -3.376  11.803  18.656  0.00  0.00    +0.000 A 
ATOM     25  C   UNL     1      -4.413  12.392  19.381  0.00  0.00    +0.000 A 
ATOM     26  C   UNL     1      -5.640  12.619  18.752  0.00  0.00    +0.000 A 
ATOM     27  C   UNL     1      -5.788  12.241  17.438  0.00  0.00    +0.000 A 
ATOM     28  N   UNL     1      -4.803  11.680  16.701  0.00  0.00    +0.000 NA
ATOM     29  C   UNL     1      -3.614  11.486  17.323  0.00  0.00    +0.000 A 
ENDBRANCH  21  24
ENDBRANCH   1  22
TORSDOF 3
ENDMDL
