MODEL 1
REMARK VINA RESULT:      -9.2      0.000      0.000
REMARK  Name = 
REMARK  4 active torsions:
REMARK  status: ('A' for Active; 'I' for Inactive)
REMARK    1  A    between atoms: C_1  and  C_2
REMARK    2  A    between atoms: C_4  and  C_5
REMARK    3  A    between atoms: N_7  and  C_8
REMARK    4  A    between atoms: C_12  and  C_13
REMARK                            x       y       z     vdW  Elec       q    Type
REMARK                         _______ _______ _______ _____ _____    ______ ____
ROOT
ATOM      1  C   UNL     1       4.543   4.851  17.126  0.00  0.00    +0.000 A 
ATOM      2  C   UNL     1       4.959   4.383  15.875  0.00  0.00    +0.000 A 
ATOM      3  C   UNL     1       6.224   4.680  15.375  0.00  0.00    +0.000 A 
ATOM      4  C   UNL     1       7.090   5.477  16.112  0.00  0.00    +0.000 A 
ATOM      5  C   UNL     1       6.679   6.035  17.333  0.00  0.00    +0.000 A 
ATOM      6  C   UNL     1       5.401   5.710  17.841  0.00  0.00    +0.000 A 
ENDROOT
BRANCH   5   7
ATOM      7  C   UNL     1       7.600   6.966  18.094  0.00  0.00    +0.000 C 
ATOM      8  O   UNL     1       8.179   6.543  19.086  0.00  0.00    +0.000 OA
ATOM      9  N   UNL     1       7.644   8.244  17.572  0.00  0.00    +0.000 N 
ATOM     10  C   UNL     1       8.367   9.310  18.052  0.00  0.00    +0.000 A 
ATOM     11  N   UNL     1       9.241   9.416  19.028  0.00  0.00    +0.000 NA
ATOM     12  C   UNL     1       9.526  10.772  19.133  0.00  0.00    +0.000 A 
ATOM     13  C   UNL     1      10.345  11.480  20.030  0.00  0.00    +0.000 A 
ATOM     14  C   UNL     1      10.364  12.885  19.964  0.00  0.00    +0.000 A 
ATOM     15  C   UNL     1       9.604  13.574  19.014  0.00  0.00    +0.000 A 
ATOM     16  C   UNL     1       8.829  12.886  18.079  0.00  0.00    +0.000 A 
ATOM     17  C   UNL     1       8.822  11.494  18.178  0.00  0.00    +0.000 A 
ATOM     18  N   UNL     1       8.182  10.532  17.449  0.00  0.00    +0.000 N 
ATOM     19  H   UNL     1       6.991   8.460  16.834  0.00  0.00    +0.000 HD
ATOM     20  H   UNL     1       7.606  10.705  16.643  0.00  0.00    +0.000 HD
ENDBRANCH   5   7
BRANCH   1  23
ATOM     21  C   UNL     1       3.091   3.437  18.581  0.00  0.00    +0.000 C 
ATOM     22  O   UNL     1       3.955   2.718  19.061  0.00  0.00    +0.000 OA
ATOM     23  N   UNL     1       3.289   4.479  17.682  0.00  0.00    +0.000 N 
ATOM     24  H   UNL     1       2.499   5.076  17.478  0.00  0.00    +0.000 HD
BRANCH  21  28
ATOM     25  C   UNL     1       1.741   5.246  20.716  0.00  0.00    +0.000 C 
ATOM     26  C   UNL     1       1.018   4.107  20.074  0.00  0.00    +0.000 C 
ATOM     27  C   UNL     1       1.393   2.690  20.408  0.00  0.00    +0.000 C 
ATOM     28  C   UNL     1       1.669   3.232  19.012  0.00  0.00    +0.000 C 
ENDBRANCH  21  28
ENDBRANCH   1  23
TORSDOF 3
ENDMDL
MODEL 2
REMARK VINA RESULT:      -8.4      1.085      1.287
REMARK  Name = 
REMARK  4 active torsions:
REMARK  status: ('A' for Active; 'I' for Inactive)
REMARK    1  A    between atoms: C_1  and  C_2
REMARK    2  A    between atoms: C_4  and  C_5
REMARK    3  A    between atoms: N_7  and  C_8
REMARK    4  A    between atoms: C_12  and  C_13
REMARK                            x       y       z     vdW  Elec       q    Type
REMARK                         _______ _______ _______ _____ _____    ______ ____
ROOT
ATOM      1  C   UNL     1       5.029   4.689  17.978  0.00  0.00    +0.000 A 
ATOM      2  C   UNL     1       4.777   4.772  16.604  0.00  0.00    +0.000 A 
ATOM      3  C   UNL     1       5.525   5.607  15.779  0.00  0.00    +0.000 A 
ATOM      4  C   UNL     1       6.528   6.399  16.323  0.00  0.00    +0.000 A 
ATOM      5  C   UNL     1       6.756   6.408  17.709  0.00  0.00    +0.000 A 
ATOM      6  C   UNL     1       6.004   5.541  18.534  0.00  0.00    +0.000 A 
ENDROOT
BRANCH   5   7
ATOM      7  C   UNL     1       7.798   7.331  18.304  0.00  0.00    +0.000 C 
ATOM      8  O   UNL     1       8.549   6.897  19.167  0.00  0.00    +0.000 OA
ATOM      9  N   UNL     1       7.744   8.617  17.802  0.00  0.00    +0.000 N 
ATOM     10  C   UNL     1       8.540   9.679  18.159  0.00  0.00    +0.000 A 
ATOM     11  N   UNL     1       9.577   9.775  18.961  0.00  0.00    +0.000 NA
ATOM     12  C   UNL     1       9.874  11.130  19.033  0.00  0.00    +0.000 A 
ATOM     13  C   UNL     1      10.842  11.829  19.778  0.00  0.00    +0.000 A 
ATOM     14  C   UNL     1      10.846  13.235  19.730  0.00  0.00    +0.000 A 
ATOM     15  C   UNL     1       9.924  13.934  18.946  0.00  0.00    +0.000 A 
ATOM     16  C   UNL     1       8.993  13.257  18.157  0.00  0.00    +0.000 A 
ATOM     17  C   UNL     1       9.007  11.863  18.234  0.00  0.00    +0.000 A 
ATOM     18  N   UNL     1       8.247  10.909  17.619  0.00  0.00    +0.000 N 
ATOM     19  H   UNL     1       6.968   8.842  17.198  0.00  0.00    +0.000 HD
ATOM     20  H   UNL     1       7.533  11.092  16.934  0.00  0.00    +0.000 HD
ENDBRANCH   5   7
BRANCH   1  23
ATOM     21  C   UNL     1       3.345   4.120  19.728  0.00  0.00    +0.000 C 
ATOM     22  O   UNL     1       2.901   5.242  19.928  0.00  0.00    +0.000 OA
ATOM     23  N   UNL     1       4.331   3.774  18.810  0.00  0.00    +0.000 N 
ATOM     24  H   UNL     1       4.499   2.788  18.656  0.00  0.00    +0.000 HD
BRANCH  21  28
ATOM     25  C   UNL     1       0.830   2.580  18.752  0.00  0.00    +0.000 C 
ATOM     26  C   UNL     1       1.521   2.235  20.031  0.00  0.00    +0.000 C 
ATOM     27  C   UNL     1       1.432   3.161  21.211  0.00  0.00    +0.000 C 
ATOM     28  C   UNL     1       2.766   2.972  20.501  0.00  0.00    +0.000 C 
ENDBRANCH  21  28
ENDBRANCH   1  23
TORSDOF 3
ENDMDL
MODEL 3
REMARK VINA RESULT:      -8.2      5.306      7.547
REMARK  Name = 
REMARK  4 active torsions:
REMARK  status: ('A' for Active; 'I' for Inactive)
REMARK    1  A    between atoms: C_1  and  C_2
REMARK    2  A    between atoms: C_4  and  C_5
REMARK    3  A    between atoms: N_7  and  C_8
REMARK    4  A    between atoms: C_12  and  C_13
REMARK                            x       y       z     vdW  Elec       q    Type
REMARK                         _______ _______ _______ _____ _____    ______ ____
ROOT
ATOM      1  C   UNL     1       5.225   4.519  16.852  0.00  0.00    +0.000 A 
ATOM      2  C   UNL     1       6.022   4.153  17.942  0.00  0.00    +0.000 A 
ATOM      3  C   UNL     1       5.829   4.715  19.201  0.00  0.00    +0.000 A 
ATOM      4  C   UNL     1       4.844   5.678  19.386  0.00  0.00    +0.000 A 
ATOM      5  C   UNL     1       4.080   6.133  18.299  0.00  0.00    +0.000 A 
ATOM      6  C   UNL     1       4.271   5.540  17.029  0.00  0.00    +0.000 A 
ENDROOT
BRANCH   5   7
ATOM      7  C   UNL     1       3.063   7.237  18.492  0.00  0.00    +0.000 C 
ATOM      8  O   UNL     1       2.852   8.015  17.571  0.00  0.00    +0.000 OA
ATOM      9  N   UNL     1       2.502   7.253  19.754  0.00  0.00    +0.000 N 
ATOM     10  C   UNL     1       1.571   8.143  20.235  0.00  0.00    +0.000 A 
ATOM     11  N   UNL     1       0.909   9.124  19.663  0.00  0.00    +0.000 NA
ATOM     12  C   UNL     1       0.217   9.758  20.686  0.00  0.00    +0.000 A 
ATOM     13  C   UNL     1      -0.608  10.899  20.680  0.00  0.00    +0.000 A 
ATOM     14  C   UNL     1      -1.103  11.382  21.905  0.00  0.00    +0.000 A 
ATOM     15  C   UNL     1      -0.805  10.738  23.109  0.00  0.00    +0.000 A 
ATOM     16  C   UNL     1      -0.035   9.573  23.130  0.00  0.00    +0.000 A 
ATOM     17  C   UNL     1       0.450   9.125  21.900  0.00  0.00    +0.000 A 
ATOM     18  N   UNL     1       1.224   8.051  21.562  0.00  0.00    +0.000 N 
ATOM     19  H   UNL     1       2.896   6.626  20.439  0.00  0.00    +0.000 HD
ATOM     20  H   UNL     1       1.549   7.348  22.205  0.00  0.00    +0.000 HD
ENDBRANCH   5   7
BRANCH   1  23
ATOM     21  C   UNL     1       6.392   4.109  14.685  0.00  0.00    +0.000 C 
ATOM     22  O   UNL     1       7.359   4.839  14.856  0.00  0.00    +0.000 OA
ATOM     23  N   UNL     1       5.357   3.886  15.586  0.00  0.00    +0.000 N 
ATOM     24  H   UNL     1       4.698   3.151  15.367  0.00  0.00    +0.000 HD
BRANCH  21  28
ATOM     25  C   UNL     1       7.541   5.192  12.010  0.00  0.00    +0.000 C 
ATOM     26  C   UNL     1       6.846   3.873  12.094  0.00  0.00    +0.000 C 
ATOM     27  C   UNL     1       5.360   3.815  12.313  0.00  0.00    +0.000 C 
ATOM     28  C   UNL     1       6.301   3.329  13.407  0.00  0.00    +0.000 C 
ENDBRANCH  21  28
ENDBRANCH   1  23
TORSDOF 3
ENDMDL
MODEL 4
REMARK VINA RESULT:      -7.7      5.183      7.547
REMARK  Name = 
REMARK  4 active torsions:
REMARK  status: ('A' for Active; 'I' for Inactive)
REMARK    1  A    between atoms: C_1  and  C_2
REMARK    2  A    between atoms: C_4  and  C_5
REMARK    3  A    between atoms: N_7  and  C_8
REMARK    4  A    between atoms: C_12  and  C_13
REMARK                            x       y       z     vdW  Elec       q    Type
REMARK                         _______ _______ _______ _____ _____    ______ ____
ROOT
ATOM      1  C   UNL     1       5.665   5.527  16.158  0.00  0.00    +0.000 A 
ATOM      2  C   UNL     1       6.208   4.773  17.205  0.00  0.00    +0.000 A 
ATOM      3  C   UNL     1       5.716   4.877  18.503  0.00  0.00    +0.000 A 
ATOM      4  C   UNL     1       4.683   5.762  18.783  0.00  0.00    +0.000 A 
ATOM      5  C   UNL     1       4.168   6.598  17.777  0.00  0.00    +0.000 A 
ATOM      6  C   UNL     1       4.661   6.468  16.459  0.00  0.00    +0.000 A 
ENDROOT
BRANCH   5   7
ATOM      7  C   UNL     1       3.096   7.614  18.107  0.00  0.00    +0.000 C 
ATOM      8  O   UNL     1       2.789   8.444  17.261  0.00  0.00    +0.000 OA
ATOM      9  N   UNL     1       2.603   7.497  19.392  0.00  0.00    +0.000 N 
ATOM     10  C   UNL     1       1.645   8.284  19.986  0.00  0.00    +0.000 A 
ATOM     11  N   UNL     1       0.894   9.260  19.526  0.00  0.00    +0.000 NA
ATOM     12  C   UNL     1       0.220   9.768  20.629  0.00  0.00    +0.000 A 
ATOM     13  C   UNL     1      -0.673  10.848  20.753  0.00  0.00    +0.000 A 
ATOM     14  C   UNL     1      -1.132  11.203  22.035  0.00  0.00    +0.000 A 
ATOM     15  C   UNL     1      -0.730  10.490  23.168  0.00  0.00    +0.000 A 
ATOM     16  C   UNL     1       0.110   9.381  23.059  0.00  0.00    +0.000 A 
ATOM     17  C   UNL     1       0.556   9.061  21.775  0.00  0.00    +0.000 A 
ATOM     18  N   UNL     1       1.376   8.069  21.317  0.00  0.00    +0.000 N 
ATOM     19  H   UNL     1       3.071   6.847  20.005  0.00  0.00    +0.000 HD
ATOM     20  H   UNL     1       1.778   7.343  21.885  0.00  0.00    +0.000 HD
ENDBRANCH   5   7
BRANCH   1  23
ATOM     21  C   UNL     1       6.205   4.143  14.153  0.00  0.00    +0.000 C 
ATOM     22  O   UNL     1       5.899   3.046  14.599  0.00  0.00    +0.000 OA
ATOM     23  N   UNL     1       6.101   5.361  14.816  0.00  0.00    +0.000 N 
ATOM     24  H   UNL     1       6.259   6.201  14.275  0.00  0.00    +0.000 HD
BRANCH  21  28
ATOM     25  C   UNL     1       4.439   3.333  11.729  0.00  0.00    +0.000 C 
ATOM     26  C   UNL     1       5.845   3.810  11.559  0.00  0.00    +0.000 C 
ATOM     27  C   UNL     1       6.994   2.940  11.984  0.00  0.00    +0.000 C 
ATOM     28  C   UNL     1       6.705   4.228  12.742  0.00  0.00    +0.000 C 
ENDBRANCH  21  28
ENDBRANCH   1  23
TORSDOF 3
ENDMDL
MODEL 5
REMARK VINA RESULT:      -7.6      6.218     10.129
REMARK  Name = 
REMARK  4 active torsions:
REMARK  status: ('A' for Active; 'I' for Inactive)
REMARK    1  A    between atoms: C_1  and  C_2
REMARK    2  A    between atoms: C_4  and  C_5
REMARK    3  A    between atoms: N_7  and  C_8
REMARK    4  A    between atoms: C_12  and  C_13
REMARK                            x       y       z     vdW  Elec       q    Type
REMARK                         _______ _______ _______ _____ _____    ______ ____
ROOT
ATOM      1  C   UNL     1      -0.292  11.941  21.650  0.00  0.00    +0.000 A 
ATOM      2  C   UNL     1      -0.814  11.359  22.811  0.00  0.00    +0.000 A 
ATOM      3  C   UNL     1      -0.603  10.015  23.104  0.00  0.00    +0.000 A 
ATOM      4  C   UNL     1       0.116   9.218  22.223  0.00  0.00    +0.000 A 
ATOM      5  C   UNL     1       0.584   9.744  21.007  0.00  0.00    +0.000 A 
ATOM      6  C   UNL     1       0.382  11.115  20.729  0.00  0.00    +0.000 A 
ENDROOT
BRANCH   5   7
ATOM      7  C   UNL     1       1.300   8.851  20.016  0.00  0.00    +0.000 C 
ATOM      8  O   UNL     1       1.425   9.232  18.860  0.00  0.00    +0.000 OA
ATOM      9  N   UNL     1       1.706   7.646  20.556  0.00  0.00    +0.000 N 
ATOM     10  C   UNL     1       2.356   6.625  19.904  0.00  0.00    +0.000 A 
ATOM     11  N   UNL     1       2.836   6.518  18.685  0.00  0.00    +0.000 NA
ATOM     12  C   UNL     1       3.255   5.201  18.558  0.00  0.00    +0.000 A 
ATOM     13  C   UNL     1       3.797   4.501  17.464  0.00  0.00    +0.000 A 
ATOM     14  C   UNL     1       4.038   3.121  17.596  0.00  0.00    +0.000 A 
ATOM     15  C   UNL     1       3.767   2.452  18.793  0.00  0.00    +0.000 A 
ATOM     16  C   UNL     1       3.283   3.139  19.907  0.00  0.00    +0.000 A 
ATOM     17  C   UNL     1       3.044   4.505  19.741  0.00  0.00    +0.000 A 
ATOM     18  N   UNL     1       2.572   5.458  20.599  0.00  0.00    +0.000 N 
ATOM     19  H   UNL     1       1.393   7.434  21.491  0.00  0.00    +0.000 HD
ATOM     20  H   UNL     1       2.348   5.304  21.568  0.00  0.00    +0.000 HD
ENDBRANCH   5   7
BRANCH   1  23
ATOM     21  C   UNL     1       0.541  14.293  21.657  0.00  0.00    +0.000 C 
ATOM     22  O   UNL     1       1.658  14.092  22.113  0.00  0.00    +0.000 OA
ATOM     23  N   UNL     1      -0.426  13.331  21.388  0.00  0.00    +0.000 N 
ATOM     24  H   UNL     1      -1.251  13.628  20.883  0.00  0.00    +0.000 HD
BRANCH  21  28
ATOM     25  C   UNL     1      -0.159  15.124  18.747  0.00  0.00    +0.000 C 
ATOM     26  C   UNL     1      -0.166  16.107  19.872  0.00  0.00    +0.000 C 
ATOM     27  C   UNL     1       1.128  16.548  20.497  0.00  0.00    +0.000 C 
ATOM     28  C   UNL     1       0.155  15.699  21.303  0.00  0.00    +0.000 C 
ENDBRANCH  21  28
ENDBRANCH   1  23
TORSDOF 3
ENDMDL
MODEL 6
REMARK VINA RESULT:      -7.6      6.943      9.072
REMARK  Name = 
REMARK  4 active torsions:
REMARK  status: ('A' for Active; 'I' for Inactive)
REMARK    1  A    between atoms: C_1  and  C_2
REMARK    2  A    between atoms: C_4  and  C_5
REMARK    3  A    between atoms: N_7  and  C_8
REMARK    4  A    between atoms: C_12  and  C_13
REMARK                            x       y       z     vdW  Elec       q    Type
REMARK                         _______ _______ _______ _____ _____    ______ ____
ROOT
ATOM      1  C   UNL     1       2.218   7.198  19.728  0.00  0.00    +0.000 A 
ATOM      2  C   UNL     1       2.462   7.376  18.362  0.00  0.00    +0.000 A 
ATOM      3  C   UNL     1       2.128   8.563  17.716  0.00  0.00    +0.000 A 
ATOM      4  C   UNL     1       1.517   9.589  18.426  0.00  0.00    +0.000 A 
ATOM      5  C   UNL     1       1.179   9.417  19.778  0.00  0.00    +0.000 A 
ATOM      6  C   UNL     1       1.542   8.216  20.429  0.00  0.00    +0.000 A 
ENDROOT
BRANCH   5   7
ATOM      7  C   UNL     1       0.444  10.510  20.525  0.00  0.00    +0.000 C 
ATOM      8  O   UNL     1       0.899  10.908  21.589  0.00  0.00    +0.000 OA
ATOM      9  N   UNL     1      -0.721  10.913  19.902  0.00  0.00    +0.000 N 
ATOM     10  C   UNL     1      -1.609  11.865  20.344  0.00  0.00    +0.000 A 
ATOM     11  N   UNL     1      -1.586  12.686  21.370  0.00  0.00    +0.000 NA
ATOM     12  C   UNL     1      -2.827  13.310  21.381  0.00  0.00    +0.000 A 
ATOM     13  C   UNL     1      -3.389  14.240  22.275  0.00  0.00    +0.000 A 
ATOM     14  C   UNL     1      -4.728  14.630  22.092  0.00  0.00    +0.000 A 
ATOM     15  C   UNL     1      -5.489  14.125  21.034  0.00  0.00    +0.000 A 
ATOM     16  C   UNL     1      -4.932  13.246  20.105  0.00  0.00    +0.000 A 
ATOM     17  C   UNL     1      -3.605  12.869  20.319  0.00  0.00    +0.000 A 
ATOM     18  N   UNL     1      -2.771  12.038  19.628  0.00  0.00    +0.000 N 
ATOM     19  H   UNL     1      -1.022  10.378  19.101  0.00  0.00    +0.000 HD
ATOM     20  H   UNL     1      -3.003  11.568  18.769  0.00  0.00    +0.000 HD
ENDBRANCH   5   7
BRANCH   1  23
ATOM     21  C   UNL     1       1.817   4.945  20.723  0.00  0.00    +0.000 C 
ATOM     22  O   UNL     1       0.639   4.817  20.421  0.00  0.00    +0.000 OA
ATOM     23  N   UNL     1       2.637   6.025  20.413  0.00  0.00    +0.000 N 
ATOM     24  H   UNL     1       3.625   5.931  20.607  0.00  0.00    +0.000 HD
BRANCH  21  28
ATOM     25  C   UNL     1       2.950   2.445  19.266  0.00  0.00    +0.000 C 
ATOM     26  C   UNL     1       3.025   2.596  20.750  0.00  0.00    +0.000 C 
ATOM     27  C   UNL     1       1.779   2.488  21.584  0.00  0.00    +0.000 C 
ATOM     28  C   UNL     1       2.491   3.829  21.465  0.00  0.00    +0.000 C 
ENDBRANCH  21  28
ENDBRANCH   1  23
TORSDOF 3
ENDMDL
MODEL 7
REMARK VINA RESULT:      -7.6      3.188      8.937
REMARK  Name = 
REMARK  4 active torsions:
REMARK  status: ('A' for Active; 'I' for Inactive)
REMARK    1  A    between atoms: C_1  and  C_2
REMARK    2  A    between atoms: C_4  and  C_5
REMARK    3  A    between atoms: N_7  and  C_8
REMARK    4  A    between atoms: C_12  and  C_13
REMARK                            x       y       z     vdW  Elec       q    Type
REMARK                         _______ _______ _______ _____ _____    ______ ____
ROOT
ATOM      1  C   UNL     1      10.047  11.911  21.068  0.00  0.00    +0.000 A 
ATOM      2  C   UNL     1      11.319  12.209  20.568  0.00  0.00    +0.000 A 
ATOM      3  C   UNL     1      11.688  11.857  19.273  0.00  0.00    +0.000 A 
ATOM      4  C   UNL     1      10.794  11.173  18.459  0.00  0.00    +0.000 A 
ATOM      5  C   UNL     1       9.538  10.780  18.953  0.00  0.00    +0.000 A 
ATOM      6  C   UNL     1       9.167  11.161  20.263  0.00  0.00    +0.000 A 
ENDROOT
BRANCH   5   7
ATOM      7  C   UNL     1       8.599   9.968  18.088  0.00  0.00    +0.000 C 
ATOM      8  O   UNL     1       7.997  10.528  17.181  0.00  0.00    +0.000 OA
ATOM      9  N   UNL     1       8.506   8.644  18.472  0.00  0.00    +0.000 N 
ATOM     10  C   UNL     1       7.724   7.670  17.898  0.00  0.00    +0.000 A 
ATOM     11  N   UNL     1       6.949   7.670  16.835  0.00  0.00    +0.000 NA
ATOM     12  C   UNL     1       6.305   6.440  16.839  0.00  0.00    +0.000 A 
ATOM     13  C   UNL     1       5.326   5.904  15.981  0.00  0.00    +0.000 A 
ATOM     14  C   UNL     1       4.770   4.649  16.291  0.00  0.00    +0.000 A 
ATOM     15  C   UNL     1       5.189   3.931  17.414  0.00  0.00    +0.000 A 
ATOM     16  C   UNL     1       6.198   4.420  18.244  0.00  0.00    +0.000 A 
ATOM     17  C   UNL     1       6.723   5.672  17.917  0.00  0.00    +0.000 A 
ATOM     18  N   UNL     1       7.691   6.436  18.504  0.00  0.00    +0.000 N 
ATOM     19  H   UNL     1       8.962   8.382  19.332  0.00  0.00    +0.000 HD
ATOM     20  H   UNL     1       8.239   6.162  19.303  0.00  0.00    +0.000 HD
ENDBRANCH   5   7
BRANCH   1  23
ATOM     21  C   UNL     1       8.898  13.497  22.614  0.00  0.00    +0.000 C 
ATOM     22  O   UNL     1       8.462  14.281  21.783  0.00  0.00    +0.000 OA
ATOM     23  N   UNL     1       9.632  12.344  22.357  0.00  0.00    +0.000 N 
ATOM     24  H   UNL     1       9.806  11.719  23.132  0.00  0.00    +0.000 HD
BRANCH  21  28
ATOM     25  C   UNL     1       6.956  11.686  24.227  0.00  0.00    +0.000 C 
ATOM     26  C   UNL     1       7.626  12.870  24.842  0.00  0.00    +0.000 C 
ATOM     27  C   UNL     1       7.215  14.261  24.448  0.00  0.00    +0.000 C 
ATOM     28  C   UNL     1       8.595  13.747  24.062  0.00  0.00    +0.000 C 
ENDBRANCH  21  28
ENDBRANCH   1  23
TORSDOF 3
ENDMDL
MODEL 8
REMARK VINA RESULT:      -7.5      5.277      9.860
REMARK  Name = 
REMARK  4 active torsions:
REMARK  status: ('A' for Active; 'I' for Inactive)
REMARK    1  A    between atoms: C_1  and  C_2
REMARK    2  A    between atoms: C_4  and  C_5
REMARK    3  A    between atoms: N_7  and  C_8
REMARK    4  A    between atoms: C_12  and  C_13
REMARK                            x       y       z     vdW  Elec       q    Type
REMARK                         _______ _______ _______ _____ _____    ______ ____
ROOT
ATOM      1  C   UNL     1       1.128  12.714  18.518  0.00  0.00    +0.000 A 
ATOM      2  C   UNL     1      -0.267  12.682  18.623  0.00  0.00    +0.000 A 
ATOM      3  C   UNL     1      -0.958  11.478  18.714  0.00  0.00    +0.000 A 
ATOM      4  C   UNL     1      -0.263  10.275  18.677  0.00  0.00    +0.000 A 
ATOM      5  C   UNL     1       1.128  10.263  18.487  0.00  0.00    +0.000 A 
ATOM      6  C   UNL     1       1.822  11.493  18.416  0.00  0.00    +0.000 A 
ENDROOT
BRANCH   5   7
ATOM      7  C   UNL     1       1.870   8.948  18.369  0.00  0.00    +0.000 C 
ATOM      8  O   UNL     1       2.467   8.698  17.331  0.00  0.00    +0.000 OA
ATOM      9  N   UNL     1       1.741   8.143  19.484  0.00  0.00    +0.000 N 
ATOM     10  C   UNL     1       2.277   6.890  19.666  0.00  0.00    +0.000 A 
ATOM     11  N   UNL     1       3.087   6.161  18.932  0.00  0.00    +0.000 NA
ATOM     12  C   UNL     1       3.161   4.927  19.564  0.00  0.00    +0.000 A 
ATOM     13  C   UNL     1       3.830   3.741  19.209  0.00  0.00    +0.000 A 
ATOM     14  C   UNL     1       3.641   2.594  20.001  0.00  0.00    +0.000 A 
ATOM     15  C   UNL     1       2.822   2.626  21.134  0.00  0.00    +0.000 A 
ATOM     16  C   UNL     1       2.196   3.807  21.535  0.00  0.00    +0.000 A 
ATOM     17  C   UNL     1       2.395   4.925  20.722  0.00  0.00    +0.000 A 
ATOM     18  N   UNL     1       1.935   6.208  20.810  0.00  0.00    +0.000 N 
ATOM     19  H   UNL     1       1.092   8.444  20.195  0.00  0.00    +0.000 HD
ATOM     20  H   UNL     1       1.370   6.570  21.560  0.00  0.00    +0.000 HD
ENDBRANCH   5   7
BRANCH   1  23
ATOM     21  C   UNL     1       2.587  14.437  19.581  0.00  0.00    +0.000 C 
ATOM     22  O   UNL     1       2.769  13.885  20.657  0.00  0.00    +0.000 OA
ATOM     23  N   UNL     1       1.847  13.940  18.513  0.00  0.00    +0.000 N 
ATOM     24  H   UNL     1       1.899  14.442  17.637  0.00  0.00    +0.000 HD
BRANCH  21  28
ATOM     25  C   UNL     1       5.173  14.702  17.879  0.00  0.00    +0.000 C 
ATOM     26  C   UNL     1       4.523  15.885  18.519  0.00  0.00    +0.000 C 
ATOM     27  C   UNL     1       4.576  16.060  20.011  0.00  0.00    +0.000 C 
ATOM     28  C   UNL     1       3.245  15.762  19.335  0.00  0.00    +0.000 C 
ENDBRANCH  21  28
ENDBRANCH   1  23
TORSDOF 3
ENDMDL
MODEL 9
REMARK VINA RESULT:      -7.5      7.040      9.218
REMARK  Name = 
REMARK  4 active torsions:
REMARK  status: ('A' for Active; 'I' for Inactive)
REMARK    1  A    between atoms: C_1  and  C_2
REMARK    2  A    between atoms: C_4  and  C_5
REMARK    3  A    between atoms: N_7  and  C_8
REMARK    4  A    between atoms: C_12  and  C_13
REMARK                            x       y       z     vdW  Elec       q    Type
REMARK                         _______ _______ _______ _____ _____    ______ ____
ROOT
ATOM      1  C   UNL     1       2.140   7.343  19.698  0.00  0.00    +0.000 A 
ATOM      2  C   UNL     1       2.205   7.810  18.381  0.00  0.00    +0.000 A 
ATOM      3  C   UNL     1       1.743   9.077  18.038  0.00  0.00    +0.000 A 
ATOM      4  C   UNL     1       1.181   9.895  19.009  0.00  0.00    +0.000 A 
ATOM      5  C   UNL     1       1.020   9.431  20.326  0.00  0.00    +0.000 A 
ATOM      6  C   UNL     1       1.511   8.151  20.667  0.00  0.00    +0.000 A 
ENDROOT
BRANCH   5   7
ATOM      7  C   UNL     1       0.336  10.298  21.361  0.00  0.00    +0.000 C 
ATOM      8  O   UNL     1       0.712  10.238  22.524  0.00  0.00    +0.000 OA
ATOM      9  N   UNL     1      -0.699  11.055  20.847  0.00  0.00    +0.000 N 
ATOM     10  C   UNL     1      -1.517  11.917  21.538  0.00  0.00    +0.000 A 
ATOM     11  N   UNL     1      -1.514  12.327  22.787  0.00  0.00    +0.000 NA
ATOM     12  C   UNL     1      -2.669  13.082  22.939  0.00  0.00    +0.000 A 
ATOM     13  C   UNL     1      -3.217  13.723  24.065  0.00  0.00    +0.000 A 
ATOM     14  C   UNL     1      -4.475  14.342  23.946  0.00  0.00    +0.000 A 
ATOM     15  C   UNL     1      -5.166  14.345  22.731  0.00  0.00    +0.000 A 
ATOM     16  C   UNL     1      -4.614  13.765  21.589  0.00  0.00    +0.000 A 
ATOM     17  C   UNL     1      -3.370  13.149  21.742  0.00  0.00    +0.000 A 
ATOM     18  N   UNL     1      -2.564  12.491  20.857  0.00  0.00    +0.000 N 
ATOM     19  H   UNL     1      -0.968  10.875  19.891  0.00  0.00    +0.000 HD
ATOM     20  H   UNL     1      -2.752  12.382  19.874  0.00  0.00    +0.000 HD
ENDBRANCH   5   7
BRANCH   1  23
ATOM     21  C   UNL     1       1.952   4.976  20.464  0.00  0.00    +0.000 C 
ATOM     22  O   UNL     1       0.732   4.892  20.506  0.00  0.00    +0.000 OA
ATOM     23  N   UNL     1       2.690   6.087  20.072  0.00  0.00    +0.000 N 
ATOM     24  H   UNL     1       3.687   5.967  19.955  0.00  0.00    +0.000 HD
BRANCH  21  28
ATOM     25  C   UNL     1       1.622   2.265  18.983  0.00  0.00    +0.000 C 
ATOM     26  C   UNL     1       2.585   2.437  20.112  0.00  0.00    +0.000 C 
ATOM     27  C   UNL     1       2.079   2.599  21.518  0.00  0.00    +0.000 C 
ATOM     28  C   UNL     1       2.765   3.768  20.826  0.00  0.00    +0.000 C 
ENDBRANCH  21  28
ENDBRANCH   1  23
TORSDOF 3
ENDMDL
