MODEL 1
REMARK VINA RESULT:      -8.9      0.000      0.000
REMARK  Name = 
REMARK  4 active torsions:
REMARK  status: ('A' for Active; 'I' for Inactive)
REMARK    1  A    between atoms: C_2  and  C_17
REMARK    2  A    between atoms: N_3  and  C_4
REMARK    3  A    between atoms: C_4  and  C_5
REMARK    4  A    between atoms: C_7  and  C_8
REMARK                            x       y       z     vdW  Elec       q    Type
REMARK                         _______ _______ _______ _____ _____    ______ ____
ROOT
ATOM      1  O   UNL     1       5.354   4.798  16.520  0.00  0.00    +0.000 OA
ATOM      2  C   UNL     1       5.264   4.693  17.744  0.00  0.00    +0.000 C 
ATOM      3  N   UNL     1       6.335   4.867  18.588  0.00  0.00    +0.000 N 
ATOM      4  H   UNL     1       6.310   4.452  19.512  0.00  0.00    +0.000 HD
ENDROOT
BRANCH   2   5
ATOM      5  C   UNL     1       3.978   4.308  18.375  0.00  0.00    +0.000 A 
ATOM      6  C   UNL     1       2.789   4.471  17.645  0.00  0.00    +0.000 A 
ATOM      7  C   UNL     1       1.545   4.111  18.183  0.00  0.00    +0.000 A 
ATOM      8  C   UNL     1       1.560   3.604  19.482  0.00  0.00    +0.000 A 
ATOM      9  N   UNL     1       0.585   3.148  20.325  0.00  0.00    +0.000 N 
ATOM     10  N   UNL     1       1.086   2.768  21.511  0.00  0.00    +0.000 NA
ATOM     11  N   UNL     1       2.398   2.959  21.471  0.00  0.00    +0.000 NA
ATOM     12  C   UNL     1       2.717   3.461  20.238  0.00  0.00    +0.000 A 
ATOM     13  C   UNL     1       3.955   3.818  19.691  0.00  0.00    +0.000 A 
ATOM     14  H   UNL     1      -0.413   3.066  20.169  0.00  0.00    +0.000 HD
ENDBRANCH   2   5
BRANCH   3  15
ATOM     15  C   UNL     1       7.634   5.215  18.052  0.00  0.00    +0.000 C 
BRANCH  15  16
ATOM     16  C   UNL     1       7.759   6.692  17.995  0.00  0.00    +0.000 A 
ATOM     17  N   UNL     1       8.552   7.479  18.691  0.00  0.00    +0.000 NA
ATOM     18  C   UNL     1       8.254   8.743  18.223  0.00  0.00    +0.000 A 
ATOM     19  N   UNL     1       7.304   8.759  17.275  0.00  0.00    +0.000 NA
ATOM     20  N   UNL     1       7.023   7.456  17.134  0.00  0.00    +0.000 N 
ATOM     21  H   UNL     1       6.345   7.164  16.439  0.00  0.00    +0.000 HD
BRANCH  18  22
ATOM     22  C   UNL     1       8.921   9.941  18.717  0.00  0.00    +0.000 A 
ATOM     23  C   UNL     1       9.417  10.900  17.820  0.00  0.00    +0.000 A 
ATOM     24  C   UNL     1      10.054  12.047  18.298  0.00  0.00    +0.000 A 
ATOM     25  C   UNL     1      10.202  12.230  19.668  0.00  0.00    +0.000 A 
ATOM     26  F   UNL     1      10.820  13.327  20.125  0.00  0.00    +0.000 F 
ATOM     27  C   UNL     1       9.717  11.293  20.573  0.00  0.00    +0.000 A 
ATOM     28  C   UNL     1       9.070  10.152  20.099  0.00  0.00    +0.000 A 
ENDBRANCH  18  22
ENDBRANCH  15  16
ENDBRANCH   3  15
TORSDOF 4
ENDMDL
MODEL 2
REMARK VINA RESULT:      -8.8      1.148      1.349
REMARK  Name = 
REMARK  4 active torsions:
REMARK  status: ('A' for Active; 'I' for Inactive)
REMARK    1  A    between atoms: C_2  and  C_17
REMARK    2  A    between atoms: N_3  and  C_4
REMARK    3  A    between atoms: C_4  and  C_5
REMARK    4  A    between atoms: C_7  and  C_8
REMARK                            x       y       z     vdW  Elec       q    Type
REMARK                         _______ _______ _______ _____ _____    ______ ____
ROOT
ATOM      1  O   UNL     1       3.929   6.910  17.281  0.00  0.00    +0.000 OA
ATOM      2  C   UNL     1       4.199   5.743  17.573  0.00  0.00    +0.000 C 
ATOM      3  N   UNL     1       5.339   5.111  17.139  0.00  0.00    +0.000 N 
ATOM      4  H   UNL     1       5.361   4.098  17.106  0.00  0.00    +0.000 HD
ENDROOT
BRANCH   2   5
ATOM      5  C   UNL     1       3.255   4.931  18.378  0.00  0.00    +0.000 A 
ATOM      6  C   UNL     1       2.141   4.357  17.743  0.00  0.00    +0.000 A 
ATOM      7  C   UNL     1       1.223   3.566  18.449  0.00  0.00    +0.000 A 
ATOM      8  C   UNL     1       1.471   3.404  19.812  0.00  0.00    +0.000 A 
ATOM      9  N   UNL     1       0.831   2.722  20.809  0.00  0.00    +0.000 N 
ATOM     10  N   UNL     1       1.444   2.877  21.994  0.00  0.00    +0.000 NA
ATOM     11  N   UNL     1       2.499   3.656  21.800  0.00  0.00    +0.000 NA
ATOM     12  C   UNL     1       2.546   3.986  20.472  0.00  0.00    +0.000 A 
ATOM     13  C   UNL     1       3.461   4.769  19.758  0.00  0.00    +0.000 A 
ATOM     14  H   UNL     1      -0.000   2.146  20.763  0.00  0.00    +0.000 HD
ENDBRANCH   2   5
BRANCH   3  15
ATOM     15  C   UNL     1       6.300   5.822  16.323  0.00  0.00    +0.000 C 
BRANCH  15  16
ATOM     16  C   UNL     1       7.106   6.719  17.188  0.00  0.00    +0.000 A 
ATOM     17  N   UNL     1       7.329   8.009  17.054  0.00  0.00    +0.000 NA
ATOM     18  C   UNL     1       8.127   8.319  18.136  0.00  0.00    +0.000 A 
ATOM     19  N   UNL     1       8.407   7.266  18.921  0.00  0.00    +0.000 NA
ATOM     20  N   UNL     1       7.737   6.276  18.315  0.00  0.00    +0.000 N 
ATOM     21  H   UNL     1       7.742   5.348  18.723  0.00  0.00    +0.000 HD
BRANCH  18  22
ATOM     22  C   UNL     1       8.611   9.669  18.395  0.00  0.00    +0.000 A 
ATOM     23  C   UNL     1       8.256  10.727  17.543  0.00  0.00    +0.000 A 
ATOM     24  C   UNL     1       8.721  12.019  17.795  0.00  0.00    +0.000 A 
ATOM     25  C   UNL     1       9.545  12.251  18.891  0.00  0.00    +0.000 A 
ATOM     26  F   UNL     1       9.996  13.489  19.127  0.00  0.00    +0.000 F 
ATOM     27  C   UNL     1       9.907  11.217  19.747  0.00  0.00    +0.000 A 
ATOM     28  C   UNL     1       9.435   9.928  19.504  0.00  0.00    +0.000 A 
ENDBRANCH  18  22
ENDBRANCH  15  16
ENDBRANCH   3  15
TORSDOF 4
ENDMDL
MODEL 3
REMARK VINA RESULT:      -8.7      1.012      1.504
REMARK  Name = 
REMARK  4 active torsions:
REMARK  status: ('A' for Active; 'I' for Inactive)
REMARK    1  A    between atoms: C_2  and  C_17
REMARK    2  A    between atoms: N_3  and  C_4
REMARK    3  A    between atoms: C_4  and  C_5
REMARK    4  A    between atoms: C_7  and  C_8
REMARK                            x       y       z     vdW  Elec       q    Type
REMARK                         _______ _______ _______ _____ _____    ______ ____
ROOT
ATOM      1  O   UNL     1       6.069   3.825  17.740  0.00  0.00    +0.000 OA
ATOM      2  C   UNL     1       5.057   4.527  17.748  0.00  0.00    +0.000 C 
ATOM      3  N   UNL     1       4.972   5.719  17.068  0.00  0.00    +0.000 N 
ATOM      4  H   UNL     1       4.289   6.408  17.362  0.00  0.00    +0.000 HD
ENDROOT
BRANCH   2   5
ATOM      5  C   UNL     1       3.876   4.138  18.556  0.00  0.00    +0.000 A 
ATOM      6  C   UNL     1       2.592   4.384  18.043  0.00  0.00    +0.000 A 
ATOM      7  C   UNL     1       1.438   4.024  18.753  0.00  0.00    +0.000 A 
ATOM      8  C   UNL     1       1.643   3.430  19.998  0.00  0.00    +0.000 A 
ATOM      9  N   UNL     1       0.800   2.946  20.960  0.00  0.00    +0.000 N 
ATOM     10  N   UNL     1       1.471   2.471  22.022  0.00  0.00    +0.000 NA
ATOM     11  N   UNL     1       2.766   2.628  21.779  0.00  0.00    +0.000 NA
ATOM     12  C   UNL     1       2.901   3.203  20.544  0.00  0.00    +0.000 A 
ATOM     13  C   UNL     1       4.047   3.561  19.825  0.00  0.00    +0.000 A 
ATOM     14  H   UNL     1      -0.212   2.903  20.965  0.00  0.00    +0.000 HD
ENDBRANCH   2   5
BRANCH   3  15
ATOM     15  C   UNL     1       6.091   6.189  16.279  0.00  0.00    +0.000 C 
BRANCH  15  16
ATOM     16  C   UNL     1       6.978   7.015  17.133  0.00  0.00    +0.000 A 
ATOM     17  N   UNL     1       7.225   8.306  17.058  0.00  0.00    +0.000 NA
ATOM     18  C   UNL     1       8.105   8.533  18.096  0.00  0.00    +0.000 A 
ATOM     19  N   UNL     1       8.414   7.429  18.796  0.00  0.00    +0.000 NA
ATOM     20  N   UNL     1       7.677   6.492  18.184  0.00  0.00    +0.000 N 
ATOM     21  H   UNL     1       7.687   5.542  18.536  0.00  0.00    +0.000 HD
BRANCH  18  22
ATOM     22  C   UNL     1       8.641   9.855  18.397  0.00  0.00    +0.000 A 
ATOM     23  C   UNL     1       9.474  10.048  19.511  0.00  0.00    +0.000 A 
ATOM     24  C   UNL     1       9.985  11.316  19.796  0.00  0.00    +0.000 A 
ATOM     25  C   UNL     1       9.658  12.389  18.974  0.00  0.00    +0.000 A 
ATOM     26  F   UNL     1      10.142  13.605  19.252  0.00  0.00    +0.000 F 
ATOM     27  C   UNL     1       8.835  12.218  17.866  0.00  0.00    +0.000 A 
ATOM     28  C   UNL     1       8.332  10.951  17.573  0.00  0.00    +0.000 A 
ENDBRANCH  18  22
ENDBRANCH  15  16
ENDBRANCH   3  15
TORSDOF 4
ENDMDL
MODEL 4
REMARK VINA RESULT:      -8.6      0.872      1.140
REMARK  Name = 
REMARK  4 active torsions:
REMARK  status: ('A' for Active; 'I' for Inactive)
REMARK    1  A    between atoms: C_2  and  C_17
REMARK    2  A    between atoms: N_3  and  C_4
REMARK    3  A    between atoms: C_4  and  C_5
REMARK    4  A    between atoms: C_7  and  C_8
REMARK                            x       y       z     vdW  Elec       q    Type
REMARK                         _______ _______ _______ _____ _____    ______ ____
ROOT
ATOM      1  O   UNL     1       5.381   4.055  16.706  0.00  0.00    +0.000 OA
ATOM      2  C   UNL     1       4.690   4.840  17.359  0.00  0.00    +0.000 C 
ATOM      3  N   UNL     1       4.878   6.201  17.327  0.00  0.00    +0.000 N 
ATOM      4  H   UNL     1       4.543   6.764  18.101  0.00  0.00    +0.000 HD
ENDROOT
BRANCH   2   5
ATOM      5  C   UNL     1       3.637   4.336  18.273  0.00  0.00    +0.000 A 
ATOM      6  C   UNL     1       2.290   4.480  17.902  0.00  0.00    +0.000 A 
ATOM      7  C   UNL     1       1.252   4.009  18.717  0.00  0.00    +0.000 A 
ATOM      8  C   UNL     1       1.635   3.412  19.918  0.00  0.00    +0.000 A 
ATOM      9  N   UNL     1       0.941   2.840  20.948  0.00  0.00    +0.000 N 
ATOM     10  N   UNL     1       1.756   2.405  21.922  0.00  0.00    +0.000 NA
ATOM     11  N   UNL     1       3.001   2.677  21.551  0.00  0.00    +0.000 NA
ATOM     12  C   UNL     1       2.957   3.284  20.325  0.00  0.00    +0.000 A 
ATOM     13  C   UNL     1       3.988   3.752  19.501  0.00  0.00    +0.000 A 
ATOM     14  H   UNL     1      -0.058   2.710  21.056  0.00  0.00    +0.000 HD
ENDBRANCH   2   5
BRANCH   3  15
ATOM     15  C   UNL     1       5.905   6.775  16.484  0.00  0.00    +0.000 C 
BRANCH  15  16
ATOM     16  C   UNL     1       6.949   7.393  17.338  0.00  0.00    +0.000 A 
ATOM     17  N   UNL     1       7.355   8.644  17.366  0.00  0.00    +0.000 NA
ATOM     18  C   UNL     1       8.327   8.653  18.345  0.00  0.00    +0.000 A 
ATOM     19  N   UNL     1       8.537   7.453  18.909  0.00  0.00    +0.000 NA
ATOM     20  N   UNL     1       7.644   6.682  18.274  0.00  0.00    +0.000 N 
ATOM     21  H   UNL     1       7.555   5.705  18.532  0.00  0.00    +0.000 HD
BRANCH  18  22
ATOM     22  C   UNL     1       9.049   9.860  18.726  0.00  0.00    +0.000 A 
ATOM     23  C   UNL     1       9.667  10.657  17.748  0.00  0.00    +0.000 A 
ATOM     24  C   UNL     1      10.358  11.813  18.117  0.00  0.00    +0.000 A 
ATOM     25  C   UNL     1      10.437  12.167  19.459  0.00  0.00    +0.000 A 
ATOM     26  F   UNL     1      11.106  13.272  19.812  0.00  0.00    +0.000 F 
ATOM     27  C   UNL     1       9.831  11.392  20.442  0.00  0.00    +0.000 A 
ATOM     28  C   UNL     1       9.132  10.243  20.075  0.00  0.00    +0.000 A 
ENDBRANCH  18  22
ENDBRANCH  15  16
ENDBRANCH   3  15
TORSDOF 4
ENDMDL
MODEL 5
REMARK VINA RESULT:      -8.6      0.893      1.268
REMARK  Name = 
REMARK  4 active torsions:
REMARK  status: ('A' for Active; 'I' for Inactive)
REMARK    1  A    between atoms: C_2  and  C_17
REMARK    2  A    between atoms: N_3  and  C_4
REMARK    3  A    between atoms: C_4  and  C_5
REMARK    4  A    between atoms: C_7  and  C_8
REMARK                            x       y       z     vdW  Elec       q    Type
REMARK                         _______ _______ _______ _____ _____    ______ ____
ROOT
ATOM      1  O   UNL     1       5.798   4.253  16.921  0.00  0.00    +0.000 OA
ATOM      2  C   UNL     1       5.511   4.631  18.058  0.00  0.00    +0.000 C 
ATOM      3  N   UNL     1       6.408   5.270  18.881  0.00  0.00    +0.000 N 
ATOM      4  H   UNL     1       6.257   5.256  19.883  0.00  0.00    +0.000 HD
ENDROOT
BRANCH   2   5
ATOM      5  C   UNL     1       4.169   4.357  18.626  0.00  0.00    +0.000 A 
ATOM      6  C   UNL     1       3.725   5.121  19.718  0.00  0.00    +0.000 A 
ATOM      7  C   UNL     1       2.460   4.918  20.287  0.00  0.00    +0.000 A 
ATOM      8  C   UNL     1       1.685   3.907  19.720  0.00  0.00    +0.000 A 
ATOM      9  N   UNL     1       0.432   3.423  19.980  0.00  0.00    +0.000 N 
ATOM     10  N   UNL     1       0.108   2.407  19.165  0.00  0.00    +0.000 NA
ATOM     11  N   UNL     1       1.136   2.205  18.350  0.00  0.00    +0.000 NA
ATOM     12  C   UNL     1       2.110   3.115  18.661  0.00  0.00    +0.000 A 
ATOM     13  C   UNL     1       3.373   3.328  18.095  0.00  0.00    +0.000 A 
ATOM     14  H   UNL     1      -0.242   3.725  20.673  0.00  0.00    +0.000 HD
ENDBRANCH   2   5
BRANCH   3  15
ATOM     15  C   UNL     1       7.750   5.550  18.415  0.00  0.00    +0.000 C 
BRANCH  15  16
ATOM     16  C   UNL     1       7.910   7.015  18.240  0.00  0.00    +0.000 A 
ATOM     17  N   UNL     1       8.653   7.850  18.934  0.00  0.00    +0.000 NA
ATOM     18  C   UNL     1       8.425   9.071  18.333  0.00  0.00    +0.000 A 
ATOM     19  N   UNL     1       7.563   9.015  17.305  0.00  0.00    +0.000 NA
ATOM     20  N   UNL     1       7.269   7.708  17.253  0.00  0.00    +0.000 N 
ATOM     21  H   UNL     1       6.650   7.365  16.528  0.00  0.00    +0.000 HD
BRANCH  18  22
ATOM     22  C   UNL     1       9.069  10.300  18.779  0.00  0.00    +0.000 A 
ATOM     23  C   UNL     1       9.335  11.335  17.868  0.00  0.00    +0.000 A 
ATOM     24  C   UNL     1       9.952  12.511  18.300  0.00  0.00    +0.000 A 
ATOM     25  C   UNL     1      10.308  12.648  19.637  0.00  0.00    +0.000 A 
ATOM     26  F   UNL     1      10.907  13.773  20.048  0.00  0.00    +0.000 F 
ATOM     27  C   UNL     1      10.052  11.636  20.555  0.00  0.00    +0.000 A 
ATOM     28  C   UNL     1       9.426  10.465  20.128  0.00  0.00    +0.000 A 
ENDBRANCH  18  22
ENDBRANCH  15  16
ENDBRANCH   3  15
TORSDOF 4
ENDMDL
MODEL 6
REMARK VINA RESULT:      -8.5      1.311      2.043
REMARK  Name = 
REMARK  4 active torsions:
REMARK  status: ('A' for Active; 'I' for Inactive)
REMARK    1  A    between atoms: C_2  and  C_17
REMARK    2  A    between atoms: N_3  and  C_4
REMARK    3  A    between atoms: C_4  and  C_5
REMARK    4  A    between atoms: C_7  and  C_8
REMARK                            x       y       z     vdW  Elec       q    Type
REMARK                         _______ _______ _______ _____ _____    ______ ____
ROOT
ATOM      1  O   UNL     1       3.972   7.460  17.215  0.00  0.00    +0.000 OA
ATOM      2  C   UNL     1       4.240   6.305  17.551  0.00  0.00    +0.000 C 
ATOM      3  N   UNL     1       5.412   5.678  17.197  0.00  0.00    +0.000 N 
ATOM      4  H   UNL     1       5.448   4.665  17.192  0.00  0.00    +0.000 HD
ENDROOT
BRANCH   2   5
ATOM      5  C   UNL     1       3.263   5.500  18.323  0.00  0.00    +0.000 A 
ATOM      6  C   UNL     1       2.997   5.852  19.657  0.00  0.00    +0.000 A 
ATOM      7  C   UNL     1       2.072   5.138  20.432  0.00  0.00    +0.000 A 
ATOM      8  C   UNL     1       1.453   4.055  19.808  0.00  0.00    +0.000 A 
ATOM      9  N   UNL     1       0.517   3.145  20.214  0.00  0.00    +0.000 N 
ATOM     10  N   UNL     1       0.234   2.254  19.251  0.00  0.00    +0.000 NA
ATOM     11  N   UNL     1       0.971   2.562  18.192  0.00  0.00    +0.000 NA
ATOM     12  C   UNL     1       1.720   3.665  18.501  0.00  0.00    +0.000 A 
ATOM     13  C   UNL     1       2.641   4.388  17.733  0.00  0.00    +0.000 A 
ATOM     14  H   UNL     1       0.038   3.069  21.103  0.00  0.00    +0.000 HD
ENDBRANCH   2   5
BRANCH   3  15
ATOM     15  C   UNL     1       6.407   6.383  16.418  0.00  0.00    +0.000 C 
BRANCH  15  16
ATOM     16  C   UNL     1       7.259   7.189  17.328  0.00  0.00    +0.000 A 
ATOM     17  N   UNL     1       7.531   8.475  17.275  0.00  0.00    +0.000 NA
ATOM     18  C   UNL     1       8.355   8.681  18.364  0.00  0.00    +0.000 A 
ATOM     19  N   UNL     1       8.603   7.568  19.073  0.00  0.00    +0.000 NA
ATOM     20  N   UNL     1       7.886   6.648  18.414  0.00  0.00    +0.000 N 
ATOM     21  H   UNL     1       7.859   5.695  18.759  0.00  0.00    +0.000 HD
BRANCH  18  22
ATOM     22  C   UNL     1       8.895   9.991  18.704  0.00  0.00    +0.000 A 
ATOM     23  C   UNL     1       9.334  10.262  20.009  0.00  0.00    +0.000 A 
ATOM     24  C   UNL     1       9.851  11.519  20.331  0.00  0.00    +0.000 A 
ATOM     25  C   UNL     1       9.922  12.504  19.352  0.00  0.00    +0.000 A 
ATOM     26  F   UNL     1      10.411  13.711  19.663  0.00  0.00    +0.000 F 
ATOM     27  C   UNL     1       9.492  12.255  18.053  0.00  0.00    +0.000 A 
ATOM     28  C   UNL     1       8.986  10.998  17.727  0.00  0.00    +0.000 A 
ENDBRANCH  18  22
ENDBRANCH  15  16
ENDBRANCH   3  15
TORSDOF 4
ENDMDL
MODEL 7
REMARK VINA RESULT:      -8.4      5.300      6.740
REMARK  Name = 
REMARK  4 active torsions:
REMARK  status: ('A' for Active; 'I' for Inactive)
REMARK    1  A    between atoms: C_2  and  C_17
REMARK    2  A    between atoms: N_3  and  C_4
REMARK    3  A    between atoms: C_4  and  C_5
REMARK    4  A    between atoms: C_7  and  C_8
REMARK                            x       y       z     vdW  Elec       q    Type
REMARK                         _______ _______ _______ _____ _____    ______ ____
ROOT
ATOM      1  O   UNL     1       2.272   5.001  18.211  0.00  0.00    +0.000 OA
ATOM      2  C   UNL     1       2.878   5.874  18.834  0.00  0.00    +0.000 C 
ATOM      3  N   UNL     1       4.102   5.657  19.422  0.00  0.00    +0.000 N 
ATOM      4  H   UNL     1       4.397   6.256  20.185  0.00  0.00    +0.000 HD
ENDROOT
BRANCH   2   5
ATOM      5  C   UNL     1       2.275   7.214  19.032  0.00  0.00    +0.000 A 
ATOM      6  C   UNL     1       2.204   8.095  17.940  0.00  0.00    +0.000 A 
ATOM      7  C   UNL     1       1.631   9.368  18.063  0.00  0.00    +0.000 A 
ATOM      8  C   UNL     1       1.157   9.710  19.329  0.00  0.00    +0.000 A 
ATOM      9  N   UNL     1       0.544  10.823  19.835  0.00  0.00    +0.000 N 
ATOM     10  N   UNL     1       0.282  10.698  21.146  0.00  0.00    +0.000 NA
ATOM     11  N   UNL     1       0.711   9.502  21.527  0.00  0.00    +0.000 NA
ATOM     12  C   UNL     1       1.242   8.872  20.434  0.00  0.00    +0.000 A 
ATOM     13  C   UNL     1       1.811   7.600  20.301  0.00  0.00    +0.000 A 
ATOM     14  H   UNL     1       0.278  11.680  19.366  0.00  0.00    +0.000 HD
ENDBRANCH   2   5
BRANCH   3  15
ATOM     15  C   UNL     1       4.748   4.367  19.303  0.00  0.00    +0.000 C 
BRANCH  15  16
ATOM     16  C   UNL     1       5.690   4.398  18.157  0.00  0.00    +0.000 A 
ATOM     17  N   UNL     1       5.419   4.412  16.869  0.00  0.00    +0.000 NA
ATOM     18  C   UNL     1       6.662   4.449  16.271  0.00  0.00    +0.000 A 
ATOM     19  N   UNL     1       7.682   4.448  17.145  0.00  0.00    +0.000 NA
ATOM     20  N   UNL     1       7.045   4.436  18.324  0.00  0.00    +0.000 N 
ATOM     21  H   UNL     1       7.583   4.468  19.182  0.00  0.00    +0.000 HD
BRANCH  18  22
ATOM     22  C   UNL     1       6.839   4.490  14.826  0.00  0.00    +0.000 A 
ATOM     23  C   UNL     1       6.077   3.656  13.992  0.00  0.00    +0.000 A 
ATOM     24  C   UNL     1       6.248   3.698  12.607  0.00  0.00    +0.000 A 
ATOM     25  C   UNL     1       7.185   4.567  12.058  0.00  0.00    +0.000 A 
ATOM     26  F   UNL     1       7.354   4.601  10.730  0.00  0.00    +0.000 F 
ATOM     27  C   UNL     1       7.948   5.402  12.865  0.00  0.00    +0.000 A 
ATOM     28  C   UNL     1       7.771   5.369  14.248  0.00  0.00    +0.000 A 
ENDBRANCH  18  22
ENDBRANCH  15  16
ENDBRANCH   3  15
TORSDOF 4
ENDMDL
MODEL 8
REMARK VINA RESULT:      -8.2      6.814      8.799
REMARK  Name = 
REMARK  4 active torsions:
REMARK  status: ('A' for Active; 'I' for Inactive)
REMARK    1  A    between atoms: C_2  and  C_17
REMARK    2  A    between atoms: N_3  and  C_4
REMARK    3  A    between atoms: C_4  and  C_5
REMARK    4  A    between atoms: C_7  and  C_8
REMARK                            x       y       z     vdW  Elec       q    Type
REMARK                         _______ _______ _______ _____ _____    ______ ____
ROOT
ATOM      1  O   UNL     1       0.765  10.938  18.520  0.00  0.00    +0.000 OA
ATOM      2  C   UNL     1      -0.252  10.407  18.970  0.00  0.00    +0.000 C 
ATOM      3  N   UNL     1      -0.240   9.598  20.081  0.00  0.00    +0.000 N 
ATOM      4  H   UNL     1      -0.991   8.930  20.214  0.00  0.00    +0.000 HD
ENDROOT
BRANCH   2   5
ATOM      5  C   UNL     1      -1.556  10.576  18.285  0.00  0.00    +0.000 A 
ATOM      6  C   UNL     1      -1.768   9.922  17.059  0.00  0.00    +0.000 A 
ATOM      7  C   UNL     1      -2.985  10.031  16.373  0.00  0.00    +0.000 A 
ATOM      8  C   UNL     1      -3.957  10.836  16.967  0.00  0.00    +0.000 A 
ATOM      9  N   UNL     1      -5.235  11.178  16.622  0.00  0.00    +0.000 N 
ATOM     10  N   UNL     1      -5.789  12.014  17.515  0.00  0.00    +0.000 NA
ATOM     11  N   UNL     1      -4.890  12.234  18.466  0.00  0.00    +0.000 NA
ATOM     12  C   UNL     1      -3.764  11.519  18.162  0.00  0.00    +0.000 A 
ATOM     13  C   UNL     1      -2.546  11.400  18.843  0.00  0.00    +0.000 A 
ATOM     14  H   UNL     1      -5.783  10.890  15.821  0.00  0.00    +0.000 HD
ENDBRANCH   2   5
BRANCH   3  15
ATOM     15  C   UNL     1       0.997   9.357  20.793  0.00  0.00    +0.000 C 
BRANCH  15  16
ATOM     16  C   UNL     1       1.612   8.103  20.291  0.00  0.00    +0.000 A 
ATOM     17  N   UNL     1       2.249   7.896  19.159  0.00  0.00    +0.000 NA
ATOM     18  C   UNL     1       2.609   6.565  19.223  0.00  0.00    +0.000 A 
ATOM     19  N   UNL     1       2.208   5.950  20.347  0.00  0.00    +0.000 NA
ATOM     20  N   UNL     1       1.601   6.943  21.012  0.00  0.00    +0.000 N 
ATOM     21  H   UNL     1       1.223   6.767  21.936  0.00  0.00    +0.000 HD
BRANCH  18  22
ATOM     22  C   UNL     1       3.359   5.901  18.164  0.00  0.00    +0.000 A 
ATOM     23  C   UNL     1       4.276   6.623  17.383  0.00  0.00    +0.000 A 
ATOM     24  C   UNL     1       4.993   5.983  16.370  0.00  0.00    +0.000 A 
ATOM     25  C   UNL     1       4.788   4.628  16.134  0.00  0.00    +0.000 A 
ATOM     26  F   UNL     1       5.471   4.018  15.157  0.00  0.00    +0.000 F 
ATOM     27  C   UNL     1       3.886   3.896  16.897  0.00  0.00    +0.000 A 
ATOM     28  C   UNL     1       3.176   4.530  17.916  0.00  0.00    +0.000 A 
ENDBRANCH  18  22
ENDBRANCH  15  16
ENDBRANCH   3  15
TORSDOF 4
ENDMDL
MODEL 9
REMARK VINA RESULT:      -8.1      6.508      8.453
REMARK  Name = 
REMARK  4 active torsions:
REMARK  status: ('A' for Active; 'I' for Inactive)
REMARK    1  A    between atoms: C_2  and  C_17
REMARK    2  A    between atoms: N_3  and  C_4
REMARK    3  A    between atoms: C_4  and  C_5
REMARK    4  A    between atoms: C_7  and  C_8
REMARK                            x       y       z     vdW  Elec       q    Type
REMARK                         _______ _______ _______ _____ _____    ______ ____
ROOT
ATOM      1  O   UNL     1       0.790  11.082  20.377  0.00  0.00    +0.000 OA
ATOM      2  C   UNL     1       0.003  10.240  19.942  0.00  0.00    +0.000 C 
ATOM      3  N   UNL     1       0.117   8.899  20.221  0.00  0.00    +0.000 N 
ATOM      4  H   UNL     1      -0.315   8.226  19.597  0.00  0.00    +0.000 HD
ENDROOT
BRANCH   2   5
ATOM      5  C   UNL     1      -1.098  10.637  19.031  0.00  0.00    +0.000 A 
ATOM      6  C   UNL     1      -2.042  11.577  19.476  0.00  0.00    +0.000 A 
ATOM      7  C   UNL     1      -3.094  12.003  18.654  0.00  0.00    +0.000 A 
ATOM      8  C   UNL     1      -3.157  11.426  17.386  0.00  0.00    +0.000 A 
ATOM      9  N   UNL     1      -4.004  11.580  16.323  0.00  0.00    +0.000 N 
ATOM     10  N   UNL     1      -3.671  10.779  15.298  0.00  0.00    +0.000 NA
ATOM     11  N   UNL     1      -2.598  10.089  15.662  0.00  0.00    +0.000 NA
ATOM     12  C   UNL     1      -2.257  10.471  16.931  0.00  0.00    +0.000 A 
ATOM     13  C   UNL     1      -1.205  10.056  17.757  0.00  0.00    +0.000 A 
ATOM     14  H   UNL     1      -4.805  12.192  16.223  0.00  0.00    +0.000 HD
ENDBRANCH   2   5
BRANCH   3  15
ATOM     15  C   UNL     1       1.182   8.422  21.078  0.00  0.00    +0.000 C 
BRANCH  15  16
ATOM     16  C   UNL     1       1.946   7.367  20.367  0.00  0.00    +0.000 A 
ATOM     17  N   UNL     1       2.522   7.424  19.185  0.00  0.00    +0.000 NA
ATOM     18  C   UNL     1       3.089   6.175  19.035  0.00  0.00    +0.000 A 
ATOM     19  N   UNL     1       2.872   5.354  20.076  0.00  0.00    +0.000 NA
ATOM     20  N   UNL     1       2.169   6.134  20.909  0.00  0.00    +0.000 N 
ATOM     21  H   UNL     1       1.893   5.773  21.815  0.00  0.00    +0.000 HD
BRANCH  18  22
ATOM     22  C   UNL     1       3.853   5.795  17.854  0.00  0.00    +0.000 A 
ATOM     23  C   UNL     1       4.464   6.776  17.056  0.00  0.00    +0.000 A 
ATOM     24  C   UNL     1       5.195   6.408  15.925  0.00  0.00    +0.000 A 
ATOM     25  C   UNL     1       5.309   5.064  15.589  0.00  0.00    +0.000 A 
ATOM     26  F   UNL     1       6.005   4.713  14.500  0.00  0.00    +0.000 F 
ATOM     27  C   UNL     1       4.713   4.077  16.366  0.00  0.00    +0.000 A 
ATOM     28  C   UNL     1       3.991   4.441  17.502  0.00  0.00    +0.000 A 
ENDBRANCH  18  22
ENDBRANCH  15  16
ENDBRANCH   3  15
TORSDOF 4
ENDMDL
