MODEL 1
REMARK VINA RESULT:      -9.1      0.000      0.000
REMARK  Name = 
REMARK  5 active torsions:
REMARK  status: ('A' for Active; 'I' for Inactive)
REMARK    1  A    between atoms: C_1  and  C_2
REMARK    2  A    between atoms: C_6  and  C_7
REMARK    3  A    between atoms: C_10  and  C_11
REMARK    4  A    between atoms: C_14  and  C_15
REMARK    5  A    between atoms: C_21  and  C_22
REMARK                            x       y       z     vdW  Elec       q    Type
REMARK                         _______ _______ _______ _____ _____    ______ ____
ROOT
ATOM      1  C   UNL     1       1.420   8.412  20.632  0.00  0.00    +0.000 A 
ATOM      2  C   UNL     1       1.689   8.953  19.363  0.00  0.00    +0.000 A 
ATOM      3  C   UNL     1       2.352   8.205  18.376  0.00  0.00    +0.000 A 
ATOM      4  C   UNL     1       2.752   6.890  18.643  0.00  0.00    +0.000 A 
ATOM      5  C   UNL     1       2.501   6.352  19.913  0.00  0.00    +0.000 A 
ATOM      6  C   UNL     1       1.842   7.101  20.893  0.00  0.00    +0.000 A 
ENDROOT
BRANCH   4   7
ATOM      7  C   UNL     1       3.456   6.017  17.649  0.00  0.00    +0.000 C 
ATOM      8  O   UNL     1       2.905   4.972  17.320  0.00  0.00    +0.000 OA
ATOM      9  N   UNL     1       4.668   6.476  17.186  0.00  0.00    +0.000 N 
ATOM     10  C   UNL     1       5.451   5.879  16.225  0.00  0.00    +0.000 A 
ATOM     11  N   UNL     1       6.666   6.302  15.954  0.00  0.00    +0.000 NA
ATOM     12  N   UNL     1       7.261   5.577  14.943  0.00  0.00    +0.000 NA
ATOM     13  C   UNL     1       6.452   4.653  14.455  0.00  0.00    +0.000 A 
ATOM     14  S   UNL     1       4.922   4.596  15.235  0.00  0.00    +0.000 S 
ATOM     15  H   UNL     1       5.084   7.316  17.557  0.00  0.00    +0.000 HD
BRANCH  13  16
ATOM     16  C   UNL     1       6.778   3.739  13.326  0.00  0.00    +0.000 C 
ATOM     17  F   UNL     1       5.664   3.159  12.799  0.00  0.00    +0.000 F 
ATOM     18  F   UNL     1       7.382   4.402  12.300  0.00  0.00    +0.000 F 
ENDBRANCH  13  16
ENDBRANCH   4   7
BRANCH   1  22
ATOM     19  C   UNL     1      -0.680  10.635  22.371  0.00  0.00    +0.000 A 
ATOM     20  N   UNL     1      -0.030  10.167  23.420  0.00  0.00    +0.000 NA
ATOM     21  N   UNL     1       0.880   9.247  22.944  0.00  0.00    +0.000 NA
ATOM     22  C   UNL     1       0.727   9.210  21.636  0.00  0.00    +0.000 A 
ATOM     23  O   UNL     1      -0.247  10.072  21.198  0.00  0.00    +0.000 OA
BRANCH  19  29
ATOM     24  C   UNL     1      -4.611  12.818  24.532  0.00  0.00    +0.000 C 
ATOM     25  C   UNL     1      -3.703  12.674  23.345  0.00  0.00    +0.000 A 
ATOM     26  C   UNL     1      -3.907  13.430  22.188  0.00  0.00    +0.000 A 
ATOM     27  C   UNL     1      -3.053  13.287  21.095  0.00  0.00    +0.000 A 
ATOM     28  C   UNL     1      -1.989  12.383  21.149  0.00  0.00    +0.000 A 
ATOM     29  C   UNL     1      -1.765  11.607  22.296  0.00  0.00    +0.000 A 
ATOM     30  C   UNL     1      -2.629  11.771  23.391  0.00  0.00    +0.000 A 
ENDBRANCH  19  29
ENDBRANCH   1  22
TORSDOF 4
ENDMDL
MODEL 2
REMARK VINA RESULT:      -9.1      5.205     11.683
REMARK  Name = 
REMARK  5 active torsions:
REMARK  status: ('A' for Active; 'I' for Inactive)
REMARK    1  A    between atoms: C_1  and  C_2
REMARK    2  A    between atoms: C_6  and  C_7
REMARK    3  A    between atoms: C_10  and  C_11
REMARK    4  A    between atoms: C_14  and  C_15
REMARK    5  A    between atoms: C_21  and  C_22
REMARK                            x       y       z     vdW  Elec       q    Type
REMARK                         _______ _______ _______ _____ _____    ______ ____
ROOT
ATOM      1  C   UNL     1       3.580   6.702  17.962  0.00  0.00    +0.000 A 
ATOM      2  C   UNL     1       2.961   6.460  19.200  0.00  0.00    +0.000 A 
ATOM      3  C   UNL     1       2.083   7.397  19.772  0.00  0.00    +0.000 A 
ATOM      4  C   UNL     1       1.804   8.595  19.104  0.00  0.00    +0.000 A 
ATOM      5  C   UNL     1       2.434   8.848  17.877  0.00  0.00    +0.000 A 
ATOM      6  C   UNL     1       3.308   7.913  17.312  0.00  0.00    +0.000 A 
ENDROOT
BRANCH   4   7
ATOM      7  C   UNL     1       0.876   9.646  19.634  0.00  0.00    +0.000 C 
ATOM      8  O   UNL     1       0.371  10.418  18.825  0.00  0.00    +0.000 OA
ATOM      9  N   UNL     1       0.667   9.645  20.994  0.00  0.00    +0.000 N 
ATOM     10  C   UNL     1      -0.191  10.467  21.686  0.00  0.00    +0.000 A 
ATOM     11  N   UNL     1      -0.214  10.503  23.000  0.00  0.00    +0.000 NA
ATOM     12  N   UNL     1      -1.165  11.377  23.486  0.00  0.00    +0.000 NA
ATOM     13  C   UNL     1      -1.860  11.940  22.513  0.00  0.00    +0.000 A 
ATOM     14  S   UNL     1      -1.361  11.458  20.941  0.00  0.00    +0.000 S 
ATOM     15  H   UNL     1       1.173   9.016  21.598  0.00  0.00    +0.000 HD
BRANCH  13  16
ATOM     16  C   UNL     1      -2.988  12.892  22.707  0.00  0.00    +0.000 C 
ATOM     17  F   UNL     1      -3.891  12.435  23.618  0.00  0.00    +0.000 F 
ATOM     18  F   UNL     1      -2.554  14.097  23.174  0.00  0.00    +0.000 F 
ENDBRANCH  13  16
ENDBRANCH   4   7
BRANCH   1  22
ATOM     19  C   UNL     1       5.617   4.749  15.860  0.00  0.00    +0.000 A 
ATOM     20  N   UNL     1       5.846   4.084  16.976  0.00  0.00    +0.000 NA
ATOM     21  N   UNL     1       5.114   4.706  17.966  0.00  0.00    +0.000 NA
ATOM     22  C   UNL     1       4.484   5.710  17.391  0.00  0.00    +0.000 A 
ATOM     23  O   UNL     1       4.753   5.798  16.049  0.00  0.00    +0.000 OA
BRANCH  19  29
ATOM     24  C   UNL     1       5.342   2.399  11.468  0.00  0.00    +0.000 C 
ATOM     25  C   UNL     1       6.031   3.387  12.365  0.00  0.00    +0.000 A 
ATOM     26  C   UNL     1       7.171   4.072  11.938  0.00  0.00    +0.000 A 
ATOM     27  C   UNL     1       7.798   4.988  12.781  0.00  0.00    +0.000 A 
ATOM     28  C   UNL     1       7.292   5.224  14.062  0.00  0.00    +0.000 A 
ATOM     29  C   UNL     1       6.152   4.545  14.519  0.00  0.00    +0.000 A 
ATOM     30  C   UNL     1       5.527   3.633  13.652  0.00  0.00    +0.000 A 
ENDBRANCH  19  29
ENDBRANCH   1  22
TORSDOF 4
ENDMDL
MODEL 3
REMARK VINA RESULT:      -8.9      5.120     11.588
REMARK  Name = 
REMARK  5 active torsions:
REMARK  status: ('A' for Active; 'I' for Inactive)
REMARK    1  A    between atoms: C_1  and  C_2
REMARK    2  A    between atoms: C_6  and  C_7
REMARK    3  A    between atoms: C_10  and  C_11
REMARK    4  A    between atoms: C_14  and  C_15
REMARK    5  A    between atoms: C_21  and  C_22
REMARK                            x       y       z     vdW  Elec       q    Type
REMARK                         _______ _______ _______ _____ _____    ______ ____
ROOT
ATOM      1  C   UNL     1       3.301   6.802  18.057  0.00  0.00    +0.000 A 
ATOM      2  C   UNL     1       3.018   7.946  17.291  0.00  0.00    +0.000 A 
ATOM      3  C   UNL     1       2.194   8.970  17.786  0.00  0.00    +0.000 A 
ATOM      4  C   UNL     1       1.643   8.869  19.070  0.00  0.00    +0.000 A 
ATOM      5  C   UNL     1       1.909   7.721  19.831  0.00  0.00    +0.000 A 
ATOM      6  C   UNL     1       2.729   6.703  19.333  0.00  0.00    +0.000 A 
ENDROOT
BRANCH   4   7
ATOM      7  C   UNL     1       0.761   9.914  19.681  0.00  0.00    +0.000 C 
ATOM      8  O   UNL     1       0.311  10.781  18.939  0.00  0.00    +0.000 OA
ATOM      9  N   UNL     1       0.528   9.802  21.032  0.00  0.00    +0.000 N 
ATOM     10  C   UNL     1      -0.300  10.602  21.784  0.00  0.00    +0.000 A 
ATOM     11  N   UNL     1      -0.345  10.521  23.096  0.00  0.00    +0.000 NA
ATOM     12  N   UNL     1      -1.259  11.396  23.646  0.00  0.00    +0.000 NA
ATOM     13  C   UNL     1      -1.907  12.081  22.719  0.00  0.00    +0.000 A 
ATOM     14  S   UNL     1      -1.404  11.717  21.116  0.00  0.00    +0.000 S 
ATOM     15  H   UNL     1       0.990   9.096  21.584  0.00  0.00    +0.000 HD
BRANCH  13  16
ATOM     16  C   UNL     1      -2.988  13.069  22.983  0.00  0.00    +0.000 C 
ATOM     17  F   UNL     1      -3.240  13.853  21.898  0.00  0.00    +0.000 F 
ATOM     18  F   UNL     1      -4.166  12.455  23.290  0.00  0.00    +0.000 F 
ENDBRANCH  13  16
ENDBRANCH   4   7
BRANCH   1  22
ATOM     19  C   UNL     1       5.331   4.751  16.043  0.00  0.00    +0.000 A 
ATOM     20  N   UNL     1       5.416   4.034  17.148  0.00  0.00    +0.000 NA
ATOM     21  N   UNL     1       4.661   4.684  18.101  0.00  0.00    +0.000 NA
ATOM     22  C   UNL     1       4.163   5.756  17.519  0.00  0.00    +0.000 A 
ATOM     23  O   UNL     1       4.544   5.863  16.206  0.00  0.00    +0.000 OA
BRANCH  19  29
ATOM     24  C   UNL     1       5.209   2.577  11.555  0.00  0.00    +0.000 C 
ATOM     25  C   UNL     1       5.905   3.472  12.539  0.00  0.00    +0.000 A 
ATOM     26  C   UNL     1       7.129   4.069  12.228  0.00  0.00    +0.000 A 
ATOM     27  C   UNL     1       7.761   4.900  13.152  0.00  0.00    +0.000 A 
ATOM     28  C   UNL     1       7.177   5.137  14.398  0.00  0.00    +0.000 A 
ATOM     29  C   UNL     1       5.951   4.545  14.740  0.00  0.00    +0.000 A 
ATOM     30  C   UNL     1       5.323   3.719  13.793  0.00  0.00    +0.000 A 
ENDBRANCH  19  29
ENDBRANCH   1  22
TORSDOF 4
ENDMDL
MODEL 4
REMARK VINA RESULT:      -8.7      5.194     11.492
REMARK  Name = 
REMARK  5 active torsions:
REMARK  status: ('A' for Active; 'I' for Inactive)
REMARK    1  A    between atoms: C_1  and  C_2
REMARK    2  A    between atoms: C_6  and  C_7
REMARK    3  A    between atoms: C_10  and  C_11
REMARK    4  A    between atoms: C_14  and  C_15
REMARK    5  A    between atoms: C_21  and  C_22
REMARK                            x       y       z     vdW  Elec       q    Type
REMARK                         _______ _______ _______ _____ _____    ______ ____
ROOT
ATOM      1  C   UNL     1       3.675   6.362  18.243  0.00  0.00    +0.000 A 
ATOM      2  C   UNL     1       3.312   7.571  17.626  0.00  0.00    +0.000 A 
ATOM      3  C   UNL     1       2.407   8.458  18.234  0.00  0.00    +0.000 A 
ATOM      4  C   UNL     1       1.856   8.149  19.484  0.00  0.00    +0.000 A 
ATOM      5  C   UNL     1       2.202   6.935  20.094  0.00  0.00    +0.000 A 
ATOM      6  C   UNL     1       3.102   6.055  19.484  0.00  0.00    +0.000 A 
ENDROOT
BRANCH   4   7
ATOM      7  C   UNL     1       0.892   9.038  20.208  0.00  0.00    +0.000 C 
ATOM      8  O   UNL     1       0.806   8.908  21.425  0.00  0.00    +0.000 OA
ATOM      9  N   UNL     1       0.188   9.932  19.436  0.00  0.00    +0.000 N 
ATOM     10  C   UNL     1      -0.693  10.885  19.893  0.00  0.00    +0.000 A 
ATOM     11  N   UNL     1      -1.439  11.595  19.075  0.00  0.00    +0.000 NA
ATOM     12  N   UNL     1      -2.230  12.507  19.742  0.00  0.00    +0.000 NA
ATOM     13  C   UNL     1      -2.019  12.482  21.046  0.00  0.00    +0.000 A 
ATOM     14  S   UNL     1      -0.862  11.309  21.536  0.00  0.00    +0.000 S 
ATOM     15  H   UNL     1       0.269   9.930  18.432  0.00  0.00    +0.000 HD
BRANCH  13  16
ATOM     16  C   UNL     1      -2.680  13.375  22.038  0.00  0.00    +0.000 C 
ATOM     17  F   UNL     1      -4.001  13.083  22.189  0.00  0.00    +0.000 F 
ATOM     18  F   UNL     1      -2.120  13.254  23.275  0.00  0.00    +0.000 F 
ENDBRANCH  13  16
ENDBRANCH   4   7
BRANCH   1  22
ATOM     19  C   UNL     1       5.730   4.636  15.966  0.00  0.00    +0.000 A 
ATOM     20  N   UNL     1       6.078   3.963  17.046  0.00  0.00    +0.000 NA
ATOM     21  N   UNL     1       5.359   4.497  18.095  0.00  0.00    +0.000 NA
ATOM     22  C   UNL     1       4.619   5.462  17.589  0.00  0.00    +0.000 A 
ATOM     23  O   UNL     1       4.799   5.606  16.237  0.00  0.00    +0.000 OA
BRANCH  19  29
ATOM     24  C   UNL     1       5.272   2.503  11.480  0.00  0.00    +0.000 C 
ATOM     25  C   UNL     1       5.987   3.460  12.390  0.00  0.00    +0.000 A 
ATOM     26  C   UNL     1       7.089   4.191  11.940  0.00  0.00    +0.000 A 
ATOM     27  C   UNL     1       7.741   5.078  12.796  0.00  0.00    +0.000 A 
ATOM     28  C   UNL     1       7.298   5.238  14.111  0.00  0.00    +0.000 A 
ATOM     29  C   UNL     1       6.198   4.511  14.591  0.00  0.00    +0.000 A 
ATOM     30  C   UNL     1       5.547   3.629  13.711  0.00  0.00    +0.000 A 
ENDBRANCH  19  29
ENDBRANCH   1  22
TORSDOF 4
ENDMDL
MODEL 5
REMARK VINA RESULT:      -8.6      0.733      1.738
REMARK  Name = 
REMARK  5 active torsions:
REMARK  status: ('A' for Active; 'I' for Inactive)
REMARK    1  A    between atoms: C_1  and  C_2
REMARK    2  A    between atoms: C_6  and  C_7
REMARK    3  A    between atoms: C_10  and  C_11
REMARK    4  A    between atoms: C_14  and  C_15
REMARK    5  A    between atoms: C_21  and  C_22
REMARK                            x       y       z     vdW  Elec       q    Type
REMARK                         _______ _______ _______ _____ _____    ______ ____
ROOT
ATOM      1  C   UNL     1       1.474   8.281  20.602  0.00  0.00    +0.000 A 
ATOM      2  C   UNL     1       1.808   6.953  20.920  0.00  0.00    +0.000 A 
ATOM      3  C   UNL     1       2.470   6.127  19.996  0.00  0.00    +0.000 A 
ATOM      4  C   UNL     1       2.819   6.623  18.735  0.00  0.00    +0.000 A 
ATOM      5  C   UNL     1       2.471   7.942  18.408  0.00  0.00    +0.000 A 
ATOM      6  C   UNL     1       1.811   8.760  19.329  0.00  0.00    +0.000 A 
ENDROOT
BRANCH   4   7
ATOM      7  C   UNL     1       3.532   5.817  17.692  0.00  0.00    +0.000 C 
ATOM      8  O   UNL     1       2.999   4.779  17.315  0.00  0.00    +0.000 OA
ATOM      9  N   UNL     1       4.729   6.324  17.243  0.00  0.00    +0.000 N 
ATOM     10  C   UNL     1       5.516   5.792  16.247  0.00  0.00    +0.000 A 
ATOM     11  N   UNL     1       6.720   6.254  15.988  0.00  0.00    +0.000 NA
ATOM     12  N   UNL     1       7.321   5.594  14.936  0.00  0.00    +0.000 NA
ATOM     13  C   UNL     1       6.525   4.680  14.408  0.00  0.00    +0.000 A 
ATOM     14  S   UNL     1       5.004   4.551  15.197  0.00  0.00    +0.000 S 
ATOM     15  H   UNL     1       5.132   7.152  17.653  0.00  0.00    +0.000 HD
BRANCH  13  16
ATOM     16  C   UNL     1       6.860   3.830  13.232  0.00  0.00    +0.000 C 
ATOM     17  F   UNL     1       5.766   3.186  12.739  0.00  0.00    +0.000 F 
ATOM     18  F   UNL     1       7.360   4.571  12.203  0.00  0.00    +0.000 F 
ENDBRANCH  13  16
ENDBRANCH   4   7
BRANCH   1  22
ATOM     19  C   UNL     1      -0.425  10.733  22.266  0.00  0.00    +0.000 A 
ATOM     20  N   UNL     1      -0.055  10.055  23.336  0.00  0.00    +0.000 NA
ATOM     21  N   UNL     1       0.729   9.011  22.893  0.00  0.00    +0.000 NA
ATOM     22  C   UNL     1       0.789   9.117  21.582  0.00  0.00    +0.000 A 
ATOM     23  O   UNL     1       0.081  10.193  21.110  0.00  0.00    +0.000 OA
BRANCH  19  29
ATOM     24  C   UNL     1      -1.274  15.200  20.215  0.00  0.00    +0.000 C 
ATOM     25  C   UNL     1      -1.696  14.107  21.155  0.00  0.00    +0.000 A 
ATOM     26  C   UNL     1      -2.861  14.225  21.917  0.00  0.00    +0.000 A 
ATOM     27  C   UNL     1      -3.241  13.200  22.782  0.00  0.00    +0.000 A 
ATOM     28  C   UNL     1      -2.457  12.050  22.897  0.00  0.00    +0.000 A 
ATOM     29  C   UNL     1      -1.278  11.908  22.148  0.00  0.00    +0.000 A 
ATOM     30  C   UNL     1      -0.916  12.947  21.273  0.00  0.00    +0.000 A 
ENDBRANCH  19  29
ENDBRANCH   1  22
TORSDOF 4
ENDMDL
MODEL 6
REMARK VINA RESULT:      -8.6      5.407     11.483
REMARK  Name = 
REMARK  5 active torsions:
REMARK  status: ('A' for Active; 'I' for Inactive)
REMARK    1  A    between atoms: C_1  and  C_2
REMARK    2  A    between atoms: C_6  and  C_7
REMARK    3  A    between atoms: C_10  and  C_11
REMARK    4  A    between atoms: C_14  and  C_15
REMARK    5  A    between atoms: C_21  and  C_22
REMARK                            x       y       z     vdW  Elec       q    Type
REMARK                         _______ _______ _______ _____ _____    ______ ____
ROOT
ATOM      1  C   UNL     1       3.186   6.827  18.235  0.00  0.00    +0.000 A 
ATOM      2  C   UNL     1       2.874   7.961  17.466  0.00  0.00    +0.000 A 
ATOM      3  C   UNL     1       2.048   8.980  17.971  0.00  0.00    +0.000 A 
ATOM      4  C   UNL     1       1.525   8.882  19.266  0.00  0.00    +0.000 A 
ATOM      5  C   UNL     1       1.819   7.743  20.029  0.00  0.00    +0.000 A 
ATOM      6  C   UNL     1       2.641   6.731  19.522  0.00  0.00    +0.000 A 
ENDROOT
BRANCH   4   7
ATOM      7  C   UNL     1       0.643   9.922  19.887  0.00  0.00    +0.000 C 
ATOM      8  O   UNL     1      -0.568   9.730  19.858  0.00  0.00    +0.000 OA
ATOM      9  N   UNL     1       1.279  11.005  20.447  0.00  0.00    +0.000 N 
ATOM     10  C   UNL     1       0.679  12.039  21.128  0.00  0.00    +0.000 A 
ATOM     11  N   UNL     1       1.345  13.112  21.495  0.00  0.00    +0.000 NA
ATOM     12  N   UNL     1       0.557  14.009  22.186  0.00  0.00    +0.000 NA
ATOM     13  C   UNL     1      -0.674  13.558  22.354  0.00  0.00    +0.000 A 
ATOM     14  S   UNL     1      -0.947  12.019  21.639  0.00  0.00    +0.000 S 
ATOM     15  H   UNL     1       2.278  11.120  20.371  0.00  0.00    +0.000 HD
BRANCH  13  16
ATOM     16  C   UNL     1      -1.751  14.266  23.097  0.00  0.00    +0.000 C 
ATOM     17  F   UNL     1      -2.740  14.706  22.270  0.00  0.00    +0.000 F 
ATOM     18  F   UNL     1      -2.354  13.450  24.008  0.00  0.00    +0.000 F 
ENDBRANCH  13  16
ENDBRANCH   4   7
BRANCH   1  22
ATOM     19  C   UNL     1       5.231   4.805  16.206  0.00  0.00    +0.000 A 
ATOM     20  N   UNL     1       5.296   4.065  17.296  0.00  0.00    +0.000 NA
ATOM     21  N   UNL     1       4.532   4.700  18.253  0.00  0.00    +0.000 NA
ATOM     22  C   UNL     1       4.049   5.787  17.686  0.00  0.00    +0.000 A 
ATOM     23  O   UNL     1       4.448   5.919  16.381  0.00  0.00    +0.000 OA
BRANCH  19  29
ATOM     24  C   UNL     1       5.116   2.800  11.640  0.00  0.00    +0.000 C 
ATOM     25  C   UNL     1       5.825   3.632  12.669  0.00  0.00    +0.000 A 
ATOM     26  C   UNL     1       7.076   4.194  12.401  0.00  0.00    +0.000 A 
ATOM     27  C   UNL     1       7.721   4.966  13.366  0.00  0.00    +0.000 A 
ATOM     28  C   UNL     1       7.122   5.181  14.610  0.00  0.00    +0.000 A 
ATOM     29  C   UNL     1       5.869   4.623  14.908  0.00  0.00    +0.000 A 
ATOM     30  C   UNL     1       5.229   3.855  13.920  0.00  0.00    +0.000 A 
ENDBRANCH  19  29
ENDBRANCH   1  22
TORSDOF 4
ENDMDL
MODEL 7
REMARK VINA RESULT:      -8.6      1.029      1.242
REMARK  Name = 
REMARK  5 active torsions:
REMARK  status: ('A' for Active; 'I' for Inactive)
REMARK    1  A    between atoms: C_1  and  C_2
REMARK    2  A    between atoms: C_6  and  C_7
REMARK    3  A    between atoms: C_10  and  C_11
REMARK    4  A    between atoms: C_14  and  C_15
REMARK    5  A    between atoms: C_21  and  C_22
REMARK                            x       y       z     vdW  Elec       q    Type
REMARK                         _______ _______ _______ _____ _____    ______ ____
ROOT
ATOM      1  C   UNL     1       0.750   9.285  20.736  0.00  0.00    +0.000 A 
ATOM      2  C   UNL     1       1.074   9.715  19.438  0.00  0.00    +0.000 A 
ATOM      3  C   UNL     1       1.835   8.911  18.572  0.00  0.00    +0.000 A 
ATOM      4  C   UNL     1       2.278   7.651  18.993  0.00  0.00    +0.000 A 
ATOM      5  C   UNL     1       1.972   7.227  20.294  0.00  0.00    +0.000 A 
ATOM      6  C   UNL     1       1.216   8.031  21.152  0.00  0.00    +0.000 A 
ENDROOT
BRANCH   4   7
ATOM      7  C   UNL     1       3.086   6.725  18.135  0.00  0.00    +0.000 C 
ATOM      8  O   UNL     1       2.568   5.664  17.802  0.00  0.00    +0.000 OA
ATOM      9  N   UNL     1       4.345   7.157  17.790  0.00  0.00    +0.000 N 
ATOM     10  C   UNL     1       5.229   6.508  16.959  0.00  0.00    +0.000 A 
ATOM     11  N   UNL     1       6.470   6.916  16.807  0.00  0.00    +0.000 NA
ATOM     12  N   UNL     1       7.173   6.136  15.911  0.00  0.00    +0.000 NA
ATOM     13  C   UNL     1       6.418   5.188  15.384  0.00  0.00    +0.000 A 
ATOM     14  S   UNL     1       4.809   5.173  15.986  0.00  0.00    +0.000 S 
ATOM     15  H   UNL     1       4.722   8.016  18.160  0.00  0.00    +0.000 HD
BRANCH  13  16
ATOM     16  C   UNL     1       6.865   4.212  14.352  0.00  0.00    +0.000 C 
ATOM     17  F   UNL     1       5.828   3.484  13.853  0.00  0.00    +0.000 F 
ATOM     18  F   UNL     1       7.438   4.837  13.285  0.00  0.00    +0.000 F 
ENDBRANCH  13  16
ENDBRANCH   4   7
BRANCH   1  22
ATOM     19  C   UNL     1      -1.544  11.572  22.112  0.00  0.00    +0.000 A 
ATOM     20  N   UNL     1      -0.969  11.212  23.244  0.00  0.00    +0.000 NA
ATOM     21  N   UNL     1       0.000  10.287  22.920  0.00  0.00    +0.000 NA
ATOM     22  C   UNL     1      -0.044  10.140  21.612  0.00  0.00    +0.000 A 
ATOM     23  O   UNL     1      -1.001  10.930  21.028  0.00  0.00    +0.000 OA
BRANCH  19  29
ATOM     24  C   UNL     1      -4.756  14.942  23.903  0.00  0.00    +0.000 C 
ATOM     25  C   UNL     1      -4.232  14.144  22.744  0.00  0.00    +0.000 A 
ATOM     26  C   UNL     1      -4.800  14.264  21.474  0.00  0.00    +0.000 A 
ATOM     27  C   UNL     1      -4.300  13.518  20.407  0.00  0.00    +0.000 A 
ATOM     28  C   UNL     1      -3.228  12.643  20.603  0.00  0.00    +0.000 A 
ATOM     29  C   UNL     1      -2.643  12.498  21.870  0.00  0.00    +0.000 A 
ATOM     30  C   UNL     1      -3.154  13.265  22.931  0.00  0.00    +0.000 A 
ENDBRANCH  19  29
ENDBRANCH   1  22
TORSDOF 4
ENDMDL
MODEL 8
REMARK VINA RESULT:      -8.6      5.158     11.653
REMARK  Name = 
REMARK  5 active torsions:
REMARK  status: ('A' for Active; 'I' for Inactive)
REMARK    1  A    between atoms: C_1  and  C_2
REMARK    2  A    between atoms: C_6  and  C_7
REMARK    3  A    between atoms: C_10  and  C_11
REMARK    4  A    between atoms: C_14  and  C_15
REMARK    5  A    between atoms: C_21  and  C_22
REMARK                            x       y       z     vdW  Elec       q    Type
REMARK                         _______ _______ _______ _____ _____    ______ ____
ROOT
ATOM      1  C   UNL     1       3.375   6.714  18.053  0.00  0.00    +0.000 A 
ATOM      2  C   UNL     1       2.828   6.560  19.338  0.00  0.00    +0.000 A 
ATOM      3  C   UNL     1       1.997   7.543  19.900  0.00  0.00    +0.000 A 
ATOM      4  C   UNL     1       1.691   8.702  19.175  0.00  0.00    +0.000 A 
ATOM      5  C   UNL     1       2.249   8.868  17.900  0.00  0.00    +0.000 A 
ATOM      6  C   UNL     1       3.077   7.887  17.345  0.00  0.00    +0.000 A 
ENDROOT
BRANCH   4   7
ATOM      7  C   UNL     1       0.809   9.797  19.692  0.00  0.00    +0.000 C 
ATOM      8  O   UNL     1       0.377  10.609  18.880  0.00  0.00    +0.000 OA
ATOM      9  N   UNL     1       0.555   9.789  21.044  0.00  0.00    +0.000 N 
ATOM     10  C   UNL     1      -0.277  10.650  21.721  0.00  0.00    +0.000 A 
ATOM     11  N   UNL     1      -0.342  10.669  23.034  0.00  0.00    +0.000 NA
ATOM     12  N   UNL     1      -1.257  11.589  23.502  0.00  0.00    +0.000 NA
ATOM     13  C   UNL     1      -1.884  12.207  22.516  0.00  0.00    +0.000 A 
ATOM     14  S   UNL     1      -1.362  11.719  20.954  0.00  0.00    +0.000 S 
ATOM     15  H   UNL     1       1.002   9.123  21.654  0.00  0.00    +0.000 HD
BRANCH  13  16
ATOM     16  C   UNL     1      -2.961  13.220  22.689  0.00  0.00    +0.000 C 
ATOM     17  F   UNL     1      -4.167  12.765  22.248  0.00  0.00    +0.000 F 
ATOM     18  F   UNL     1      -3.136  13.550  24.000  0.00  0.00    +0.000 F 
ENDBRANCH  13  16
ENDBRANCH   4   7
BRANCH   1  22
ATOM     19  C   UNL     1       5.377   4.685  15.990  0.00  0.00    +0.000 A 
ATOM     20  N   UNL     1       5.485   3.962  17.089  0.00  0.00    +0.000 NA
ATOM     21  N   UNL     1       4.744   4.602  18.060  0.00  0.00    +0.000 NA
ATOM     22  C   UNL     1       4.232   5.675  17.493  0.00  0.00    +0.000 A 
ATOM     23  O   UNL     1       4.588   5.792  16.173  0.00  0.00    +0.000 OA
BRANCH  19  29
ATOM     24  C   UNL     1       8.885   5.934  12.671  0.00  0.00    +0.000 C 
ATOM     25  C   UNL     1       7.687   5.106  13.036  0.00  0.00    +0.000 A 
ATOM     26  C   UNL     1       7.142   4.192  12.131  0.00  0.00    +0.000 A 
ATOM     27  C   UNL     1       6.031   3.428  12.485  0.00  0.00    +0.000 A 
ATOM     28  C   UNL     1       5.453   3.574  13.749  0.00  0.00    +0.000 A 
ATOM     29  C   UNL     1       5.976   4.489  14.675  0.00  0.00    +0.000 A 
ATOM     30  C   UNL     1       7.102   5.243  14.304  0.00  0.00    +0.000 A 
ENDBRANCH  19  29
ENDBRANCH   1  22
TORSDOF 4
ENDMDL
MODEL 9
REMARK VINA RESULT:      -8.5      5.124     11.503
REMARK  Name = 
REMARK  5 active torsions:
REMARK  status: ('A' for Active; 'I' for Inactive)
REMARK    1  A    between atoms: C_1  and  C_2
REMARK    2  A    between atoms: C_6  and  C_7
REMARK    3  A    between atoms: C_10  and  C_11
REMARK    4  A    between atoms: C_14  and  C_15
REMARK    5  A    between atoms: C_21  and  C_22
REMARK                            x       y       z     vdW  Elec       q    Type
REMARK                         _______ _______ _______ _____ _____    ______ ____
ROOT
ATOM      1  C   UNL     1       3.972   6.256  18.176  0.00  0.00    +0.000 A 
ATOM      2  C   UNL     1       3.454   5.834  19.412  0.00  0.00    +0.000 A 
ATOM      3  C   UNL     1       2.490   6.594  20.097  0.00  0.00    +0.000 A 
ATOM      4  C   UNL     1       2.019   7.791  19.544  0.00  0.00    +0.000 A 
ATOM      5  C   UNL     1       2.546   8.224  18.319  0.00  0.00    +0.000 A 
ATOM      6  C   UNL     1       3.507   7.465  17.643  0.00  0.00    +0.000 A 
ENDROOT
BRANCH   4   7
ATOM      7  C   UNL     1       0.988   8.659  20.199  0.00  0.00    +0.000 C 
ATOM      8  O   UNL     1       0.567   8.310  21.297  0.00  0.00    +0.000 OA
ATOM      9  N   UNL     1       0.608   9.784  19.505  0.00  0.00    +0.000 N 
ATOM     10  C   UNL     1      -0.264  10.754  19.941  0.00  0.00    +0.000 A 
ATOM     11  N   UNL     1      -0.690  11.716  19.152  0.00  0.00    +0.000 NA
ATOM     12  N   UNL     1      -1.537  12.591  19.799  0.00  0.00    +0.000 NA
ATOM     13  C   UNL     1      -1.687  12.281  21.075  0.00  0.00    +0.000 A 
ATOM     14  S   UNL     1      -0.825  10.871  21.547  0.00  0.00    +0.000 S 
ATOM     15  H   UNL     1       0.955   9.965  18.576  0.00  0.00    +0.000 HD
BRANCH  13  16
ATOM     16  C   UNL     1      -2.497  13.055  22.055  0.00  0.00    +0.000 C 
ATOM     17  F   UNL     1      -2.238  12.684  23.339  0.00  0.00    +0.000 F 
ATOM     18  F   UNL     1      -2.230  14.390  21.985  0.00  0.00    +0.000 F 
ENDBRANCH  13  16
ENDBRANCH   4   7
BRANCH   1  22
ATOM     19  C   UNL     1       6.033   4.660  15.812  0.00  0.00    +0.000 A 
ATOM     20  N   UNL     1       6.570   4.122  16.891  0.00  0.00    +0.000 NA
ATOM     21  N   UNL     1       5.882   4.629  17.972  0.00  0.00    +0.000 NA
ATOM     22  C   UNL     1       4.970   5.446  17.486  0.00  0.00    +0.000 A 
ATOM     23  O   UNL     1       5.003   5.513  16.116  0.00  0.00    +0.000 OA
BRANCH  19  29
ATOM     24  C   UNL     1       5.187   2.434  11.429  0.00  0.00    +0.000 C 
ATOM     25  C   UNL     1       5.986   3.401  12.255  0.00  0.00    +0.000 A 
ATOM     26  C   UNL     1       7.056   4.108  11.700  0.00  0.00    +0.000 A 
ATOM     27  C   UNL     1       7.785   5.004  12.480  0.00  0.00    +0.000 A 
ATOM     28  C   UNL     1       7.453   5.200  13.823  0.00  0.00    +0.000 A 
ATOM     29  C   UNL     1       6.386   4.498  14.407  0.00  0.00    +0.000 A 
ATOM     30  C   UNL     1       5.656   3.606  13.603  0.00  0.00    +0.000 A 
ENDBRANCH  19  29
ENDBRANCH   1  22
TORSDOF 4
ENDMDL
