MODEL 1
REMARK VINA RESULT:      -9.0      0.000      0.000
REMARK  Name = 
REMARK  4 active torsions:
REMARK  status: ('A' for Active; 'I' for Inactive)
REMARK    1  A    between atoms: C_2  and  C_4
REMARK    2  A    between atoms: N_7  and  C_8
REMARK    3  A    between atoms: C_11  and  N_12
REMARK    4  A    between atoms: C_13  and  C_15
REMARK                            x       y       z     vdW  Elec       q    Type
REMARK                         _______ _______ _______ _____ _____    ______ ____
ROOT
ATOM      1  C   UNL     1       6.338   6.042  18.047  0.00  0.00    +0.000 A 
ATOM      2  C   UNL     1       7.548   6.157  18.744  0.00  0.00    +0.000 A 
ATOM      3  C   UNL     1       8.333   7.307  18.619  0.00  0.00    +0.000 A 
ATOM      4  C   UNL     1       7.919   8.355  17.808  0.00  0.00    +0.000 A 
ATOM      5  C   UNL     1       6.728   8.227  17.078  0.00  0.00    +0.000 A 
ATOM      6  C   UNL     1       5.939   7.079  17.194  0.00  0.00    +0.000 A 
ENDROOT
BRANCH   1  10
ATOM      7  C   UNL     1       4.624   3.199  19.177  0.00  0.00    +0.000 A 
ATOM      8  C   UNL     1       4.152   3.196  17.847  0.00  0.00    +0.000 A 
ATOM      9  C   UNL     1       4.707   4.306  17.264  0.00  0.00    +0.000 A 
ATOM     10  N   UNL     1       5.506   4.902  18.214  0.00  0.00    +0.000 N 
ATOM     11  N   UNL     1       5.440   4.248  19.404  0.00  0.00    +0.000 NA
BRANCH   7  13
ATOM     12  N   UNL     1       5.186   1.212  20.367  0.00  0.00    +0.000 N 
ATOM     13  C   UNL     1       4.285   2.229  20.223  0.00  0.00    +0.000 C 
ATOM     14  O   UNL     1       3.292   2.314  20.939  0.00  0.00    +0.000 OA
ATOM     15  H   UNL     1       5.075   0.563  21.129  0.00  0.00    +0.000 HD
ATOM     16  H   UNL     1       6.041   1.244  19.824  0.00  0.00    +0.000 HD
ENDBRANCH   7  13
ENDBRANCH   1  10
BRANCH   4  17
ATOM     17  N   UNL     1       8.607   9.572  17.679  0.00  0.00    +0.000 N 
ATOM     18  C   UNL     1       9.160  10.364  18.683  0.00  0.00    +0.000 C 
ATOM     19  O   UNL     1       9.194  10.092  19.874  0.00  0.00    +0.000 OA
ATOM     20  H   UNL     1       8.657   9.933  16.735  0.00  0.00    +0.000 HD
BRANCH  18  21
ATOM     21  C   UNL     1       9.802  11.631  18.097  0.00  0.00    +0.000 C 
ATOM     22  C   UNL     1      11.350  11.664  18.196  0.00  0.00    +0.000 C 
ATOM     23  C   UNL     1      11.849  12.849  17.342  0.00  0.00    +0.000 C 
ATOM     24  C   UNL     1      11.287  14.175  17.894  0.00  0.00    +0.000 C 
ATOM     25  C   UNL     1      11.733  14.360  19.355  0.00  0.00    +0.000 C 
ATOM     26  C   UNL     1      11.232  13.184  20.209  0.00  0.00    +0.000 C 
ATOM     27  C   UNL     1      11.826  11.884  19.645  0.00  0.00    +0.000 C 
ATOM     28  C   UNL     1       9.699  13.114  20.145  0.00  0.00    +0.000 C 
ATOM     29  C   UNL     1       9.234  12.949  18.687  0.00  0.00    +0.000 C 
ATOM     30  C   UNL     1       9.753  14.132  17.851  0.00  0.00    +0.000 C 
ENDBRANCH  18  21
ENDBRANCH   4  17
TORSDOF 4
ENDMDL
MODEL 2
REMARK VINA RESULT:      -9.0      7.933     11.531
REMARK  Name = 
REMARK  4 active torsions:
REMARK  status: ('A' for Active; 'I' for Inactive)
REMARK    1  A    between atoms: C_2  and  C_4
REMARK    2  A    between atoms: N_7  and  C_8
REMARK    3  A    between atoms: C_11  and  N_12
REMARK    4  A    between atoms: C_13  and  C_15
REMARK                            x       y       z     vdW  Elec       q    Type
REMARK                         _______ _______ _______ _____ _____    ______ ____
ROOT
ATOM      1  C   UNL     1      -0.470  10.675  21.822  0.00  0.00    +0.000 A 
ATOM      2  C   UNL     1       0.100  10.554  20.547  0.00  0.00    +0.000 A 
ATOM      3  C   UNL     1       0.859   9.429  20.213  0.00  0.00    +0.000 A 
ATOM      4  C   UNL     1       1.051   8.411  21.137  0.00  0.00    +0.000 A 
ATOM      5  C   UNL     1       0.516   8.546  22.426  0.00  0.00    +0.000 A 
ATOM      6  C   UNL     1      -0.242   9.669  22.771  0.00  0.00    +0.000 A 
ENDROOT
BRANCH   1  10
ATOM      7  C   UNL     1      -2.856  12.895  23.117  0.00  0.00    +0.000 A 
ATOM      8  C   UNL     1      -2.294  13.754  22.148  0.00  0.00    +0.000 A 
ATOM      9  C   UNL     1      -1.283  13.033  21.567  0.00  0.00    +0.000 A 
ATOM     10  N   UNL     1      -1.292  11.786  22.151  0.00  0.00    +0.000 N 
ATOM     11  N   UNL     1      -2.235  11.698  23.128  0.00  0.00    +0.000 NA
BRANCH   7  13
ATOM     12  N   UNL     1      -4.553  12.130  24.606  0.00  0.00    +0.000 N 
ATOM     13  C   UNL     1      -3.953  13.216  24.034  0.00  0.00    +0.000 C 
ATOM     14  O   UNL     1      -4.308  14.360  24.302  0.00  0.00    +0.000 OA
ATOM     15  H   UNL     1      -5.247  12.272  25.321  0.00  0.00    +0.000 HD
ATOM     16  H   UNL     1      -4.156  11.213  24.434  0.00  0.00    +0.000 HD
ENDBRANCH   7  13
ENDBRANCH   1  10
BRANCH   4  17
ATOM     17  N   UNL     1       1.737   7.218  20.864  0.00  0.00    +0.000 N 
ATOM     18  C   UNL     1       2.307   6.802  19.663  0.00  0.00    +0.000 C 
ATOM     19  O   UNL     1       2.361   7.455  18.630  0.00  0.00    +0.000 OA
ATOM     20  H   UNL     1       1.773   6.562  21.634  0.00  0.00    +0.000 HD
BRANCH  18  21
ATOM     21  C   UNL     1       2.941   5.409  19.803  0.00  0.00    +0.000 C 
ATOM     22  C   UNL     1       3.185   4.682  18.455  0.00  0.00    +0.000 C 
ATOM     23  C   UNL     1       4.052   3.439  18.743  0.00  0.00    +0.000 C 
ATOM     24  C   UNL     1       3.309   2.481  19.697  0.00  0.00    +0.000 C 
ATOM     25  C   UNL     1       1.974   2.051  19.064  0.00  0.00    +0.000 C 
ATOM     26  C   UNL     1       1.104   3.288  18.781  0.00  0.00    +0.000 C 
ATOM     27  C   UNL     1       1.866   4.207  17.814  0.00  0.00    +0.000 C 
ATOM     28  C   UNL     1       0.832   4.039  20.092  0.00  0.00    +0.000 C 
ATOM     29  C   UNL     1       2.159   4.460  20.750  0.00  0.00    +0.000 C 
ATOM     30  C   UNL     1       3.013   3.209  21.017  0.00  0.00    +0.000 C 
ENDBRANCH  18  21
ENDBRANCH   4  17
TORSDOF 4
ENDMDL
MODEL 3
REMARK VINA RESULT:      -8.9      8.009     11.228
REMARK  Name = 
REMARK  4 active torsions:
REMARK  status: ('A' for Active; 'I' for Inactive)
REMARK    1  A    between atoms: C_2  and  C_4
REMARK    2  A    between atoms: N_7  and  C_8
REMARK    3  A    between atoms: C_11  and  N_12
REMARK    4  A    between atoms: C_13  and  C_15
REMARK                            x       y       z     vdW  Elec       q    Type
REMARK                         _______ _______ _______ _____ _____    ______ ____
ROOT
ATOM      1  C   UNL     1      -0.660  10.687  21.968  0.00  0.00    +0.000 A 
ATOM      2  C   UNL     1      -0.444  10.396  20.615  0.00  0.00    +0.000 A 
ATOM      3  C   UNL     1       0.368   9.322  20.240  0.00  0.00    +0.000 A 
ATOM      4  C   UNL     1       0.966   8.524  21.206  0.00  0.00    +0.000 A 
ATOM      5  C   UNL     1       0.785   8.836  22.561  0.00  0.00    +0.000 A 
ATOM      6  C   UNL     1      -0.023   9.910  22.945  0.00  0.00    +0.000 A 
ENDROOT
BRANCH   1  10
ATOM      7  C   UNL     1      -3.178  12.708  23.336  0.00  0.00    +0.000 A 
ATOM      8  C   UNL     1      -2.588  13.675  22.492  0.00  0.00    +0.000 A 
ATOM      9  C   UNL     1      -1.526  13.039  21.903  0.00  0.00    +0.000 A 
ATOM     10  N   UNL     1      -1.531  11.740  22.358  0.00  0.00    +0.000 N 
ATOM     11  N   UNL     1      -2.524  11.532  23.264  0.00  0.00    +0.000 NA
BRANCH   7  13
ATOM     12  N   UNL     1      -4.715  14.214  24.361  0.00  0.00    +0.000 N 
ATOM     13  C   UNL     1      -4.334  12.910  24.214  0.00  0.00    +0.000 C 
ATOM     14  O   UNL     1      -4.942  11.997  24.765  0.00  0.00    +0.000 OA
ATOM     15  H   UNL     1      -5.560  14.424  24.868  0.00  0.00    +0.000 HD
ATOM     16  H   UNL     1      -4.247  14.919  23.805  0.00  0.00    +0.000 HD
ENDBRANCH   7  13
ENDBRANCH   1  10
BRANCH   4  17
ATOM     17  N   UNL     1       1.737   7.386  20.922  0.00  0.00    +0.000 N 
ATOM     18  C   UNL     1       2.369   7.045  19.728  0.00  0.00    +0.000 C 
ATOM     19  O   UNL     1       2.411   7.731  18.716  0.00  0.00    +0.000 OA
ATOM     20  H   UNL     1       1.793   6.711  21.674  0.00  0.00    +0.000 HD
BRANCH  18  21
ATOM     21  C   UNL     1       3.088   5.692  19.849  0.00  0.00    +0.000 C 
ATOM     22  C   UNL     1       4.246   5.494  18.836  0.00  0.00    +0.000 C 
ATOM     23  C   UNL     1       5.023   4.228  19.254  0.00  0.00    +0.000 C 
ATOM     24  C   UNL     1       4.098   2.994  19.199  0.00  0.00    +0.000 C 
ATOM     25  C   UNL     1       3.547   2.822  17.773  0.00  0.00    +0.000 C 
ATOM     26  C   UNL     1       2.767   4.080  17.356  0.00  0.00    +0.000 C 
ATOM     27  C   UNL     1       3.722   5.282  17.402  0.00  0.00    +0.000 C 
ATOM     28  C   UNL     1       1.604   4.314  18.331  0.00  0.00    +0.000 C 
ATOM     29  C   UNL     1       2.136   4.469  19.767  0.00  0.00    +0.000 C 
ATOM     30  C   UNL     1       2.918   3.204  20.159  0.00  0.00    +0.000 C 
ENDBRANCH  18  21
ENDBRANCH   4  17
TORSDOF 4
ENDMDL
MODEL 4
REMARK VINA RESULT:      -8.8      1.401      1.597
REMARK  Name = 
REMARK  4 active torsions:
REMARK  status: ('A' for Active; 'I' for Inactive)
REMARK    1  A    between atoms: C_2  and  C_4
REMARK    2  A    between atoms: N_7  and  C_8
REMARK    3  A    between atoms: C_11  and  N_12
REMARK    4  A    between atoms: C_13  and  C_15
REMARK                            x       y       z     vdW  Elec       q    Type
REMARK                         _______ _______ _______ _____ _____    ______ ____
ROOT
ATOM      1  C   UNL     1       5.996   5.803  18.199  0.00  0.00    +0.000 A 
ATOM      2  C   UNL     1       7.256   5.828  18.812  0.00  0.00    +0.000 A 
ATOM      3  C   UNL     1       8.104   6.926  18.648  0.00  0.00    +0.000 A 
ATOM      4  C   UNL     1       7.705   8.013  17.881  0.00  0.00    +0.000 A 
ATOM      5  C   UNL     1       6.462   7.975  17.234  0.00  0.00    +0.000 A 
ATOM      6  C   UNL     1       5.608   6.879  17.390  0.00  0.00    +0.000 A 
ENDROOT
BRANCH   1  10
ATOM      7  C   UNL     1       3.285   3.582  18.312  0.00  0.00    +0.000 A 
ATOM      8  C   UNL     1       4.165   2.858  19.145  0.00  0.00    +0.000 A 
ATOM      9  C   UNL     1       5.325   3.589  19.166  0.00  0.00    +0.000 A 
ATOM     10  N   UNL     1       5.104   4.716  18.408  0.00  0.00    +0.000 N 
ATOM     11  N   UNL     1       3.863   4.709  17.852  0.00  0.00    +0.000 NA
BRANCH   7  13
ATOM     12  N   UNL     1       1.529   1.973  18.415  0.00  0.00    +0.000 N 
ATOM     13  C   UNL     1       1.920   3.194  17.943  0.00  0.00    +0.000 C 
ATOM     14  O   UNL     1       1.162   3.901  17.285  0.00  0.00    +0.000 OA
ATOM     15  H   UNL     1       0.574   1.681  18.289  0.00  0.00    +0.000 HD
ATOM     16  H   UNL     1       2.152   1.475  19.040  0.00  0.00    +0.000 HD
ENDBRANCH   7  13
ENDBRANCH   1  10
BRANCH   4  17
ATOM     17  N   UNL     1       8.461   9.185  17.721  0.00  0.00    +0.000 N 
ATOM     18  C   UNL     1       9.012  10.001  18.706  0.00  0.00    +0.000 C 
ATOM     19  O   UNL     1       8.981   9.793  19.911  0.00  0.00    +0.000 OA
ATOM     20  H   UNL     1       8.571   9.492  16.763  0.00  0.00    +0.000 HD
BRANCH  18  21
ATOM     21  C   UNL     1       9.744  11.201  18.086  0.00  0.00    +0.000 C 
ATOM     22  C   UNL     1      11.227  11.336  18.522  0.00  0.00    +0.000 C 
ATOM     23  C   UNL     1      11.884  12.406  17.624  0.00  0.00    +0.000 C 
ATOM     24  C   UNL     1      11.182  13.767  17.818  0.00  0.00    +0.000 C 
ATOM     25  C   UNL     1      11.275  14.193  19.293  0.00  0.00    +0.000 C 
ATOM     26  C   UNL     1      10.616  13.131  20.190  0.00  0.00    +0.000 C 
ATOM     27  C   UNL     1      11.352  11.798  19.987  0.00  0.00    +0.000 C 
ATOM     28  C   UNL     1       9.141  12.965  19.797  0.00  0.00    +0.000 C 
ATOM     29  C   UNL     1       9.028  12.558  18.317  0.00  0.00    +0.000 C 
ATOM     30  C   UNL     1       9.699  13.630  17.441  0.00  0.00    +0.000 C 
ENDBRANCH  18  21
ENDBRANCH   4  17
TORSDOF 4
ENDMDL
MODEL 5
REMARK VINA RESULT:      -8.8      7.932     11.236
REMARK  Name = 
REMARK  4 active torsions:
REMARK  status: ('A' for Active; 'I' for Inactive)
REMARK    1  A    between atoms: C_2  and  C_4
REMARK    2  A    between atoms: N_7  and  C_8
REMARK    3  A    between atoms: C_11  and  N_12
REMARK    4  A    between atoms: C_13  and  C_15
REMARK                            x       y       z     vdW  Elec       q    Type
REMARK                         _______ _______ _______ _____ _____    ______ ____
ROOT
ATOM      1  C   UNL     1      -0.498  10.718  22.056  0.00  0.00    +0.000 A 
ATOM      2  C   UNL     1       0.144   9.775  22.870  0.00  0.00    +0.000 A 
ATOM      3  C   UNL     1       0.936   8.771  22.306  0.00  0.00    +0.000 A 
ATOM      4  C   UNL     1       1.103   8.700  20.929  0.00  0.00    +0.000 A 
ATOM      5  C   UNL     1       0.431   9.616  20.108  0.00  0.00    +0.000 A 
ATOM      6  C   UNL     1      -0.366  10.621  20.664  0.00  0.00    +0.000 A 
ENDROOT
BRANCH   1  10
ATOM      7  C   UNL     1      -2.936  12.773  23.515  0.00  0.00    +0.000 A 
ATOM      8  C   UNL     1      -1.966  13.768  23.262  0.00  0.00    +0.000 A 
ATOM      9  C   UNL     1      -0.898  13.102  22.720  0.00  0.00    +0.000 A 
ATOM     10  N   UNL     1      -1.257  11.776  22.623  0.00  0.00    +0.000 N 
ATOM     11  N   UNL     1      -2.497  11.556  23.137  0.00  0.00    +0.000 NA
BRANCH   7  13
ATOM     12  N   UNL     1      -4.797  11.855  24.687  0.00  0.00    +0.000 N 
ATOM     13  C   UNL     1      -4.252  12.976  24.127  0.00  0.00    +0.000 C 
ATOM     14  O   UNL     1      -4.828  14.059  24.167  0.00  0.00    +0.000 OA
ATOM     15  H   UNL     1      -5.652  11.936  25.213  0.00  0.00    +0.000 HD
ATOM     16  H   UNL     1      -4.238  11.011  24.720  0.00  0.00    +0.000 HD
ENDBRANCH   7  13
ENDBRANCH   1  10
BRANCH   4  17
ATOM     17  N   UNL     1       1.935   7.771  20.284  0.00  0.00    +0.000 N 
ATOM     18  C   UNL     1       1.913   6.381  20.373  0.00  0.00    +0.000 C 
ATOM     19  O   UNL     1       1.101   5.715  20.999  0.00  0.00    +0.000 OA
ATOM     20  H   UNL     1       2.672   8.178  19.722  0.00  0.00    +0.000 HD
BRANCH  18  21
ATOM     21  C   UNL     1       3.022   5.753  19.514  0.00  0.00    +0.000 C 
ATOM     22  C   UNL     1       2.692   5.685  18.000  0.00  0.00    +0.000 C 
ATOM     23  C   UNL     1       3.984   5.285  17.257  0.00  0.00    +0.000 C 
ATOM     24  C   UNL     1       4.459   3.894  17.726  0.00  0.00    +0.000 C 
ATOM     25  C   UNL     1       3.359   2.853  17.458  0.00  0.00    +0.000 C 
ATOM     26  C   UNL     1       2.072   3.245  18.202  0.00  0.00    +0.000 C 
ATOM     27  C   UNL     1       1.618   4.622  17.696  0.00  0.00    +0.000 C 
ATOM     28  C   UNL     1       2.349   3.321  19.710  0.00  0.00    +0.000 C 
ATOM     29  C   UNL     1       3.463   4.345  19.995  0.00  0.00    +0.000 C 
ATOM     30  C   UNL     1       4.736   3.936  19.236  0.00  0.00    +0.000 C 
ENDBRANCH  18  21
ENDBRANCH   4  17
TORSDOF 4
ENDMDL
MODEL 6
REMARK VINA RESULT:      -8.7      0.751      1.362
REMARK  Name = 
REMARK  4 active torsions:
REMARK  status: ('A' for Active; 'I' for Inactive)
REMARK    1  A    between atoms: C_2  and  C_4
REMARK    2  A    between atoms: N_7  and  C_8
REMARK    3  A    between atoms: C_11  and  N_12
REMARK    4  A    between atoms: C_13  and  C_15
REMARK                            x       y       z     vdW  Elec       q    Type
REMARK                         _______ _______ _______ _____ _____    ______ ____
ROOT
ATOM      1  C   UNL     1       6.544   6.169  18.098  0.00  0.00    +0.000 A 
ATOM      2  C   UNL     1       7.633   6.164  18.980  0.00  0.00    +0.000 A 
ATOM      3  C   UNL     1       8.514   7.248  19.027  0.00  0.00    +0.000 A 
ATOM      4  C   UNL     1       8.314   8.350  18.206  0.00  0.00    +0.000 A 
ATOM      5  C   UNL     1       7.249   8.342  17.294  0.00  0.00    +0.000 A 
ATOM      6  C   UNL     1       6.366   7.260  17.238  0.00  0.00    +0.000 A 
ENDROOT
BRANCH   1  10
ATOM      7  C   UNL     1       4.555   3.363  18.780  0.00  0.00    +0.000 A 
ATOM      8  C   UNL     1       4.127   3.589  17.453  0.00  0.00    +0.000 A 
ATOM      9  C   UNL     1       4.794   4.714  17.045  0.00  0.00    +0.000 A 
ATOM     10  N   UNL     1       5.611   5.097  18.085  0.00  0.00    +0.000 N 
ATOM     11  N   UNL     1       5.451   4.291  19.169  0.00  0.00    +0.000 NA
BRANCH   7  13
ATOM     12  N   UNL     1       5.097   1.487  20.147  0.00  0.00    +0.000 N 
ATOM     13  C   UNL     1       4.100   2.290  19.670  0.00  0.00    +0.000 C 
ATOM     14  O   UNL     1       2.928   2.120  19.994  0.00  0.00    +0.000 OA
ATOM     15  H   UNL     1       4.877   0.791  20.841  0.00  0.00    +0.000 HD
ATOM     16  H   UNL     1       6.057   1.731  19.934  0.00  0.00    +0.000 HD
ENDBRANCH   7  13
ENDBRANCH   1  10
BRANCH   4  17
ATOM     17  N   UNL     1       9.105   9.509  18.237  0.00  0.00    +0.000 N 
ATOM     18  C   UNL     1       9.351  10.361  19.312  0.00  0.00    +0.000 C 
ATOM     19  O   UNL     1       8.958  10.201  20.458  0.00  0.00    +0.000 OA
ATOM     20  H   UNL     1       9.502   9.777  17.345  0.00  0.00    +0.000 HD
BRANCH  18  21
ATOM     21  C   UNL     1      10.258  11.530  18.896  0.00  0.00    +0.000 C 
ATOM     22  C   UNL     1      10.482  12.588  20.008  0.00  0.00    +0.000 C 
ATOM     23  C   UNL     1      11.605  13.535  19.533  0.00  0.00    +0.000 C 
ATOM     24  C   UNL     1      11.180  14.257  18.238  0.00  0.00    +0.000 C 
ATOM     25  C   UNL     1       9.891  15.059  18.489  0.00  0.00    +0.000 C 
ATOM     26  C   UNL     1       8.769  14.117  18.956  0.00  0.00    +0.000 C 
ATOM     27  C   UNL     1       9.217  13.433  20.256  0.00  0.00    +0.000 C 
ATOM     28  C   UNL     1       8.508  13.051  17.882  0.00  0.00    +0.000 C 
ATOM     29  C   UNL     1       9.793  12.251  17.603  0.00  0.00    +0.000 C 
ATOM     30  C   UNL     1      10.902  13.214  17.145  0.00  0.00    +0.000 C 
ENDBRANCH  18  21
ENDBRANCH   4  17
TORSDOF 4
ENDMDL
MODEL 7
REMARK VINA RESULT:      -8.7      7.470     11.283
REMARK  Name = 
REMARK  4 active torsions:
REMARK  status: ('A' for Active; 'I' for Inactive)
REMARK    1  A    between atoms: C_2  and  C_4
REMARK    2  A    between atoms: N_7  and  C_8
REMARK    3  A    between atoms: C_11  and  N_12
REMARK    4  A    between atoms: C_13  and  C_15
REMARK                            x       y       z     vdW  Elec       q    Type
REMARK                         _______ _______ _______ _____ _____    ______ ____
ROOT
ATOM      1  C   UNL     1       0.126  10.772  21.426  0.00  0.00    +0.000 A 
ATOM      2  C   UNL     1       0.489  10.427  20.118  0.00  0.00    +0.000 A 
ATOM      3  C   UNL     1       1.070   9.186  19.846  0.00  0.00    +0.000 A 
ATOM      4  C   UNL     1       1.287   8.273  20.870  0.00  0.00    +0.000 A 
ATOM      5  C   UNL     1       0.962   8.630  22.187  0.00  0.00    +0.000 A 
ATOM      6  C   UNL     1       0.383   9.871  22.468  0.00  0.00    +0.000 A 
ENDROOT
BRANCH   1  10
ATOM      7  C   UNL     1      -1.311  13.629  22.866  0.00  0.00    +0.000 A 
ATOM      8  C   UNL     1      -1.697  13.868  21.529  0.00  0.00    +0.000 A 
ATOM      9  C   UNL     1      -1.156  12.836  20.807  0.00  0.00    +0.000 A 
ATOM     10  N   UNL     1      -0.519  12.008  21.703  0.00  0.00    +0.000 N 
ATOM     11  N   UNL     1      -0.581  12.501  22.969  0.00  0.00    +0.000 NA
BRANCH   7  13
ATOM     12  N   UNL     1      -2.922  14.445  24.421  0.00  0.00    +0.000 N 
ATOM     13  C   UNL     1      -1.615  14.475  24.024  0.00  0.00    +0.000 C 
ATOM     14  O   UNL     1      -0.778  15.145  24.620  0.00  0.00    +0.000 OA
ATOM     15  H   UNL     1      -3.188  14.921  25.268  0.00  0.00    +0.000 HD
ATOM     16  H   UNL     1      -3.551  13.798  23.962  0.00  0.00    +0.000 HD
ENDBRANCH   7  13
ENDBRANCH   1  10
BRANCH   4  17
ATOM     17  N   UNL     1       1.799   6.980  20.678  0.00  0.00    +0.000 N 
ATOM     18  C   UNL     1       2.576   6.504  19.625  0.00  0.00    +0.000 C 
ATOM     19  O   UNL     1       3.009   7.169  18.695  0.00  0.00    +0.000 OA
ATOM     20  H   UNL     1       1.518   6.304  21.377  0.00  0.00    +0.000 HD
BRANCH  18  21
ATOM     21  C   UNL     1       2.896   5.012  19.802  0.00  0.00    +0.000 C 
ATOM     22  C   UNL     1       4.115   4.519  18.979  0.00  0.00    +0.000 C 
ATOM     23  C   UNL     1       4.463   3.096  19.463  0.00  0.00    +0.000 C 
ATOM     24  C   UNL     1       3.275   2.143  19.211  0.00  0.00    +0.000 C 
ATOM     25  C   UNL     1       2.940   2.118  17.710  0.00  0.00    +0.000 C 
ATOM     26  C   UNL     1       2.587   3.534  17.226  0.00  0.00    +0.000 C 
ATOM     27  C   UNL     1       3.796   4.448  17.473  0.00  0.00    +0.000 C 
ATOM     28  C   UNL     1       1.379   4.063  18.013  0.00  0.00    +0.000 C 
ATOM     29  C   UNL     1       1.690   4.077  19.520  0.00  0.00    +0.000 C 
ATOM     30  C   UNL     1       2.046   2.653  19.979  0.00  0.00    +0.000 C 
ENDBRANCH  18  21
ENDBRANCH   4  17
TORSDOF 4
ENDMDL
MODEL 8
REMARK VINA RESULT:      -8.7      7.540     11.260
REMARK  Name = 
REMARK  4 active torsions:
REMARK  status: ('A' for Active; 'I' for Inactive)
REMARK    1  A    between atoms: C_2  and  C_4
REMARK    2  A    between atoms: N_7  and  C_8
REMARK    3  A    between atoms: C_11  and  N_12
REMARK    4  A    between atoms: C_13  and  C_15
REMARK                            x       y       z     vdW  Elec       q    Type
REMARK                         _______ _______ _______ _____ _____    ______ ____
ROOT
ATOM      1  C   UNL     1      -0.002  10.664  21.684  0.00  0.00    +0.000 A 
ATOM      2  C   UNL     1       0.221  10.645  20.300  0.00  0.00    +0.000 A 
ATOM      3  C   UNL     1       0.960   9.614  19.714  0.00  0.00    +0.000 A 
ATOM      4  C   UNL     1       1.476   8.588  20.495  0.00  0.00    +0.000 A 
ATOM      5  C   UNL     1       1.289   8.624  21.884  0.00  0.00    +0.000 A 
ATOM      6  C   UNL     1       0.555   9.654  22.480  0.00  0.00    +0.000 A 
ENDROOT
BRANCH   1  10
ATOM      7  C   UNL     1      -2.494  12.567  23.253  0.00  0.00    +0.000 A 
ATOM      8  C   UNL     1      -1.612  13.623  22.936  0.00  0.00    +0.000 A 
ATOM      9  C   UNL     1      -0.530  13.024  22.342  0.00  0.00    +0.000 A 
ATOM     10  N   UNL     1      -0.801  11.676  22.281  0.00  0.00    +0.000 N 
ATOM     11  N   UNL     1      -1.992  11.378  22.865  0.00  0.00    +0.000 NA
BRANCH   7  13
ATOM     12  N   UNL     1      -4.869  12.404  23.154  0.00  0.00    +0.000 N 
ATOM     13  C   UNL     1      -3.786  12.688  23.936  0.00  0.00    +0.000 C 
ATOM     14  O   UNL     1      -3.909  12.995  25.118  0.00  0.00    +0.000 OA
ATOM     15  H   UNL     1      -5.783  12.368  23.577  0.00  0.00    +0.000 HD
ATOM     16  H   UNL     1      -4.710  12.055  22.216  0.00  0.00    +0.000 HD
ENDBRANCH   7  13
ENDBRANCH   1  10
BRANCH   4  17
ATOM     17  N   UNL     1       2.167   7.479  19.983  0.00  0.00    +0.000 N 
ATOM     18  C   UNL     1       1.968   6.129  20.265  0.00  0.00    +0.000 C 
ATOM     19  O   UNL     1       1.090   5.667  20.979  0.00  0.00    +0.000 OA
ATOM     20  H   UNL     1       2.939   7.706  19.369  0.00  0.00    +0.000 HD
BRANCH  18  21
ATOM     21  C   UNL     1       2.970   5.250  19.499  0.00  0.00    +0.000 C 
ATOM     22  C   UNL     1       2.684   5.137  17.978  0.00  0.00    +0.000 C 
ATOM     23  C   UNL     1       3.903   4.456  17.322  0.00  0.00    +0.000 C 
ATOM     24  C   UNL     1       4.096   3.038  17.899  0.00  0.00    +0.000 C 
ATOM     25  C   UNL     1       2.831   2.200  17.647  0.00  0.00    +0.000 C 
ATOM     26  C   UNL     1       1.615   2.872  18.305  0.00  0.00    +0.000 C 
ATOM     27  C   UNL     1       1.441   4.270  17.693  0.00  0.00    +0.000 C 
ATOM     28  C   UNL     1       1.851   3.002  19.817  0.00  0.00    +0.000 C 
ATOM     29  C   UNL     1       3.125   3.823  20.088  0.00  0.00    +0.000 C 
ATOM     30  C   UNL     1       4.325   3.135  19.415  0.00  0.00    +0.000 C 
ENDBRANCH  18  21
ENDBRANCH   4  17
TORSDOF 4
ENDMDL
MODEL 9
REMARK VINA RESULT:      -8.6      1.300      1.832
REMARK  Name = 
REMARK  4 active torsions:
REMARK  status: ('A' for Active; 'I' for Inactive)
REMARK    1  A    between atoms: C_2  and  C_4
REMARK    2  A    between atoms: N_7  and  C_8
REMARK    3  A    between atoms: C_11  and  N_12
REMARK    4  A    between atoms: C_13  and  C_15
REMARK                            x       y       z     vdW  Elec       q    Type
REMARK                         _______ _______ _______ _____ _____    ______ ____
ROOT
ATOM      1  C   UNL     1       6.044   5.604  18.054  0.00  0.00    +0.000 A 
ATOM      2  C   UNL     1       7.030   5.411  19.031  0.00  0.00    +0.000 A 
ATOM      3  C   UNL     1       8.024   6.371  19.235  0.00  0.00    +0.000 A 
ATOM      4  C   UNL     1       8.043   7.535  18.478  0.00  0.00    +0.000 A 
ATOM      5  C   UNL     1       7.082   7.713  17.472  0.00  0.00    +0.000 A 
ATOM      6  C   UNL     1       6.086   6.756  17.259  0.00  0.00    +0.000 A 
ENDROOT
BRANCH   1  10
ATOM      7  C   UNL     1       3.478   3.241  18.417  0.00  0.00    +0.000 A 
ATOM      8  C   UNL     1       3.567   3.219  17.009  0.00  0.00    +0.000 A 
ATOM      9  C   UNL     1       4.520   4.151  16.692  0.00  0.00    +0.000 A 
ATOM     10  N   UNL     1       4.995   4.661  17.879  0.00  0.00    +0.000 N 
ATOM     11  N   UNL     1       4.341   4.131  18.947  0.00  0.00    +0.000 NA
BRANCH   7  13
ATOM     12  N   UNL     1       1.745   1.610  18.542  0.00  0.00    +0.000 N 
ATOM     13  C   UNL     1       2.569   2.442  19.245  0.00  0.00    +0.000 C 
ATOM     14  O   UNL     1       2.548   2.482  20.471  0.00  0.00    +0.000 OA
ATOM     15  H   UNL     1       1.163   0.958  19.042  0.00  0.00    +0.000 HD
ATOM     16  H   UNL     1       1.873   1.538  17.539  0.00  0.00    +0.000 HD
ENDBRANCH   7  13
ENDBRANCH   1  10
BRANCH   4  17
ATOM     17  N   UNL     1       8.960   8.581  18.663  0.00  0.00    +0.000 N 
ATOM     18  C   UNL     1       8.813   9.929  18.340  0.00  0.00    +0.000 C 
ATOM     19  O   UNL     1       7.805  10.452  17.885  0.00  0.00    +0.000 OA
ATOM     20  H   UNL     1       9.858   8.299  19.035  0.00  0.00    +0.000 HD
BRANCH  18  21
ATOM     21  C   UNL     1      10.079  10.724  18.693  0.00  0.00    +0.000 C 
ATOM     22  C   UNL     1      10.042  11.391  20.094  0.00  0.00    +0.000 C 
ATOM     23  C   UNL     1      11.460  11.915  20.401  0.00  0.00    +0.000 C 
ATOM     24  C   UNL     1      11.874  12.973  19.357  0.00  0.00    +0.000 C 
ATOM     25  C   UNL     1      10.871  14.140  19.375  0.00  0.00    +0.000 C 
ATOM     26  C   UNL     1       9.457  13.621  19.063  0.00  0.00    +0.000 C 
ATOM     27  C   UNL     1       9.071  12.588  20.131  0.00  0.00    +0.000 C 
ATOM     28  C   UNL     1       9.444  12.955  17.680  0.00  0.00    +0.000 C 
ATOM     29  C   UNL     1      10.457  11.797  17.637  0.00  0.00    +0.000 C 
ATOM     30  C   UNL     1      11.861  12.337  17.959  0.00  0.00    +0.000 C 
ENDBRANCH  18  21
ENDBRANCH   4  17
TORSDOF 4
ENDMDL
