MODEL 1
REMARK VINA RESULT:      -9.5      0.000      0.000
REMARK  Name = 
REMARK  9 active torsions:
REMARK  status: ('A' for Active; 'I' for Inactive)
REMARK    1  A    between atoms: C_1  and  C_2
REMARK    2  A    between atoms: C_2  and  O_3
REMARK    3  A    between atoms: O_3  and  C_4
REMARK    4  A    between atoms: C_4  and  C_6
REMARK    5  A    between atoms: N_9  and  C_10
REMARK    6  A    between atoms: C_14  and  N_15
REMARK    7  A    between atoms: C_16  and  C_18
REMARK    8  A    between atoms: C_22  and  C_23
REMARK    9  A    between atoms: C_25  and  C_26
REMARK                            x       y       z     vdW  Elec       q    Type
REMARK                         _______ _______ _______ _____ _____    ______ ____
ROOT
ATOM      1  C   UNL     1       4.031   4.562  18.872  0.00  0.00    +0.000 A 
ATOM      2  C   UNL     1       3.539   3.277  19.143  0.00  0.00    +0.000 A 
ATOM      3  C   UNL     1       2.430   3.120  19.967  0.00  0.00    +0.000 A 
ATOM      4  C   UNL     1       1.817   4.240  20.531  0.00  0.00    +0.000 A 
ATOM      5  C   UNL     1       2.281   5.534  20.282  0.00  0.00    +0.000 A 
ATOM      6  C   UNL     1       3.386   5.694  19.424  0.00  0.00    +0.000 A 
ENDROOT
BRANCH   1  10
ATOM      7  C   UNL     1       6.392   4.771  16.276  0.00  0.00    +0.000 A 
ATOM      8  C   UNL     1       7.301   4.727  17.360  0.00  0.00    +0.000 A 
ATOM      9  C   UNL     1       6.520   4.701  18.493  0.00  0.00    +0.000 A 
ATOM     10  N   UNL     1       5.210   4.683  18.077  0.00  0.00    +0.000 N 
ATOM     11  N   UNL     1       5.124   4.761  16.724  0.00  0.00    +0.000 NA
BRANCH   7  12
ATOM     12  C   UNL     1       6.746   4.881  14.852  0.00  0.00    +0.000 C 
ATOM     13  O   UNL     1       7.793   5.394  14.468  0.00  0.00    +0.000 OA
BRANCH  12  14
ATOM     14  O   UNL     1       5.759   4.432  14.020  0.00  0.00    +0.000 OA
BRANCH  14  16
ATOM     15  C   UNL     1       4.996   3.320  12.051  0.00  0.00    +0.000 C 
ATOM     16  C   UNL     1       6.180   3.550  12.973  0.00  0.00    +0.000 C 
ENDBRANCH  14  16
ENDBRANCH  12  14
ENDBRANCH   7  12
ENDBRANCH   1  10
BRANCH   5  17
ATOM     17  N   UNL     1       1.721   6.703  20.875  0.00  0.00    +0.000 N 
ATOM     18  C   UNL     1       1.591   7.939  20.263  0.00  0.00    +0.000 C 
ATOM     19  O   UNL     1       2.008   8.220  19.144  0.00  0.00    +0.000 OA
ATOM     20  H   UNL     1       1.344   6.633  21.814  0.00  0.00    +0.000 HD
BRANCH  18  21
ATOM     21  C   UNL     1       0.895   8.971  21.016  0.00  0.00    +0.000 A 
ATOM     22  C   UNL     1       1.083   9.178  22.401  0.00  0.00    +0.000 A 
ATOM     23  N   UNL     1       0.357  10.173  22.900  0.00  0.00    +0.000 NA
ATOM     24  N   UNL     1      -0.260  10.705  21.821  0.00  0.00    +0.000 N 
ATOM     25  C   UNL     1      -1.001  11.894  21.774  0.00  0.00    +0.000 A 
ATOM     26  C   UNL     1      -1.213  12.690  23.024  0.00  0.00    +0.000 C 
ATOM     27  C   UNL     1      -1.485  12.305  20.595  0.00  0.00    +0.000 A 
ATOM     28  C   UNL     1      -1.385  11.332  19.465  0.00  0.00    +0.000 A 
ATOM     29  C   UNL     1      -2.249  11.650  18.271  0.00  0.00    +0.000 C 
ATOM     30  N   UNL     1      -0.658  10.243  19.467  0.00  0.00    +0.000 NA
ATOM     31  C   UNL     1      -0.027   9.945  20.650  0.00  0.00    +0.000 A 
ENDBRANCH  18  21
ENDBRANCH   5  17
TORSDOF 6
ENDMDL
MODEL 2
REMARK VINA RESULT:      -9.1      1.407      2.245
REMARK  Name = 
REMARK  9 active torsions:
REMARK  status: ('A' for Active; 'I' for Inactive)
REMARK    1  A    between atoms: C_1  and  C_2
REMARK    2  A    between atoms: C_2  and  O_3
REMARK    3  A    between atoms: O_3  and  C_4
REMARK    4  A    between atoms: C_4  and  C_6
REMARK    5  A    between atoms: N_9  and  C_10
REMARK    6  A    between atoms: C_14  and  N_15
REMARK    7  A    between atoms: C_16  and  C_18
REMARK    8  A    between atoms: C_22  and  C_23
REMARK    9  A    between atoms: C_25  and  C_26
REMARK                            x       y       z     vdW  Elec       q    Type
REMARK                         _______ _______ _______ _____ _____    ______ ____
ROOT
ATOM      1  C   UNL     1       3.114   4.036  18.994  0.00  0.00    +0.000 A 
ATOM      2  C   UNL     1       2.686   2.804  19.509  0.00  0.00    +0.000 A 
ATOM      3  C   UNL     1       1.752   2.769  20.538  0.00  0.00    +0.000 A 
ATOM      4  C   UNL     1       1.252   3.962  21.064  0.00  0.00    +0.000 A 
ATOM      5  C   UNL     1       1.656   5.207  20.576  0.00  0.00    +0.000 A 
ATOM      6  C   UNL     1       2.581   5.240  19.514  0.00  0.00    +0.000 A 
ENDROOT
BRANCH   1  10
ATOM      7  C   UNL     1       6.034   4.470  17.085  0.00  0.00    +0.000 A 
ATOM      8  C   UNL     1       5.220   3.910  16.070  0.00  0.00    +0.000 A 
ATOM      9  C   UNL     1       4.022   3.618  16.679  0.00  0.00    +0.000 A 
ATOM     10  N   UNL     1       4.123   4.036  17.985  0.00  0.00    +0.000 N 
ATOM     11  N   UNL     1       5.362   4.526  18.249  0.00  0.00    +0.000 NA
BRANCH   7  12
ATOM     12  C   UNL     1       7.439   4.880  16.941  0.00  0.00    +0.000 C 
ATOM     13  O   UNL     1       8.373   4.200  17.357  0.00  0.00    +0.000 OA
BRANCH  12  14
ATOM     14  O   UNL     1       7.579   6.117  16.378  0.00  0.00    +0.000 OA
BRANCH  14  16
ATOM     15  C   UNL     1       8.011   7.758  18.058  0.00  0.00    +0.000 C 
ATOM     16  C   UNL     1       6.976   7.201  17.096  0.00  0.00    +0.000 C 
ENDBRANCH  14  16
ENDBRANCH  12  14
ENDBRANCH   7  12
ENDBRANCH   1  10
BRANCH   5  17
ATOM     17  N   UNL     1       1.214   6.450  21.115  0.00  0.00    +0.000 N 
ATOM     18  C   UNL     1       1.438   7.699  20.560  0.00  0.00    +0.000 C 
ATOM     19  O   UNL     1       2.115   7.916  19.560  0.00  0.00    +0.000 OA
ATOM     20  H   UNL     1       0.651   6.435  21.958  0.00  0.00    +0.000 HD
BRANCH  18  21
ATOM     21  C   UNL     1       0.807   8.831  21.222  0.00  0.00    +0.000 A 
ATOM     22  C   UNL     1       0.983   9.122  22.593  0.00  0.00    +0.000 A 
ATOM     23  N   UNL     1       0.325  10.201  23.003  0.00  0.00    +0.000 NA
ATOM     24  N   UNL     1      -0.229  10.699  21.875  0.00  0.00    +0.000 N 
ATOM     25  C   UNL     1      -0.878  11.932  21.727  0.00  0.00    +0.000 A 
ATOM     26  C   UNL     1      -1.053  12.829  22.912  0.00  0.00    +0.000 C 
ATOM     27  C   UNL     1      -1.306  12.293  20.511  0.00  0.00    +0.000 A 
ATOM     28  C   UNL     1      -1.257  11.237  19.454  0.00  0.00    +0.000 A 
ATOM     29  C   UNL     1      -2.072  11.532  18.219  0.00  0.00    +0.000 C 
ATOM     30  N   UNL     1      -0.615  10.100  19.550  0.00  0.00    +0.000 NA
ATOM     31  C   UNL     1      -0.032   9.842  20.766  0.00  0.00    +0.000 A 
ENDBRANCH  18  21
ENDBRANCH   5  17
TORSDOF 6
ENDMDL
MODEL 3
REMARK VINA RESULT:      -8.5      0.964      1.138
REMARK  Name = 
REMARK  9 active torsions:
REMARK  status: ('A' for Active; 'I' for Inactive)
REMARK    1  A    between atoms: C_1  and  C_2
REMARK    2  A    between atoms: C_2  and  O_3
REMARK    3  A    between atoms: O_3  and  C_4
REMARK    4  A    between atoms: C_4  and  C_6
REMARK    5  A    between atoms: N_9  and  C_10
REMARK    6  A    between atoms: C_14  and  N_15
REMARK    7  A    between atoms: C_16  and  C_18
REMARK    8  A    between atoms: C_22  and  C_23
REMARK    9  A    between atoms: C_25  and  C_26
REMARK                            x       y       z     vdW  Elec       q    Type
REMARK                         _______ _______ _______ _____ _____    ______ ____
ROOT
ATOM      1  C   UNL     1       3.686   5.366  18.277  0.00  0.00    +0.000 A 
ATOM      2  C   UNL     1       3.768   4.063  18.791  0.00  0.00    +0.000 A 
ATOM      3  C   UNL     1       3.119   3.744  19.979  0.00  0.00    +0.000 A 
ATOM      4  C   UNL     1       2.397   4.725  20.662  0.00  0.00    +0.000 A 
ATOM      5  C   UNL     1       2.294   6.031  20.179  0.00  0.00    +0.000 A 
ATOM      6  C   UNL     1       2.928   6.346  18.961  0.00  0.00    +0.000 A 
ENDROOT
BRANCH   1  10
ATOM      7  C   UNL     1       5.809   5.355  15.475  0.00  0.00    +0.000 A 
ATOM      8  C   UNL     1       5.408   6.711  15.409  0.00  0.00    +0.000 A 
ATOM      9  C   UNL     1       4.503   6.877  16.432  0.00  0.00    +0.000 A 
ATOM     10  N   UNL     1       4.419   5.675  17.093  0.00  0.00    +0.000 N 
ATOM     11  N   UNL     1       5.188   4.730  16.491  0.00  0.00    +0.000 NA
BRANCH   7  12
ATOM     12  C   UNL     1       6.719   4.674  14.541  0.00  0.00    +0.000 C 
ATOM     13  O   UNL     1       7.848   5.089  14.296  0.00  0.00    +0.000 OA
BRANCH  12  14
ATOM     14  O   UNL     1       6.145   3.595  13.929  0.00  0.00    +0.000 OA
BRANCH  14  16
ATOM     15  C   UNL     1       4.962   3.238  11.886  0.00  0.00    +0.000 C 
ATOM     16  C   UNL     1       6.318   3.520  12.508  0.00  0.00    +0.000 C 
ENDBRANCH  14  16
ENDBRANCH  12  14
ENDBRANCH   7  12
ENDBRANCH   1  10
BRANCH   5  17
ATOM     17  N   UNL     1       1.612   7.078  20.866  0.00  0.00    +0.000 N 
ATOM     18  C   UNL     1       1.428   8.368  20.399  0.00  0.00    +0.000 C 
ATOM     19  O   UNL     1       1.892   8.814  19.354  0.00  0.00    +0.000 OA
ATOM     20  H   UNL     1       1.185   6.866  21.761  0.00  0.00    +0.000 HD
BRANCH  18  21
ATOM     21  C   UNL     1       0.612   9.250  21.220  0.00  0.00    +0.000 A 
ATOM     22  C   UNL     1       0.706   9.304  22.628  0.00  0.00    +0.000 A 
ATOM     23  N   UNL     1      -0.123  10.177  23.190  0.00  0.00    +0.000 NA
ATOM     24  N   UNL     1      -0.720  10.787  22.142  0.00  0.00    +0.000 N 
ATOM     25  C   UNL     1      -1.551  11.916  22.184  0.00  0.00    +0.000 A 
ATOM     26  C   UNL     1      -1.895  12.540  23.500  0.00  0.00    +0.000 C 
ATOM     27  C   UNL     1      -2.000  12.428  21.031  0.00  0.00    +0.000 A 
ATOM     28  C   UNL     1      -1.760  11.606  19.806  0.00  0.00    +0.000 A 
ATOM     29  C   UNL     1      -2.581  12.000  18.603  0.00  0.00    +0.000 C 
ATOM     30  N   UNL     1      -0.951  10.581  19.729  0.00  0.00    +0.000 NA
ATOM     31  C   UNL     1      -0.364  10.191  20.909  0.00  0.00    +0.000 A 
ENDBRANCH  18  21
ENDBRANCH   5  17
TORSDOF 6
ENDMDL
MODEL 4
REMARK VINA RESULT:      -8.4      3.503     10.044
REMARK  Name = 
REMARK  9 active torsions:
REMARK  status: ('A' for Active; 'I' for Inactive)
REMARK    1  A    between atoms: C_1  and  C_2
REMARK    2  A    between atoms: C_2  and  O_3
REMARK    3  A    between atoms: O_3  and  C_4
REMARK    4  A    between atoms: C_4  and  C_6
REMARK    5  A    between atoms: N_9  and  C_10
REMARK    6  A    between atoms: C_14  and  N_15
REMARK    7  A    between atoms: C_16  and  C_18
REMARK    8  A    between atoms: C_22  and  C_23
REMARK    9  A    between atoms: C_25  and  C_26
REMARK                            x       y       z     vdW  Elec       q    Type
REMARK                         _______ _______ _______ _____ _____    ______ ____
ROOT
ATOM      1  C   UNL     1      -1.058  11.147  18.043  0.00  0.00    +0.000 A 
ATOM      2  C   UNL     1      -0.569  12.293  18.686  0.00  0.00    +0.000 A 
ATOM      3  C   UNL     1       0.626  12.234  19.394  0.00  0.00    +0.000 A 
ATOM      4  C   UNL     1       1.331  11.031  19.472  0.00  0.00    +0.000 A 
ATOM      5  C   UNL     1       0.873   9.870  18.843  0.00  0.00    +0.000 A 
ATOM      6  C   UNL     1      -0.323   9.938  18.102  0.00  0.00    +0.000 A 
ENDROOT
BRANCH   1  10
ATOM      7  C   UNL     1      -4.448  11.520  17.190  0.00  0.00    +0.000 A 
ATOM      8  C   UNL     1      -3.986  11.035  15.942  0.00  0.00    +0.000 A 
ATOM      9  C   UNL     1      -2.626  10.886  16.086  0.00  0.00    +0.000 A 
ATOM     10  N   UNL     1      -2.320  11.226  17.382  0.00  0.00    +0.000 N 
ATOM     11  N   UNL     1      -3.424  11.649  18.052  0.00  0.00    +0.000 NA
BRANCH   7  12
ATOM     12  C   UNL     1      -5.831  11.904  17.513  0.00  0.00    +0.000 C 
ATOM     13  O   UNL     1      -6.344  12.939  17.098  0.00  0.00    +0.000 OA
BRANCH  12  14
ATOM     14  O   UNL     1      -6.437  11.036  18.376  0.00  0.00    +0.000 OA
BRANCH  14  16
ATOM     15  C   UNL     1      -6.392  11.972  20.572  0.00  0.00    +0.000 C 
ATOM     16  C   UNL     1      -7.268  11.633  19.379  0.00  0.00    +0.000 C 
ENDBRANCH  14  16
ENDBRANCH  12  14
ENDBRANCH   7  12
ENDBRANCH   1  10
BRANCH   5  17
ATOM     17  N   UNL     1       1.530   8.609  18.936  0.00  0.00    +0.000 N 
ATOM     18  C   UNL     1       1.643   7.837  20.081  0.00  0.00    +0.000 C 
ATOM     19  O   UNL     1       1.253   8.167  21.196  0.00  0.00    +0.000 OA
ATOM     20  H   UNL     1       1.922   8.207  18.091  0.00  0.00    +0.000 HD
BRANCH  18  21
ATOM     21  C   UNL     1       2.266   6.531  19.929  0.00  0.00    +0.000 A 
ATOM     22  C   UNL     1       2.068   5.469  20.839  0.00  0.00    +0.000 A 
ATOM     23  N   UNL     1       2.723   4.358  20.520  0.00  0.00    +0.000 NA
ATOM     24  N   UNL     1       3.299   4.643  19.331  0.00  0.00    +0.000 N 
ATOM     25  C   UNL     1       3.956   3.748  18.475  0.00  0.00    +0.000 A 
ATOM     26  C   UNL     1       4.115   2.315  18.874  0.00  0.00    +0.000 C 
ATOM     27  C   UNL     1       4.407   4.198  17.297  0.00  0.00    +0.000 A 
ATOM     28  C   UNL     1       4.372   5.679  17.098  0.00  0.00    +0.000 A 
ATOM     29  C   UNL     1       5.210   6.189  15.952  0.00  0.00    +0.000 C 
ATOM     30  N   UNL     1       3.724   6.528  17.854  0.00  0.00    +0.000 NA
ATOM     31  C   UNL     1       3.117   5.999  18.967  0.00  0.00    +0.000 A 
ENDBRANCH  18  21
ENDBRANCH   5  17
TORSDOF 6
ENDMDL
MODEL 5
REMARK VINA RESULT:      -8.4      1.836      2.622
REMARK  Name = 
REMARK  9 active torsions:
REMARK  status: ('A' for Active; 'I' for Inactive)
REMARK    1  A    between atoms: C_1  and  C_2
REMARK    2  A    between atoms: C_2  and  O_3
REMARK    3  A    between atoms: O_3  and  C_4
REMARK    4  A    between atoms: C_4  and  C_6
REMARK    5  A    between atoms: N_9  and  C_10
REMARK    6  A    between atoms: C_14  and  N_15
REMARK    7  A    between atoms: C_16  and  C_18
REMARK    8  A    between atoms: C_22  and  C_23
REMARK    9  A    between atoms: C_25  and  C_26
REMARK                            x       y       z     vdW  Elec       q    Type
REMARK                         _______ _______ _______ _____ _____    ______ ____
ROOT
ATOM      1  C   UNL     1       3.073   4.134  19.051  0.00  0.00    +0.000 A 
ATOM      2  C   UNL     1       2.602   2.898  19.515  0.00  0.00    +0.000 A 
ATOM      3  C   UNL     1       1.584   2.853  20.460  0.00  0.00    +0.000 A 
ATOM      4  C   UNL     1       1.039   4.041  20.953  0.00  0.00    +0.000 A 
ATOM      5  C   UNL     1       1.484   5.290  20.513  0.00  0.00    +0.000 A 
ATOM      6  C   UNL     1       2.496   5.333  19.535  0.00  0.00    +0.000 A 
ENDROOT
BRANCH   1  10
ATOM      7  C   UNL     1       6.166   4.526  17.428  0.00  0.00    +0.000 A 
ATOM      8  C   UNL     1       5.416   4.084  16.311  0.00  0.00    +0.000 A 
ATOM      9  C   UNL     1       4.156   3.821  16.796  0.00  0.00    +0.000 A 
ATOM     10  N   UNL     1       4.164   4.144  18.132  0.00  0.00    +0.000 N 
ATOM     11  N   UNL     1       5.399   4.542  18.533  0.00  0.00    +0.000 NA
BRANCH   7  12
ATOM     12  C   UNL     1       7.598   4.864  17.432  0.00  0.00    +0.000 C 
ATOM     13  O   UNL     1       8.467   4.056  17.747  0.00  0.00    +0.000 OA
BRANCH  12  14
ATOM     14  O   UNL     1       7.838   6.175  17.131  0.00  0.00    +0.000 OA
BRANCH  14  16
ATOM     15  C   UNL     1       7.864   8.487  17.725  0.00  0.00    +0.000 C 
ATOM     16  C   UNL     1       7.932   7.064  18.251  0.00  0.00    +0.000 C 
ENDBRANCH  14  16
ENDBRANCH  12  14
ENDBRANCH   7  12
ENDBRANCH   1  10
BRANCH   5  17
ATOM     17  N   UNL     1       0.996   6.528  21.024  0.00  0.00    +0.000 N 
ATOM     18  C   UNL     1       1.307   7.786  20.534  0.00  0.00    +0.000 C 
ATOM     19  O   UNL     1       2.108   8.014  19.633  0.00  0.00    +0.000 OA
ATOM     20  H   UNL     1       0.331   6.504  21.789  0.00  0.00    +0.000 HD
BRANCH  18  21
ATOM     21  C   UNL     1       0.616   8.913  21.141  0.00  0.00    +0.000 A 
ATOM     22  C   UNL     1      -0.153   8.805  22.321  0.00  0.00    +0.000 A 
ATOM     23  N   UNL     1      -0.700   9.951  22.714  0.00  0.00    +0.000 NA
ATOM     24  N   UNL     1      -0.220  10.863  21.839  0.00  0.00    +0.000 N 
ATOM     25  C   UNL     1      -0.347  12.257  21.919  0.00  0.00    +0.000 A 
ATOM     26  C   UNL     1      -1.123  12.871  23.041  0.00  0.00    +0.000 C 
ATOM     27  C   UNL     1       0.257  13.012  20.993  0.00  0.00    +0.000 A 
ATOM     28  C   UNL     1       0.826  12.286  19.817  0.00  0.00    +0.000 A 
ATOM     29  C   UNL     1       1.160  13.156  18.631  0.00  0.00    +0.000 C 
ATOM     30  N   UNL     1       1.003  10.992  19.741  0.00  0.00    +0.000 NA
ATOM     31  C   UNL     1       0.527  10.258  20.800  0.00  0.00    +0.000 A 
ENDBRANCH  18  21
ENDBRANCH   5  17
TORSDOF 6
ENDMDL
MODEL 6
REMARK VINA RESULT:      -8.4      2.693      9.558
REMARK  Name = 
REMARK  9 active torsions:
REMARK  status: ('A' for Active; 'I' for Inactive)
REMARK    1  A    between atoms: C_1  and  C_2
REMARK    2  A    between atoms: C_2  and  O_3
REMARK    3  A    between atoms: O_3  and  C_4
REMARK    4  A    between atoms: C_4  and  C_6
REMARK    5  A    between atoms: N_9  and  C_10
REMARK    6  A    between atoms: C_14  and  N_15
REMARK    7  A    between atoms: C_16  and  C_18
REMARK    8  A    between atoms: C_22  and  C_23
REMARK    9  A    between atoms: C_25  and  C_26
REMARK                            x       y       z     vdW  Elec       q    Type
REMARK                         _______ _______ _______ _____ _____    ______ ____
ROOT
ATOM      1  C   UNL     1      -0.106   9.968  20.133  0.00  0.00    +0.000 A 
ATOM      2  C   UNL     1      -0.125   9.893  21.533  0.00  0.00    +0.000 A 
ATOM      3  C   UNL     1       0.722   9.009  22.192  0.00  0.00    +0.000 A 
ATOM      4  C   UNL     1       1.582   8.191  21.457  0.00  0.00    +0.000 A 
ATOM      5  C   UNL     1       1.628   8.240  20.062  0.00  0.00    +0.000 A 
ATOM      6  C   UNL     1       0.790   9.156  19.397  0.00  0.00    +0.000 A 
ENDROOT
BRANCH   1  10
ATOM      7  C   UNL     1      -2.490  11.453  18.020  0.00  0.00    +0.000 A 
ATOM      8  C   UNL     1      -2.175  12.598  18.791  0.00  0.00    +0.000 A 
ATOM      9  C   UNL     1      -1.270  12.169  19.733  0.00  0.00    +0.000 A 
ATOM     10  N   UNL     1      -1.035  10.837  19.487  0.00  0.00    +0.000 N 
ATOM     11  N   UNL     1      -1.805  10.385  18.463  0.00  0.00    +0.000 NA
BRANCH   7  12
ATOM     12  C   UNL     1      -3.473  11.388  16.927  0.00  0.00    +0.000 C 
ATOM     13  O   UNL     1      -3.176  11.031  15.791  0.00  0.00    +0.000 OA
BRANCH  12  14
ATOM     14  O   UNL     1      -4.709  11.840  17.293  0.00  0.00    +0.000 OA
BRANCH  14  16
ATOM     15  C   UNL     1      -6.900  11.472  18.169  0.00  0.00    +0.000 C 
ATOM     16  C   UNL     1      -5.469  10.964  18.136  0.00  0.00    +0.000 C 
ENDBRANCH  14  16
ENDBRANCH  12  14
ENDBRANCH   7  12
ENDBRANCH   1  10
BRANCH   5  17
ATOM     17  N   UNL     1       2.450   7.389  19.267  0.00  0.00    +0.000 N 
ATOM     18  C   UNL     1       2.427   6.004  19.272  0.00  0.00    +0.000 C 
ATOM     19  O   UNL     1       1.743   5.312  20.019  0.00  0.00    +0.000 OA
ATOM     20  H   UNL     1       3.088   7.818  18.605  0.00  0.00    +0.000 HD
BRANCH  18  21
ATOM     21  C   UNL     1       3.282   5.333  18.305  0.00  0.00    +0.000 A 
ATOM     22  C   UNL     1       2.914   4.139  17.645  0.00  0.00    +0.000 A 
ATOM     23  N   UNL     1       3.833   3.688  16.797  0.00  0.00    +0.000 NA
ATOM     24  N   UNL     1       4.794   4.638  16.815  0.00  0.00    +0.000 N 
ATOM     25  C   UNL     1       5.900   4.735  15.960  0.00  0.00    +0.000 A 
ATOM     26  C   UNL     1       6.133   3.685  14.919  0.00  0.00    +0.000 C 
ATOM     27  C   UNL     1       6.717   5.790  16.080  0.00  0.00    +0.000 A 
ATOM     28  C   UNL     1       6.501   6.658  17.278  0.00  0.00    +0.000 A 
ATOM     29  C   UNL     1       7.636   7.599  17.596  0.00  0.00    +0.000 C 
ATOM     30  N   UNL     1       5.453   6.621  18.060  0.00  0.00    +0.000 NA
ATOM     31  C   UNL     1       4.541   5.630  17.793  0.00  0.00    +0.000 A 
ENDBRANCH  18  21
ENDBRANCH   5  17
TORSDOF 6
ENDMDL
MODEL 7
REMARK VINA RESULT:      -8.3      1.542      1.806
REMARK  Name = 
REMARK  9 active torsions:
REMARK  status: ('A' for Active; 'I' for Inactive)
REMARK    1  A    between atoms: C_1  and  C_2
REMARK    2  A    between atoms: C_2  and  O_3
REMARK    3  A    between atoms: O_3  and  C_4
REMARK    4  A    between atoms: C_4  and  C_6
REMARK    5  A    between atoms: N_9  and  C_10
REMARK    6  A    between atoms: C_14  and  N_15
REMARK    7  A    between atoms: C_16  and  C_18
REMARK    8  A    between atoms: C_22  and  C_23
REMARK    9  A    between atoms: C_25  and  C_26
REMARK                            x       y       z     vdW  Elec       q    Type
REMARK                         _______ _______ _______ _____ _____    ______ ____
ROOT
ATOM      1  C   UNL     1       3.202   5.788  18.848  0.00  0.00    +0.000 A 
ATOM      2  C   UNL     1       2.926   4.517  19.370  0.00  0.00    +0.000 A 
ATOM      3  C   UNL     1       2.083   4.386  20.468  0.00  0.00    +0.000 A 
ATOM      4  C   UNL     1       1.521   5.522  21.053  0.00  0.00    +0.000 A 
ATOM      5  C   UNL     1       1.774   6.804  20.559  0.00  0.00    +0.000 A 
ATOM      6  C   UNL     1       2.606   6.933  19.430  0.00  0.00    +0.000 A 
ENDROOT
BRANCH   1  10
ATOM      7  C   UNL     1       5.726   5.286  16.453  0.00  0.00    +0.000 A 
ATOM      8  C   UNL     1       5.415   6.629  16.128  0.00  0.00    +0.000 A 
ATOM      9  C   UNL     1       4.374   6.976  16.958  0.00  0.00    +0.000 A 
ATOM     10  N   UNL     1       4.124   5.891  17.764  0.00  0.00    +0.000 N 
ATOM     11  N   UNL     1       4.923   4.842  17.436  0.00  0.00    +0.000 NA
BRANCH   7  12
ATOM     12  C   UNL     1       6.730   4.443  15.785  0.00  0.00    +0.000 C 
ATOM     13  O   UNL     1       7.913   4.438  16.113  0.00  0.00    +0.000 OA
BRANCH  12  14
ATOM     14  O   UNL     1       6.221   3.743  14.728  0.00  0.00    +0.000 OA
BRANCH  14  16
ATOM     15  C   UNL     1       5.920   3.336  12.395  0.00  0.00    +0.000 C 
ATOM     16  C   UNL     1       6.628   4.192  13.430  0.00  0.00    +0.000 C 
ENDBRANCH  14  16
ENDBRANCH  12  14
ENDBRANCH   7  12
ENDBRANCH   1  10
BRANCH   5  17
ATOM     17  N   UNL     1       1.266   7.995  21.153  0.00  0.00    +0.000 N 
ATOM     18  C   UNL     1       0.852   9.128  20.472  0.00  0.00    +0.000 C 
ATOM     19  O   UNL     1       0.934   9.292  19.258  0.00  0.00    +0.000 OA
ATOM     20  H   UNL     1       1.154   8.020  22.161  0.00  0.00    +0.000 HD
BRANCH  18  21
ATOM     21  C   UNL     1       0.270  10.196  21.271  0.00  0.00    +0.000 A 
ATOM     22  C   UNL     1      -0.158  10.018  22.605  0.00  0.00    +0.000 A 
ATOM     23  N   UNL     1      -0.658  11.117  23.161  0.00  0.00    +0.000 NA
ATOM     24  N   UNL     1      -0.481  12.072  22.221  0.00  0.00    +0.000 N 
ATOM     25  C   UNL     1      -0.673  13.452  22.375  0.00  0.00    +0.000 A 
ATOM     26  C   UNL     1      -1.171  13.995  23.677  0.00  0.00    +0.000 C 
ATOM     27  C   UNL     1      -0.380  14.261  21.349  0.00  0.00    +0.000 A 
ATOM     28  C   UNL     1      -0.088  13.593  20.044  0.00  0.00    +0.000 A 
ATOM     29  C   UNL     1      -0.131  14.500  18.839  0.00  0.00    +0.000 C 
ATOM     30  N   UNL     1       0.146  12.315  19.884  0.00  0.00    +0.000 NA
ATOM     31  C   UNL     1       0.009  11.536  21.006  0.00  0.00    +0.000 A 
ENDBRANCH  18  21
ENDBRANCH   5  17
TORSDOF 6
ENDMDL
MODEL 8
REMARK VINA RESULT:      -8.3      3.318     10.092
REMARK  Name = 
REMARK  9 active torsions:
REMARK  status: ('A' for Active; 'I' for Inactive)
REMARK    1  A    between atoms: C_1  and  C_2
REMARK    2  A    between atoms: C_2  and  O_3
REMARK    3  A    between atoms: O_3  and  C_4
REMARK    4  A    between atoms: C_4  and  C_6
REMARK    5  A    between atoms: N_9  and  C_10
REMARK    6  A    between atoms: C_14  and  N_15
REMARK    7  A    between atoms: C_16  and  C_18
REMARK    8  A    between atoms: C_22  and  C_23
REMARK    9  A    between atoms: C_25  and  C_26
REMARK                            x       y       z     vdW  Elec       q    Type
REMARK                         _______ _______ _______ _____ _____    ______ ____
ROOT
ATOM      1  C   UNL     1      -0.647  11.516  18.839  0.00  0.00    +0.000 A 
ATOM      2  C   UNL     1       0.204  12.614  18.650  0.00  0.00    +0.000 A 
ATOM      3  C   UNL     1       1.567  12.411  18.460  0.00  0.00    +0.000 A 
ATOM      4  C   UNL     1       2.084  11.114  18.469  0.00  0.00    +0.000 A 
ATOM      5  C   UNL     1       1.266   9.998  18.654  0.00  0.00    +0.000 A 
ATOM      6  C   UNL     1      -0.118  10.203  18.818  0.00  0.00    +0.000 A 
ENDROOT
BRANCH   1  10
ATOM      7  C   UNL     1      -4.148  11.807  18.703  0.00  0.00    +0.000 A 
ATOM      8  C   UNL     1      -3.942  12.514  19.912  0.00  0.00    +0.000 A 
ATOM      9  C   UNL     1      -2.589  12.444  20.153  0.00  0.00    +0.000 A 
ATOM     10  N   UNL     1      -2.028  11.765  19.098  0.00  0.00    +0.000 N 
ATOM     11  N   UNL     1      -2.980  11.341  18.226  0.00  0.00    +0.000 NA
BRANCH   7  12
ATOM     12  C   UNL     1      -5.446  11.541  18.065  0.00  0.00    +0.000 C 
ATOM     13  O   UNL     1      -6.157  10.591  18.381  0.00  0.00    +0.000 OA
BRANCH  12  14
ATOM     14  O   UNL     1      -5.726  12.405  17.044  0.00  0.00    +0.000 OA
BRANCH  14  16
ATOM     15  C   UNL     1      -6.847  14.502  16.824  0.00  0.00    +0.000 C 
ATOM     16  C   UNL     1      -7.022  13.016  17.082  0.00  0.00    +0.000 C 
ENDBRANCH  14  16
ENDBRANCH  12  14
ENDBRANCH   7  12
ENDBRANCH   1  10
BRANCH   5  17
ATOM     17  N   UNL     1       1.755   8.661  18.723  0.00  0.00    +0.000 N 
ATOM     18  C   UNL     1       1.864   7.896  19.873  0.00  0.00    +0.000 C 
ATOM     19  O   UNL     1       1.621   8.291  21.009  0.00  0.00    +0.000 OA
ATOM     20  H   UNL     1       2.014   8.199  17.858  0.00  0.00    +0.000 HD
BRANCH  18  21
ATOM     21  C   UNL     1       2.293   6.516  19.701  0.00  0.00    +0.000 A 
ATOM     22  C   UNL     1       1.887   5.468  20.557  0.00  0.00    +0.000 A 
ATOM     23  N   UNL     1       2.387   4.281  20.227  0.00  0.00    +0.000 NA
ATOM     24  N   UNL     1       3.064   4.514  19.082  0.00  0.00    +0.000 N 
ATOM     25  C   UNL     1       3.627   3.558  18.225  0.00  0.00    +0.000 A 
ATOM     26  C   UNL     1       3.547   2.105  18.575  0.00  0.00    +0.000 C 
ATOM     27  C   UNL     1       4.205   3.971  17.090  0.00  0.00    +0.000 A 
ATOM     28  C   UNL     1       4.404   5.446  16.949  0.00  0.00    +0.000 A 
ATOM     29  C   UNL     1       5.371   5.859  15.868  0.00  0.00    +0.000 C 
ATOM     30  N   UNL     1       3.848   6.359  17.704  0.00  0.00    +0.000 NA
ATOM     31  C   UNL     1       3.108   5.892  18.763  0.00  0.00    +0.000 A 
ENDBRANCH  18  21
ENDBRANCH   5  17
TORSDOF 6
ENDMDL
MODEL 9
REMARK VINA RESULT:      -8.3      3.455     10.322
REMARK  Name = 
REMARK  9 active torsions:
REMARK  status: ('A' for Active; 'I' for Inactive)
REMARK    1  A    between atoms: C_1  and  C_2
REMARK    2  A    between atoms: C_2  and  O_3
REMARK    3  A    between atoms: O_3  and  C_4
REMARK    4  A    between atoms: C_4  and  C_6
REMARK    5  A    between atoms: N_9  and  C_10
REMARK    6  A    between atoms: C_14  and  N_15
REMARK    7  A    between atoms: C_16  and  C_18
REMARK    8  A    between atoms: C_22  and  C_23
REMARK    9  A    between atoms: C_25  and  C_26
REMARK                            x       y       z     vdW  Elec       q    Type
REMARK                         _______ _______ _______ _____ _____    ______ ____
ROOT
ATOM      1  C   UNL     1      -1.267  11.932  19.095  0.00  0.00    +0.000 A 
ATOM      2  C   UNL     1      -0.481  13.073  18.877  0.00  0.00    +0.000 A 
ATOM      3  C   UNL     1       0.898  12.949  18.745  0.00  0.00    +0.000 A 
ATOM      4  C   UNL     1       1.497  11.691  18.843  0.00  0.00    +0.000 A 
ATOM      5  C   UNL     1       0.744  10.535  19.059  0.00  0.00    +0.000 A 
ATOM      6  C   UNL     1      -0.655  10.658  19.164  0.00  0.00    +0.000 A 
ENDROOT
BRANCH   1  10
ATOM      7  C   UNL     1      -4.773  11.950  18.841  0.00  0.00    +0.000 A 
ATOM      8  C   UNL     1      -4.657  12.786  19.978  0.00  0.00    +0.000 A 
ATOM      9  C   UNL     1      -3.312  12.840  20.258  0.00  0.00    +0.000 A 
ATOM     10  N   UNL     1      -2.669  12.103  19.292  0.00  0.00    +0.000 N 
ATOM     11  N   UNL     1      -3.560  11.526  18.443  0.00  0.00    +0.000 NA
BRANCH   7  12
ATOM     12  C   UNL     1      -6.028  11.527  18.199  0.00  0.00    +0.000 C 
ATOM     13  O   UNL     1      -6.679  12.267  17.468  0.00  0.00    +0.000 OA
BRANCH  12  14
ATOM     14  O   UNL     1      -6.420  10.272  18.571  0.00  0.00    +0.000 OA
BRANCH  14  16
ATOM     15  C   UNL     1      -7.340   8.731  20.144  0.00  0.00    +0.000 C 
ATOM     16  C   UNL     1      -7.218  10.194  19.758  0.00  0.00    +0.000 C 
ENDBRANCH  14  16
ENDBRANCH  12  14
ENDBRANCH   7  12
ENDBRANCH   1  10
BRANCH   5  17
ATOM     17  N   UNL     1       1.314   9.238  19.217  0.00  0.00    +0.000 N 
ATOM     18  C   UNL     1       2.047   8.554  18.261  0.00  0.00    +0.000 C 
ATOM     19  O   UNL     1       2.246   8.940  17.114  0.00  0.00    +0.000 OA
ATOM     20  H   UNL     1       1.218   8.777  20.115  0.00  0.00    +0.000 HD
BRANCH  18  21
ATOM     21  C   UNL     1       2.625   7.282  18.668  0.00  0.00    +0.000 A 
ATOM     22  C   UNL     1       2.293   6.633  19.878  0.00  0.00    +0.000 A 
ATOM     23  N   UNL     1       2.928   5.480  20.061  0.00  0.00    +0.000 NA
ATOM     24  N   UNL     1       3.628   5.302  18.919  0.00  0.00    +0.000 N 
ATOM     25  C   UNL     1       4.325   4.151  18.527  0.00  0.00    +0.000 A 
ATOM     26  C   UNL     1       4.382   2.967  19.440  0.00  0.00    +0.000 C 
ATOM     27  C   UNL     1       4.907   4.130  17.321  0.00  0.00    +0.000 A 
ATOM     28  C   UNL     1       4.956   5.433  16.589  0.00  0.00    +0.000 A 
ATOM     29  C   UNL     1       5.922   5.478  15.431  0.00  0.00    +0.000 C 
ATOM     30  N   UNL     1       4.275   6.504  16.906  0.00  0.00    +0.000 NA
ATOM     31  C   UNL     1       3.541   6.427  18.065  0.00  0.00    +0.000 A 
ENDBRANCH  18  21
ENDBRANCH   5  17
TORSDOF 6
ENDMDL
