MODEL 1
REMARK VINA RESULT:      -8.6      0.000      0.000
REMARK  Name = 
REMARK  5 active torsions:
REMARK  status: ('A' for Active; 'I' for Inactive)
REMARK    1  A    between atoms: C_1  and  C_2
REMARK    2  A    between atoms: C_8  and  C_9
REMARK    3  A    between atoms: N_11  and  C_12
REMARK    4  A    between atoms: C_15  and  C_16
REMARK    5  A    between atoms: C_16  and  C_17
REMARK                            x       y       z     vdW  Elec       q    Type
REMARK                         _______ _______ _______ _____ _____    ______ ____
ROOT
ATOM      1  C   UNL     1       8.027   8.399  18.101  0.00  0.00    +0.000 A 
ATOM      2  C   UNL     1       8.442   7.368  18.942  0.00  0.00    +0.000 A 
ATOM      3  C   UNL     1       7.837   6.105  18.878  0.00  0.00    +0.000 A 
ATOM      4  C   UNL     1       6.787   5.840  17.987  0.00  0.00    +0.000 A 
ATOM      5  C   UNL     1       6.311   6.902  17.208  0.00  0.00    +0.000 A 
ATOM      6  C   UNL     1       6.913   8.172  17.281  0.00  0.00    +0.000 A 
ENDROOT
BRANCH   1   9
ATOM      7  C   UNL     1       9.152  10.439  19.022  0.00  0.00    +0.000 C 
ATOM      8  O   UNL     1       9.007  10.187  20.216  0.00  0.00    +0.000 OA
ATOM      9  N   UNL     1       8.702   9.644  17.982  0.00  0.00    +0.000 N 
ATOM     10  H   UNL     1       9.020   9.874  17.054  0.00  0.00    +0.000 HD
BRANCH   7  18
ATOM     11  C   UNL     1      10.820  12.317  20.988  0.00  0.00    +0.000 C 
ATOM     12  C   UNL     1      10.794  12.498  19.500  0.00  0.00    +0.000 A 
ATOM     13  C   UNL     1      11.577  13.451  18.949  0.00  0.00    +0.000 A 
ATOM     14  C   UNL     1      11.617  13.672  17.483  0.00  0.00    +0.000 A 
ATOM     15  O   UNL     1      12.333  14.532  16.984  0.00  0.00    +0.000 OA
ATOM     16  N   UNL     1      10.802  12.853  16.749  0.00  0.00    +0.000 N 
ATOM     17  C   UNL     1      10.021  11.862  17.295  0.00  0.00    +0.000 A 
ATOM     18  C   UNL     1       9.974  11.648  18.626  0.00  0.00    +0.000 A 
ATOM     19  H   UNL     1      10.840  12.975  15.741  0.00  0.00    +0.000 HD
ENDBRANCH   7  18
ENDBRANCH   1   9
BRANCH   4  20
ATOM     20  C   UNL     1       6.344   4.397  17.801  0.00  0.00    +0.000 C 
BRANCH  20  21
ATOM     21  C   UNL     1       5.012   3.984  18.365  0.00  0.00    +0.000 A 
ATOM     22  N   UNL     1       4.850   3.450  19.562  0.00  0.00    +0.000 NA
ATOM     23  C   UNL     1       3.502   3.275  19.830  0.00  0.00    +0.000 A 
ATOM     24  C   UNL     1       2.947   2.737  21.013  0.00  0.00    +0.000 A 
ATOM     25  C   UNL     1       1.561   2.575  21.123  0.00  0.00    +0.000 A 
ATOM     26  C   UNL     1       0.722   2.957  20.082  0.00  0.00    +0.000 A 
ATOM     27  C   UNL     1       1.244   3.521  18.914  0.00  0.00    +0.000 A 
ATOM     28  C   UNL     1       2.638   3.672  18.810  0.00  0.00    +0.000 A 
ATOM     29  S   UNL     1       3.560   4.330  17.513  0.00  0.00    +0.000 S 
ENDBRANCH  20  21
ENDBRANCH   4  20
TORSDOF 4
ENDMDL
MODEL 2
REMARK VINA RESULT:      -8.5      7.320     10.423
REMARK  Name = 
REMARK  5 active torsions:
REMARK  status: ('A' for Active; 'I' for Inactive)
REMARK    1  A    between atoms: C_1  and  C_2
REMARK    2  A    between atoms: C_8  and  C_9
REMARK    3  A    between atoms: N_11  and  C_12
REMARK    4  A    between atoms: C_15  and  C_16
REMARK    5  A    between atoms: C_16  and  C_17
REMARK                            x       y       z     vdW  Elec       q    Type
REMARK                         _______ _______ _______ _____ _____    ______ ____
ROOT
ATOM      1  C   UNL     1       1.834   8.254  19.676  0.00  0.00    +0.000 A 
ATOM      2  C   UNL     1       1.018   8.974  20.546  0.00  0.00    +0.000 A 
ATOM      3  C   UNL     1       0.441  10.189  20.147  0.00  0.00    +0.000 A 
ATOM      4  C   UNL     1       0.677  10.728  18.874  0.00  0.00    +0.000 A 
ATOM      5  C   UNL     1       1.569  10.050  18.035  0.00  0.00    +0.000 A 
ATOM      6  C   UNL     1       2.155   8.836  18.441  0.00  0.00    +0.000 A 
ENDROOT
BRANCH   1   9
ATOM      7  C   UNL     1       2.549   5.950  19.003  0.00  0.00    +0.000 C 
ATOM      8  O   UNL     1       2.358   6.060  17.794  0.00  0.00    +0.000 OA
ATOM      9  N   UNL     1       2.309   6.941  19.939  0.00  0.00    +0.000 N 
ATOM     10  H   UNL     1       2.654   6.787  20.873  0.00  0.00    +0.000 HD
BRANCH   7  18
ATOM     11  C   UNL     1       1.146   3.712  20.793  0.00  0.00    +0.000 C 
ATOM     12  C   UNL     1       2.561   3.611  20.307  0.00  0.00    +0.000 A 
ATOM     13  C   UNL     1       3.258   2.483  20.566  0.00  0.00    +0.000 A 
ATOM     14  C   UNL     1       4.653   2.307  20.097  0.00  0.00    +0.000 A 
ATOM     15  O   UNL     1       5.281   1.280  20.326  0.00  0.00    +0.000 OA
ATOM     16  N   UNL     1       5.172   3.366  19.402  0.00  0.00    +0.000 N 
ATOM     17  C   UNL     1       4.466   4.508  19.108  0.00  0.00    +0.000 A 
ATOM     18  C   UNL     1       3.195   4.683  19.527  0.00  0.00    +0.000 A 
ATOM     19  H   UNL     1       6.118   3.248  19.052  0.00  0.00    +0.000 HD
ENDBRANCH   7  18
ENDBRANCH   1   9
BRANCH   4  20
ATOM     20  C   UNL     1      -0.165  11.912  18.425  0.00  0.00    +0.000 C 
BRANCH  20  21
ATOM     21  C   UNL     1      -1.642  11.880  18.703  0.00  0.00    +0.000 A 
ATOM     22  N   UNL     1      -2.211  12.461  19.744  0.00  0.00    +0.000 NA
ATOM     23  C   UNL     1      -3.590  12.340  19.667  0.00  0.00    +0.000 A 
ATOM     24  C   UNL     1      -4.527  12.843  20.597  0.00  0.00    +0.000 A 
ATOM     25  C   UNL     1      -5.893  12.601  20.411  0.00  0.00    +0.000 A 
ATOM     26  C   UNL     1      -6.338  11.884  19.306  0.00  0.00    +0.000 A 
ATOM     27  C   UNL     1      -5.432  11.403  18.354  0.00  0.00    +0.000 A 
ATOM     28  C   UNL     1      -4.062  11.644  18.554  0.00  0.00    +0.000 A 
ATOM     29  S   UNL     1      -2.729  11.186  17.566  0.00  0.00    +0.000 S 
ENDBRANCH  20  21
ENDBRANCH   4  20
TORSDOF 4
ENDMDL
MODEL 3
REMARK VINA RESULT:      -8.5      7.246     10.402
REMARK  Name = 
REMARK  5 active torsions:
REMARK  status: ('A' for Active; 'I' for Inactive)
REMARK    1  A    between atoms: C_1  and  C_2
REMARK    2  A    between atoms: C_8  and  C_9
REMARK    3  A    between atoms: N_11  and  C_12
REMARK    4  A    between atoms: C_15  and  C_16
REMARK    5  A    between atoms: C_16  and  C_17
REMARK                            x       y       z     vdW  Elec       q    Type
REMARK                         _______ _______ _______ _____ _____    ______ ____
ROOT
ATOM      1  C   UNL     1       1.841   8.408  19.737  0.00  0.00    +0.000 A 
ATOM      2  C   UNL     1       1.050   9.132  20.627  0.00  0.00    +0.000 A 
ATOM      3  C   UNL     1       0.508  10.372  20.258  0.00  0.00    +0.000 A 
ATOM      4  C   UNL     1       0.756  10.933  18.996  0.00  0.00    +0.000 A 
ATOM      5  C   UNL     1       1.625  10.247  18.139  0.00  0.00    +0.000 A 
ATOM      6  C   UNL     1       2.176   9.007  18.515  0.00  0.00    +0.000 A 
ENDROOT
BRANCH   1   9
ATOM      7  C   UNL     1       2.467   6.094  19.012  0.00  0.00    +0.000 C 
ATOM      8  O   UNL     1       2.258   6.232  17.809  0.00  0.00    +0.000 OA
ATOM      9  N   UNL     1       2.277   7.075  19.969  0.00  0.00    +0.000 N 
ATOM     10  H   UNL     1       2.634   6.894  20.893  0.00  0.00    +0.000 HD
BRANCH   7  18
ATOM     11  C   UNL     1       0.940   3.724  20.504  0.00  0.00    +0.000 C 
ATOM     12  C   UNL     1       2.394   3.668  20.142  0.00  0.00    +0.000 A 
ATOM     13  C   UNL     1       3.080   2.529  20.384  0.00  0.00    +0.000 A 
ATOM     14  C   UNL     1       4.514   2.397  20.033  0.00  0.00    +0.000 A 
ATOM     15  O   UNL     1       5.133   1.361  20.246  0.00  0.00    +0.000 OA
ATOM     16  N   UNL     1       5.079   3.508  19.464  0.00  0.00    +0.000 N 
ATOM     17  C   UNL     1       4.386   4.662  19.189  0.00  0.00    +0.000 A 
ATOM     18  C   UNL     1       3.081   4.798  19.502  0.00  0.00    +0.000 A 
ATOM     19  H   UNL     1       6.054   3.421  19.195  0.00  0.00    +0.000 HD
ENDBRANCH   7  18
ENDBRANCH   1   9
BRANCH   4  20
ATOM     20  C   UNL     1      -0.051  12.151  18.577  0.00  0.00    +0.000 C 
BRANCH  20  21
ATOM     21  C   UNL     1      -1.550  12.080  18.679  0.00  0.00    +0.000 A 
ATOM     22  N   UNL     1      -2.319  11.433  17.823  0.00  0.00    +0.000 NA
ATOM     23  C   UNL     1      -3.640  11.468  18.243  0.00  0.00    +0.000 A 
ATOM     24  C   UNL     1      -4.742  10.879  17.585  0.00  0.00    +0.000 A 
ATOM     25  C   UNL     1      -6.032  11.039  18.106  0.00  0.00    +0.000 A 
ATOM     26  C   UNL     1      -6.235  11.760  19.277  0.00  0.00    +0.000 A 
ATOM     27  C   UNL     1      -5.156  12.326  19.963  0.00  0.00    +0.000 A 
ATOM     28  C   UNL     1      -3.866  12.167  19.429  0.00  0.00    +0.000 A 
ATOM     29  S   UNL     1      -2.363  12.739  20.043  0.00  0.00    +0.000 S 
ENDBRANCH  20  21
ENDBRANCH   4  20
TORSDOF 4
ENDMDL
MODEL 4
REMARK VINA RESULT:      -8.5      1.716      2.264
REMARK  Name = 
REMARK  5 active torsions:
REMARK  status: ('A' for Active; 'I' for Inactive)
REMARK    1  A    between atoms: C_1  and  C_2
REMARK    2  A    between atoms: C_8  and  C_9
REMARK    3  A    between atoms: N_11  and  C_12
REMARK    4  A    between atoms: C_15  and  C_16
REMARK    5  A    between atoms: C_16  and  C_17
REMARK                            x       y       z     vdW  Elec       q    Type
REMARK                         _______ _______ _______ _____ _____    ______ ____
ROOT
ATOM      1  C   UNL     1       8.319   7.957  18.654  0.00  0.00    +0.000 A 
ATOM      2  C   UNL     1       7.628   8.010  17.446  0.00  0.00    +0.000 A 
ATOM      3  C   UNL     1       6.964   6.879  16.949  0.00  0.00    +0.000 A 
ATOM      4  C   UNL     1       6.987   5.657  17.637  0.00  0.00    +0.000 A 
ATOM      5  C   UNL     1       7.758   5.581  18.804  0.00  0.00    +0.000 A 
ATOM      6  C   UNL     1       8.431   6.715  19.295  0.00  0.00    +0.000 A 
ENDROOT
BRANCH   1   9
ATOM      7  C   UNL     1       9.354  10.238  18.695  0.00  0.00    +0.000 C 
ATOM      8  O   UNL     1       9.410  10.419  17.481  0.00  0.00    +0.000 OA
ATOM      9  N   UNL     1       8.864   9.097  19.306  0.00  0.00    +0.000 N 
ATOM     10  H   UNL     1       8.722   9.131  20.303  0.00  0.00    +0.000 HD
BRANCH   7  18
ATOM     11  C   UNL     1      11.867  12.174  18.361  0.00  0.00    +0.000 C 
ATOM     12  C   UNL     1      10.861  12.312  19.464  0.00  0.00    +0.000 A 
ATOM     13  C   UNL     1      10.972  13.355  20.316  0.00  0.00    +0.000 A 
ATOM     14  C   UNL     1      10.001  13.564  21.417  0.00  0.00    +0.000 A 
ATOM     15  O   UNL     1      10.099  14.515  22.185  0.00  0.00    +0.000 OA
ATOM     16  N   UNL     1       9.008  12.626  21.504  0.00  0.00    +0.000 N 
ATOM     17  C   UNL     1       8.869  11.576  20.628  0.00  0.00    +0.000 A 
ATOM     18  C   UNL     1       9.743  11.372  19.621  0.00  0.00    +0.000 A 
ATOM     19  H   UNL     1       8.321  12.773  22.238  0.00  0.00    +0.000 HD
ENDBRANCH   7  18
ENDBRANCH   1   9
BRANCH   4  20
ATOM     20  C   UNL     1       6.055   4.550  17.171  0.00  0.00    +0.000 C 
BRANCH  20  21
ATOM     21  C   UNL     1       4.869   4.210  18.032  0.00  0.00    +0.000 A 
ATOM     22  N   UNL     1       4.917   3.389  19.065  0.00  0.00    +0.000 NA
ATOM     23  C   UNL     1       3.692   3.360  19.712  0.00  0.00    +0.000 A 
ATOM     24  C   UNL     1       3.369   2.602  20.860  0.00  0.00    +0.000 A 
ATOM     25  C   UNL     1       2.068   2.638  21.377  0.00  0.00    +0.000 A 
ATOM     26  C   UNL     1       1.094   3.429  20.779  0.00  0.00    +0.000 A 
ATOM     27  C   UNL     1       1.397   4.213  19.661  0.00  0.00    +0.000 A 
ATOM     28  C   UNL     1       2.703   4.164  19.144  0.00  0.00    +0.000 A 
ATOM     29  S   UNL     1       3.365   5.010  17.799  0.00  0.00    +0.000 S 
ENDBRANCH  20  21
ENDBRANCH   4  20
TORSDOF 4
ENDMDL
MODEL 5
REMARK VINA RESULT:      -8.4      5.753     10.736
REMARK  Name = 
REMARK  5 active torsions:
REMARK  status: ('A' for Active; 'I' for Inactive)
REMARK    1  A    between atoms: C_1  and  C_2
REMARK    2  A    between atoms: C_8  and  C_9
REMARK    3  A    between atoms: N_11  and  C_12
REMARK    4  A    between atoms: C_15  and  C_16
REMARK    5  A    between atoms: C_16  and  C_17
REMARK                            x       y       z     vdW  Elec       q    Type
REMARK                         _______ _______ _______ _____ _____    ______ ____
ROOT
ATOM      1  C   UNL     1       1.844   8.023  19.548  0.00  0.00    +0.000 A 
ATOM      2  C   UNL     1       2.099   8.654  18.332  0.00  0.00    +0.000 A 
ATOM      3  C   UNL     1       1.720   9.988  18.124  0.00  0.00    +0.000 A 
ATOM      4  C   UNL     1       1.060  10.725  19.118  0.00  0.00    +0.000 A 
ATOM      5  C   UNL     1       0.724  10.062  20.304  0.00  0.00    +0.000 A 
ATOM      6  C   UNL     1       1.096   8.720  20.507  0.00  0.00    +0.000 A 
ENDROOT
BRANCH   1   9
ATOM      7  C   UNL     1       2.454   5.643  19.060  0.00  0.00    +0.000 C 
ATOM      8  O   UNL     1       2.097   5.615  17.885  0.00  0.00    +0.000 OA
ATOM      9  N   UNL     1       2.349   6.741  19.897  0.00  0.00    +0.000 N 
ATOM     10  H   UNL     1       2.820   6.691  20.786  0.00  0.00    +0.000 HD
BRANCH   7  18
ATOM     11  C   UNL     1       1.210   3.496  21.065  0.00  0.00    +0.000 C 
ATOM     12  C   UNL     1       2.603   3.402  20.516  0.00  0.00    +0.000 A 
ATOM     13  C   UNL     1       3.347   2.314  20.816  0.00  0.00    +0.000 A 
ATOM     14  C   UNL     1       4.723   2.146  20.292  0.00  0.00    +0.000 A 
ATOM     15  O   UNL     1       5.394   1.156  20.559  0.00  0.00    +0.000 OA
ATOM     16  N   UNL     1       5.174   3.170  19.502  0.00  0.00    +0.000 N 
ATOM     17  C   UNL     1       4.419   4.268  19.167  0.00  0.00    +0.000 A 
ATOM     18  C   UNL     1       3.164   4.435  19.636  0.00  0.00    +0.000 A 
ATOM     19  H   UNL     1       6.106   3.054  19.114  0.00  0.00    +0.000 HD
ENDBRANCH   7  18
ENDBRANCH   1   9
BRANCH   4  20
ATOM     20  C   UNL     1       0.898  12.223  18.916  0.00  0.00    +0.000 C 
BRANCH  20  21
ATOM     21  C   UNL     1       2.100  13.103  19.120  0.00  0.00    +0.000 A 
ATOM     22  N   UNL     1       2.896  13.504  18.145  0.00  0.00    +0.000 NA
ATOM     23  C   UNL     1       3.850  14.382  18.635  0.00  0.00    +0.000 A 
ATOM     24  C   UNL     1       4.864  15.019  17.886  0.00  0.00    +0.000 A 
ATOM     25  C   UNL     1       5.791  15.848  18.529  0.00  0.00    +0.000 A 
ATOM     26  C   UNL     1       5.711  16.064  19.900  0.00  0.00    +0.000 A 
ATOM     27  C   UNL     1       4.697  15.469  20.659  0.00  0.00    +0.000 A 
ATOM     28  C   UNL     1       3.776  14.633  20.005  0.00  0.00    +0.000 A 
ATOM     29  S   UNL     1       2.435  13.778  20.665  0.00  0.00    +0.000 S 
ENDBRANCH  20  21
ENDBRANCH   4  20
TORSDOF 4
ENDMDL
MODEL 6
REMARK VINA RESULT:      -8.4      1.928      2.415
REMARK  Name = 
REMARK  5 active torsions:
REMARK  status: ('A' for Active; 'I' for Inactive)
REMARK    1  A    between atoms: C_1  and  C_2
REMARK    2  A    between atoms: C_8  and  C_9
REMARK    3  A    between atoms: N_11  and  C_12
REMARK    4  A    between atoms: C_15  and  C_16
REMARK    5  A    between atoms: C_16  and  C_17
REMARK                            x       y       z     vdW  Elec       q    Type
REMARK                         _______ _______ _______ _____ _____    ______ ____
ROOT
ATOM      1  C   UNL     1       8.302   7.725  18.521  0.00  0.00    +0.000 A 
ATOM      2  C   UNL     1       7.657   7.764  17.286  0.00  0.00    +0.000 A 
ATOM      3  C   UNL     1       6.963   6.644  16.805  0.00  0.00    +0.000 A 
ATOM      4  C   UNL     1       6.908   5.447  17.534  0.00  0.00    +0.000 A 
ATOM      5  C   UNL     1       7.633   5.381  18.730  0.00  0.00    +0.000 A 
ATOM      6  C   UNL     1       8.337   6.502  19.207  0.00  0.00    +0.000 A 
ENDROOT
BRANCH   1   9
ATOM      7  C   UNL     1       8.951  10.141  18.630  0.00  0.00    +0.000 C 
ATOM      8  O   UNL     1       8.553  10.473  17.515  0.00  0.00    +0.000 OA
ATOM      9  N   UNL     1       8.872   8.863  19.153  0.00  0.00    +0.000 N 
ATOM     10  H   UNL     1       9.083   8.750  20.132  0.00  0.00    +0.000 HD
BRANCH   7  18
ATOM     11  C   UNL     1      11.683  11.758  18.317  0.00  0.00    +0.000 C 
ATOM     12  C   UNL     1      10.698  12.009  19.419  0.00  0.00    +0.000 A 
ATOM     13  C   UNL     1      10.933  13.024  20.281  0.00  0.00    +0.000 A 
ATOM     14  C   UNL     1       9.992  13.341  21.381  0.00  0.00    +0.000 A 
ATOM     15  O   UNL     1      10.202  14.266  22.157  0.00  0.00    +0.000 OA
ATOM     16  N   UNL     1       8.891  12.530  21.458  0.00  0.00    +0.000 N 
ATOM     17  C   UNL     1       8.627  11.513  20.573  0.00  0.00    +0.000 A 
ATOM     18  C   UNL     1       9.473  11.212  19.566  0.00  0.00    +0.000 A 
ATOM     19  H   UNL     1       8.225  12.754  22.192  0.00  0.00    +0.000 HD
ENDBRANCH   7  18
ENDBRANCH   1   9
BRANCH   4  20
ATOM     20  C   UNL     1       5.946   4.364  17.072  0.00  0.00    +0.000 C 
BRANCH  20  21
ATOM     21  C   UNL     1       4.715   4.108  17.897  0.00  0.00    +0.000 A 
ATOM     22  N   UNL     1       4.178   4.993  18.717  0.00  0.00    +0.000 NA
ATOM     23  C   UNL     1       3.000   4.497  19.252  0.00  0.00    +0.000 A 
ATOM     24  C   UNL     1       2.149   5.163  20.162  0.00  0.00    +0.000 A 
ATOM     25  C   UNL     1       1.010   4.514  20.656  0.00  0.00    +0.000 A 
ATOM     26  C   UNL     1       0.700   3.223  20.244  0.00  0.00    +0.000 A 
ATOM     27  C   UNL     1       1.510   2.554  19.320  0.00  0.00    +0.000 A 
ATOM     28  C   UNL     1       2.655   3.211  18.836  0.00  0.00    +0.000 A 
ATOM     29  S   UNL     1       3.823   2.651  17.703  0.00  0.00    +0.000 S 
ENDBRANCH  20  21
ENDBRANCH   4  20
TORSDOF 4
ENDMDL
MODEL 7
REMARK VINA RESULT:      -8.4      6.977      9.959
REMARK  Name = 
REMARK  5 active torsions:
REMARK  status: ('A' for Active; 'I' for Inactive)
REMARK    1  A    between atoms: C_1  and  C_2
REMARK    2  A    between atoms: C_8  and  C_9
REMARK    3  A    between atoms: N_11  and  C_12
REMARK    4  A    between atoms: C_15  and  C_16
REMARK    5  A    between atoms: C_16  and  C_17
REMARK                            x       y       z     vdW  Elec       q    Type
REMARK                         _______ _______ _______ _____ _____    ______ ____
ROOT
ATOM      1  C   UNL     1       2.122   8.240  18.769  0.00  0.00    +0.000 A 
ATOM      2  C   UNL     1       1.440   8.906  17.752  0.00  0.00    +0.000 A 
ATOM      3  C   UNL     1       0.423   9.824  18.054  0.00  0.00    +0.000 A 
ATOM      4  C   UNL     1       0.046  10.089  19.378  0.00  0.00    +0.000 A 
ATOM      5  C   UNL     1       0.669   9.352  20.392  0.00  0.00    +0.000 A 
ATOM      6  C   UNL     1       1.683   8.424  20.087  0.00  0.00    +0.000 A 
ENDROOT
BRANCH   1   9
ATOM      7  C   UNL     1       3.291   6.131  18.090  0.00  0.00    +0.000 C 
ATOM      8  O   UNL     1       2.294   5.467  17.816  0.00  0.00    +0.000 OA
ATOM      9  N   UNL     1       3.274   7.435  18.555  0.00  0.00    +0.000 N 
ATOM     10  H   UNL     1       4.153   7.924  18.591  0.00  0.00    +0.000 HD
BRANCH   7  18
ATOM     11  C   UNL     1       5.035   6.580  15.457  0.00  0.00    +0.000 C 
ATOM     12  C   UNL     1       5.507   5.776  16.631  0.00  0.00    +0.000 A 
ATOM     13  C   UNL     1       6.764   5.281  16.616  0.00  0.00    +0.000 A 
ATOM     14  C   UNL     1       7.303   4.494  17.751  0.00  0.00    +0.000 A 
ATOM     15  O   UNL     1       8.446   4.052  17.738  0.00  0.00    +0.000 OA
ATOM     16  N   UNL     1       6.435   4.306  18.793  0.00  0.00    +0.000 N 
ATOM     17  C   UNL     1       5.164   4.826  18.833  0.00  0.00    +0.000 A 
ATOM     18  C   UNL     1       4.659   5.544  17.808  0.00  0.00    +0.000 A 
ATOM     19  H   UNL     1       6.801   3.791  19.589  0.00  0.00    +0.000 HD
ENDBRANCH   7  18
ENDBRANCH   1   9
BRANCH   4  20
ATOM     20  C   UNL     1      -0.886  11.262  19.641  0.00  0.00    +0.000 C 
BRANCH  20  21
ATOM     21  C   UNL     1      -0.368  12.651  19.390  0.00  0.00    +0.000 A 
ATOM     22  N   UNL     1      -1.119  13.737  19.428  0.00  0.00    +0.000 NA
ATOM     23  C   UNL     1      -0.336  14.868  19.256  0.00  0.00    +0.000 A 
ATOM     24  C   UNL     1      -0.789  16.206  19.245  0.00  0.00    +0.000 A 
ATOM     25  C   UNL     1       0.117  17.248  19.011  0.00  0.00    +0.000 A 
ATOM     26  C   UNL     1       1.465  16.977  18.807  0.00  0.00    +0.000 A 
ATOM     27  C   UNL     1       1.943  15.663  18.844  0.00  0.00    +0.000 A 
ATOM     28  C   UNL     1       1.025  14.623  19.072  0.00  0.00    +0.000 A 
ATOM     29  S   UNL     1       1.315  12.930  19.176  0.00  0.00    +0.000 S 
ENDBRANCH  20  21
ENDBRANCH   4  20
TORSDOF 4
ENDMDL
MODEL 8
REMARK VINA RESULT:      -8.4      7.905      9.857
REMARK  Name = 
REMARK  5 active torsions:
REMARK  status: ('A' for Active; 'I' for Inactive)
REMARK    1  A    between atoms: C_1  and  C_2
REMARK    2  A    between atoms: C_8  and  C_9
REMARK    3  A    between atoms: N_11  and  C_12
REMARK    4  A    between atoms: C_15  and  C_16
REMARK    5  A    between atoms: C_16  and  C_17
REMARK                            x       y       z     vdW  Elec       q    Type
REMARK                         _______ _______ _______ _____ _____    ______ ____
ROOT
ATOM      1  C   UNL     1       0.141  10.213  20.213  0.00  0.00    +0.000 A 
ATOM      2  C   UNL     1       0.519  10.609  18.932  0.00  0.00    +0.000 A 
ATOM      3  C   UNL     1       1.420   9.840  18.180  0.00  0.00    +0.000 A 
ATOM      4  C   UNL     1       1.983   8.663  18.694  0.00  0.00    +0.000 A 
ATOM      5  C   UNL     1       1.672   8.315  20.015  0.00  0.00    +0.000 A 
ATOM      6  C   UNL     1       0.776   9.094  20.770  0.00  0.00    +0.000 A 
ENDROOT
BRANCH   1   9
ATOM      7  C   UNL     1      -0.759  11.941  21.786  0.00  0.00    +0.000 C 
ATOM      8  O   UNL     1       0.295  12.532  22.008  0.00  0.00    +0.000 OA
ATOM      9  N   UNL     1      -0.893  10.837  20.962  0.00  0.00    +0.000 N 
ATOM     10  H   UNL     1      -1.828  10.541  20.735  0.00  0.00    +0.000 HD
BRANCH   7  18
ATOM     11  C   UNL     1      -2.346  14.494  20.719  0.00  0.00    +0.000 C 
ATOM     12  C   UNL     1      -2.825  13.642  21.856  0.00  0.00    +0.000 A 
ATOM     13  C   UNL     1      -4.027  13.914  22.409  0.00  0.00    +0.000 A 
ATOM     14  C   UNL     1      -4.572  13.100  23.522  0.00  0.00    +0.000 A 
ATOM     15  O   UNL     1      -5.666  13.343  24.018  0.00  0.00    +0.000 OA
ATOM     16  N   UNL     1      -3.766  12.076  23.943  0.00  0.00    +0.000 N 
ATOM     17  C   UNL     1      -2.554  11.772  23.372  0.00  0.00    +0.000 A 
ATOM     18  C   UNL     1      -2.045  12.503  22.358  0.00  0.00    +0.000 A 
ATOM     19  H   UNL     1      -4.140  11.494  24.687  0.00  0.00    +0.000 HD
ENDBRANCH   7  18
ENDBRANCH   1   9
BRANCH   4  20
ATOM     20  C   UNL     1       2.755   7.759  17.746  0.00  0.00    +0.000 C 
BRANCH  20  21
ATOM     21  C   UNL     1       2.923   6.312  18.122  0.00  0.00    +0.000 A 
ATOM     22  N   UNL     1       2.008   5.383  17.908  0.00  0.00    +0.000 NA
ATOM     23  C   UNL     1       2.498   4.138  18.270  0.00  0.00    +0.000 A 
ATOM     24  C   UNL     1       1.807   2.909  18.178  0.00  0.00    +0.000 A 
ATOM     25  C   UNL     1       2.415   1.731  18.628  0.00  0.00    +0.000 A 
ATOM     26  C   UNL     1       3.703   1.758  19.150  0.00  0.00    +0.000 A 
ATOM     27  C   UNL     1       4.419   2.957  19.224  0.00  0.00    +0.000 A 
ATOM     28  C   UNL     1       3.797   4.136  18.776  0.00  0.00    +0.000 A 
ATOM     29  S   UNL     1       4.422   5.739  18.738  0.00  0.00    +0.000 S 
ENDBRANCH  20  21
ENDBRANCH   4  20
TORSDOF 4
ENDMDL
MODEL 9
REMARK VINA RESULT:      -8.3      8.000      9.570
REMARK  Name = 
REMARK  5 active torsions:
REMARK  status: ('A' for Active; 'I' for Inactive)
REMARK    1  A    between atoms: C_1  and  C_2
REMARK    2  A    between atoms: C_8  and  C_9
REMARK    3  A    between atoms: N_11  and  C_12
REMARK    4  A    between atoms: C_15  and  C_16
REMARK    5  A    between atoms: C_16  and  C_17
REMARK                            x       y       z     vdW  Elec       q    Type
REMARK                         _______ _______ _______ _____ _____    ______ ____
ROOT
ATOM      1  C   UNL     1      -0.099  10.247  20.293  0.00  0.00    +0.000 A 
ATOM      2  C   UNL     1       0.651   9.208  20.839  0.00  0.00    +0.000 A 
ATOM      3  C   UNL     1       1.544   8.473  20.044  0.00  0.00    +0.000 A 
ATOM      4  C   UNL     1       1.699   8.744  18.677  0.00  0.00    +0.000 A 
ATOM      5  C   UNL     1       0.878   9.727  18.111  0.00  0.00    +0.000 A 
ATOM      6  C   UNL     1      -0.024  10.456  18.908  0.00  0.00    +0.000 A 
ENDROOT
BRANCH   1   9
ATOM      7  C   UNL     1      -0.856  11.295  22.438  0.00  0.00    +0.000 C 
ATOM      8  O   UNL     1      -0.148  10.643  23.202  0.00  0.00    +0.000 OA
ATOM      9  N   UNL     1      -0.887  11.146  21.062  0.00  0.00    +0.000 N 
ATOM     10  H   UNL     1      -1.385  11.843  20.533  0.00  0.00    +0.000 HD
BRANCH   7  18
ATOM     11  C   UNL     1      -0.107  14.396  22.399  0.00  0.00    +0.000 C 
ATOM     12  C   UNL     1      -1.396  13.866  22.951  0.00  0.00    +0.000 A 
ATOM     13  C   UNL     1      -2.328  14.745  23.381  0.00  0.00    +0.000 A 
ATOM     14  C   UNL     1      -3.633  14.293  23.920  0.00  0.00    +0.000 A 
ATOM     15  O   UNL     1      -4.479  15.091  24.303  0.00  0.00    +0.000 OA
ATOM     16  N   UNL     1      -3.809  12.935  23.954  0.00  0.00    +0.000 N 
ATOM     17  C   UNL     1      -2.881  12.031  23.495  0.00  0.00    +0.000 A 
ATOM     18  C   UNL     1      -1.689  12.428  23.002  0.00  0.00    +0.000 A 
ATOM     19  H   UNL     1      -4.710  12.613  24.296  0.00  0.00    +0.000 HD
ENDBRANCH   7  18
ENDBRANCH   1   9
BRANCH   4  20
ATOM     20  C   UNL     1       2.848   8.079  17.936  0.00  0.00    +0.000 C 
BRANCH  20  21
ATOM     21  C   UNL     1       2.951   6.579  17.982  0.00  0.00    +0.000 A 
ATOM     22  N   UNL     1       1.941   5.778  18.270  0.00  0.00    +0.000 NA
ATOM     23  C   UNL     1       2.325   4.454  18.132  0.00  0.00    +0.000 A 
ATOM     24  C   UNL     1       1.511   3.320  18.349  0.00  0.00    +0.000 A 
ATOM     25  C   UNL     1       2.054   2.036  18.216  0.00  0.00    +0.000 A 
ATOM     26  C   UNL     1       3.386   1.867  17.854  0.00  0.00    +0.000 A 
ATOM     27  C   UNL     1       4.203   2.974  17.603  0.00  0.00    +0.000 A 
ATOM     28  C   UNL     1       3.652   4.259  17.747  0.00  0.00    +0.000 A 
ATOM     29  S   UNL     1       4.401   5.790  17.504  0.00  0.00    +0.000 S 
ENDBRANCH  20  21
ENDBRANCH   4  20
TORSDOF 4
ENDMDL
