MODEL 1
REMARK VINA RESULT:      -9.2      0.000      0.000
REMARK  Name = 
REMARK  3 active torsions:
REMARK  status: ('A' for Active; 'I' for Inactive)
REMARK    1  A    between atoms: C_2  and  C_16
REMARK    2  A    between atoms: N_3  and  C_4
REMARK    3  A    between atoms: C_9  and  C_10
REMARK                            x       y       z     vdW  Elec       q    Type
REMARK                         _______ _______ _______ _____ _____    ______ ____
ROOT
ATOM      1  O   UNL     1       2.005   8.494  17.406  0.00  0.00    +0.000 OA
ATOM      2  C   UNL     1       2.182   8.072  18.545  0.00  0.00    +0.000 C 
ATOM      3  N   UNL     1       2.932   6.958  18.871  0.00  0.00    +0.000 N 
ATOM      4  H   UNL     1       3.280   6.928  19.818  0.00  0.00    +0.000 HD
ENDROOT
BRANCH   2   5
ATOM      5  C   UNL     1       1.618   8.757  19.694  0.00  0.00    +0.000 A 
ATOM      6  C   UNL     1       1.409   8.360  21.006  0.00  0.00    +0.000 A 
ATOM      7  C   UNL     1       0.565   9.322  21.626  0.00  0.00    +0.000 A 
ATOM      8  C   UNL     1      -0.106   9.376  22.861  0.00  0.00    +0.000 A 
ATOM      9  C   UNL     1      -0.979  10.438  23.114  0.00  0.00    +0.000 A 
ATOM     10  C   UNL     1      -1.149  11.457  22.179  0.00  0.00    +0.000 A 
ATOM     11  C   UNL     1      -0.450  11.453  20.968  0.00  0.00    +0.000 A 
ATOM     12  C   UNL     1       0.384  10.359  20.713  0.00  0.00    +0.000 A 
ATOM     13  N   UNL     1       1.131  10.045  19.603  0.00  0.00    +0.000 N 
ATOM     14  H   UNL     1       1.197  10.609  18.765  0.00  0.00    +0.000 HD
ENDBRANCH   2   5
BRANCH   3  15
ATOM     15  C   UNL     1       3.705   6.269  17.919  0.00  0.00    +0.000 A 
ATOM     16  C   UNL     1       4.456   7.022  17.000  0.00  0.00    +0.000 A 
ATOM     17  C   UNL     1       5.148   6.386  15.970  0.00  0.00    +0.000 A 
ATOM     18  C   UNL     1       5.152   4.996  15.896  0.00  0.00    +0.000 A 
ATOM     19  C   UNL     1       4.427   4.245  16.822  0.00  0.00    +0.000 A 
ATOM     20  C   UNL     1       3.656   4.854  17.836  0.00  0.00    +0.000 A 
BRANCH  20  21
ATOM     21  C   UNL     1       2.836   4.006  18.749  0.00  0.00    +0.000 A 
ATOM     22  C   UNL     1       3.289   3.599  20.018  0.00  0.00    +0.000 A 
ATOM     23  C   UNL     1       2.452   2.929  20.920  0.00  0.00    +0.000 A 
ATOM     24  C   UNL     1       1.164   2.574  20.537  0.00  0.00    +0.000 A 
ATOM     25  C   UNL     1       0.717   2.886  19.258  0.00  0.00    +0.000 A 
ATOM     26  C   UNL     1       1.540   3.607  18.383  0.00  0.00    +0.000 A 
ENDBRANCH  20  21
ENDBRANCH   3  15
TORSDOF 3
ENDMDL
MODEL 2
REMARK VINA RESULT:      -8.7      1.921      3.707
REMARK  Name = 
REMARK  3 active torsions:
REMARK  status: ('A' for Active; 'I' for Inactive)
REMARK    1  A    between atoms: C_2  and  C_16
REMARK    2  A    between atoms: N_3  and  C_4
REMARK    3  A    between atoms: C_9  and  C_10
REMARK                            x       y       z     vdW  Elec       q    Type
REMARK                         _______ _______ _______ _____ _____    ______ ____
ROOT
ATOM      1  O   UNL     1       2.247   5.639  21.034  0.00  0.00    +0.000 OA
ATOM      2  C   UNL     1       2.136   6.398  20.076  0.00  0.00    +0.000 C 
ATOM      3  N   UNL     1       2.362   6.050  18.758  0.00  0.00    +0.000 N 
ATOM      4  H   UNL     1       1.910   6.634  18.069  0.00  0.00    +0.000 HD
ENDROOT
BRANCH   2   5
ATOM      5  C   UNL     1       1.711   7.774  20.256  0.00  0.00    +0.000 A 
ATOM      6  C   UNL     1       1.269   8.475  21.367  0.00  0.00    +0.000 A 
ATOM      7  C   UNL     1       0.715   9.705  20.918  0.00  0.00    +0.000 A 
ATOM      8  C   UNL     1      -0.016  10.731  21.545  0.00  0.00    +0.000 A 
ATOM      9  C   UNL     1      -0.533  11.770  20.768  0.00  0.00    +0.000 A 
ATOM     10  C   UNL     1      -0.288  11.822  19.397  0.00  0.00    +0.000 A 
ATOM     11  C   UNL     1       0.483  10.844  18.761  0.00  0.00    +0.000 A 
ATOM     12  C   UNL     1       0.952   9.787  19.548  0.00  0.00    +0.000 A 
ATOM     13  N   UNL     1       1.662   8.662  19.200  0.00  0.00    +0.000 N 
ATOM     14  H   UNL     1       1.978   8.436  18.265  0.00  0.00    +0.000 HD
ENDBRANCH   2   5
BRANCH   3  15
ATOM     15  C   UNL     1       2.603   4.722  18.363  0.00  0.00    +0.000 A 
ATOM     16  C   UNL     1       1.526   3.820  18.368  0.00  0.00    +0.000 A 
ATOM     17  C   UNL     1       1.739   2.469  18.092  0.00  0.00    +0.000 A 
ATOM     18  C   UNL     1       3.012   2.029  17.740  0.00  0.00    +0.000 A 
ATOM     19  C   UNL     1       4.078   2.928  17.710  0.00  0.00    +0.000 A 
ATOM     20  C   UNL     1       3.918   4.288  18.053  0.00  0.00    +0.000 A 
BRANCH  20  21
ATOM     21  C   UNL     1       5.107   5.187  18.082  0.00  0.00    +0.000 A 
ATOM     22  C   UNL     1       6.104   5.095  19.073  0.00  0.00    +0.000 A 
ATOM     23  C   UNL     1       7.284   5.846  19.002  0.00  0.00    +0.000 A 
ATOM     24  C   UNL     1       7.456   6.773  17.981  0.00  0.00    +0.000 A 
ATOM     25  C   UNL     1       6.451   6.949  17.037  0.00  0.00    +0.000 A 
ATOM     26  C   UNL     1       5.299   6.153  17.080  0.00  0.00    +0.000 A 
ENDBRANCH  20  21
ENDBRANCH   3  15
TORSDOF 3
ENDMDL
MODEL 3
REMARK VINA RESULT:      -8.6      0.661      1.275
REMARK  Name = 
REMARK  3 active torsions:
REMARK  status: ('A' for Active; 'I' for Inactive)
REMARK    1  A    between atoms: C_2  and  C_16
REMARK    2  A    between atoms: N_3  and  C_4
REMARK    3  A    between atoms: C_9  and  C_10
REMARK                            x       y       z     vdW  Elec       q    Type
REMARK                         _______ _______ _______ _____ _____    ______ ____
ROOT
ATOM      1  O   UNL     1       2.411   8.917  17.242  0.00  0.00    +0.000 OA
ATOM      2  C   UNL     1       2.101   8.369  18.295  0.00  0.00    +0.000 C 
ATOM      3  N   UNL     1       2.567   7.138  18.717  0.00  0.00    +0.000 N 
ATOM      4  H   UNL     1       2.522   6.972  19.711  0.00  0.00    +0.000 HD
ENDROOT
BRANCH   2   5
ATOM      5  C   UNL     1       1.204   9.012  19.238  0.00  0.00    +0.000 A 
ATOM      6  C   UNL     1       0.550  10.234  19.218  0.00  0.00    +0.000 A 
ATOM      7  C   UNL     1       0.034  10.477  20.521  0.00  0.00    +0.000 A 
ATOM      8  C   UNL     1      -0.563  11.591  21.139  0.00  0.00    +0.000 A 
ATOM      9  C   UNL     1      -0.848  11.537  22.506  0.00  0.00    +0.000 A 
ATOM     10  C   UNL     1      -0.592  10.382  23.241  0.00  0.00    +0.000 A 
ATOM     11  C   UNL     1      -0.051   9.243  22.636  0.00  0.00    +0.000 A 
ATOM     12  C   UNL     1       0.271   9.332  21.277  0.00  0.00    +0.000 A 
ATOM     13  N   UNL     1       0.870   8.420  20.440  0.00  0.00    +0.000 N 
ATOM     14  H   UNL     1       1.167   7.490  20.706  0.00  0.00    +0.000 HD
ENDBRANCH   2   5
BRANCH   3  15
ATOM     15  C   UNL     1       3.580   6.445  18.031  0.00  0.00    +0.000 A 
ATOM     16  C   UNL     1       4.426   7.174  17.178  0.00  0.00    +0.000 A 
ATOM     17  C   UNL     1       5.372   6.514  16.394  0.00  0.00    +0.000 A 
ATOM     18  C   UNL     1       5.525   5.136  16.510  0.00  0.00    +0.000 A 
ATOM     19  C   UNL     1       4.702   4.412  17.374  0.00  0.00    +0.000 A 
ATOM     20  C   UNL     1       3.686   5.034  18.132  0.00  0.00    +0.000 A 
BRANCH  20  21
ATOM     21  C   UNL     1       2.783   4.202  18.977  0.00  0.00    +0.000 A 
ATOM     22  C   UNL     1       2.932   4.098  20.374  0.00  0.00    +0.000 A 
ATOM     23  C   UNL     1       1.990   3.433  21.169  0.00  0.00    +0.000 A 
ATOM     24  C   UNL     1       0.918   2.780  20.572  0.00  0.00    +0.000 A 
ATOM     25  C   UNL     1       0.791   2.790  19.189  0.00  0.00    +0.000 A 
ATOM     26  C   UNL     1       1.705   3.506  18.404  0.00  0.00    +0.000 A 
ENDBRANCH  20  21
ENDBRANCH   3  15
TORSDOF 3
ENDMDL
MODEL 4
REMARK VINA RESULT:      -8.5      1.882      3.839
REMARK  Name = 
REMARK  3 active torsions:
REMARK  status: ('A' for Active; 'I' for Inactive)
REMARK    1  A    between atoms: C_2  and  C_16
REMARK    2  A    between atoms: N_3  and  C_4
REMARK    3  A    between atoms: C_9  and  C_10
REMARK                            x       y       z     vdW  Elec       q    Type
REMARK                         _______ _______ _______ _____ _____    ______ ____
ROOT
ATOM      1  O   UNL     1       2.303   5.593  21.065  0.00  0.00    +0.000 OA
ATOM      2  C   UNL     1       2.149   6.316  20.085  0.00  0.00    +0.000 C 
ATOM      3  N   UNL     1       2.296   5.914  18.771  0.00  0.00    +0.000 N 
ATOM      4  H   UNL     1       1.814   6.477  18.086  0.00  0.00    +0.000 HD
ENDROOT
BRANCH   2   5
ATOM      5  C   UNL     1       1.753   7.705  20.233  0.00  0.00    +0.000 A 
ATOM      6  C   UNL     1       1.299   8.433  21.322  0.00  0.00    +0.000 A 
ATOM      7  C   UNL     1       0.787   9.669  20.840  0.00  0.00    +0.000 A 
ATOM      8  C   UNL     1       0.065  10.721  21.433  0.00  0.00    +0.000 A 
ATOM      9  C   UNL     1      -0.405  11.761  20.627  0.00  0.00    +0.000 A 
ATOM     10  C   UNL     1      -0.123  11.786  19.262  0.00  0.00    +0.000 A 
ATOM     11  C   UNL     1       0.641  10.780  18.661  0.00  0.00    +0.000 A 
ATOM     12  C   UNL     1       1.063   9.724  19.476  0.00  0.00    +0.000 A 
ATOM     13  N   UNL     1       1.754   8.577  19.164  0.00  0.00    +0.000 N 
ATOM     14  H   UNL     1       2.089   8.330  18.242  0.00  0.00    +0.000 HD
ENDBRANCH   2   5
BRANCH   3  15
ATOM     15  C   UNL     1       2.497   4.568  18.416  0.00  0.00    +0.000 A 
ATOM     16  C   UNL     1       1.422   3.674  18.556  0.00  0.00    +0.000 A 
ATOM     17  C   UNL     1       1.605   2.311  18.323  0.00  0.00    +0.000 A 
ATOM     18  C   UNL     1       2.840   1.847  17.881  0.00  0.00    +0.000 A 
ATOM     19  C   UNL     1       3.903   2.736  17.718  0.00  0.00    +0.000 A 
ATOM     20  C   UNL     1       3.778   4.111  18.011  0.00  0.00    +0.000 A 
BRANCH  20  21
ATOM     21  C   UNL     1       4.968   5.001  17.896  0.00  0.00    +0.000 A 
ATOM     22  C   UNL     1       5.116   5.940  16.856  0.00  0.00    +0.000 A 
ATOM     23  C   UNL     1       6.165   6.867  16.845  0.00  0.00    +0.000 A 
ATOM     24  C   UNL     1       7.143   6.820  17.832  0.00  0.00    +0.000 A 
ATOM     25  C   UNL     1       7.072   5.848  18.823  0.00  0.00    +0.000 A 
ATOM     26  C   UNL     1       5.988   4.962  18.861  0.00  0.00    +0.000 A 
ENDBRANCH  20  21
ENDBRANCH   3  15
TORSDOF 3
ENDMDL
MODEL 5
REMARK VINA RESULT:      -8.5      2.112      4.037
REMARK  Name = 
REMARK  3 active torsions:
REMARK  status: ('A' for Active; 'I' for Inactive)
REMARK    1  A    between atoms: C_2  and  C_16
REMARK    2  A    between atoms: N_3  and  C_4
REMARK    3  A    between atoms: C_9  and  C_10
REMARK                            x       y       z     vdW  Elec       q    Type
REMARK                         _______ _______ _______ _____ _____    ______ ____
ROOT
ATOM      1  O   UNL     1       2.206   6.430  20.316  0.00  0.00    +0.000 OA
ATOM      2  C   UNL     1       2.208   6.938  19.198  0.00  0.00    +0.000 C 
ATOM      3  N   UNL     1       2.491   6.270  18.023  0.00  0.00    +0.000 N 
ATOM      4  H   UNL     1       2.124   6.691  17.182  0.00  0.00    +0.000 HD
ENDROOT
BRANCH   2   5
ATOM      5  C   UNL     1       1.869   8.338  19.011  0.00  0.00    +0.000 A 
ATOM      6  C   UNL     1       2.201   9.253  18.024  0.00  0.00    +0.000 A 
ATOM      7  C   UNL     1       1.839  10.548  18.488  0.00  0.00    +0.000 A 
ATOM      8  C   UNL     1       2.070  11.852  18.013  0.00  0.00    +0.000 A 
ATOM      9  C   UNL     1       1.674  12.940  18.795  0.00  0.00    +0.000 A 
ATOM     10  C   UNL     1       1.014  12.742  20.006  0.00  0.00    +0.000 A 
ATOM     11  C   UNL     1       0.724  11.456  20.472  0.00  0.00    +0.000 A 
ATOM     12  C   UNL     1       1.170  10.379  19.697  0.00  0.00    +0.000 A 
ATOM     13  N   UNL     1       1.097   9.025  19.926  0.00  0.00    +0.000 N 
ATOM     14  H   UNL     1       0.669   8.591  20.734  0.00  0.00    +0.000 HD
ENDBRANCH   2   5
BRANCH   3  15
ATOM     15  C   UNL     1       2.664   4.875  17.976  0.00  0.00    +0.000 A 
ATOM     16  C   UNL     1       1.518   4.062  17.960  0.00  0.00    +0.000 A 
ATOM     17  C   UNL     1       1.639   2.674  18.027  0.00  0.00    +0.000 A 
ATOM     18  C   UNL     1       2.903   2.091  18.036  0.00  0.00    +0.000 A 
ATOM     19  C   UNL     1       4.043   2.896  18.028  0.00  0.00    +0.000 A 
ATOM     20  C   UNL     1       3.962   4.305  18.033  0.00  0.00    +0.000 A 
BRANCH  20  21
ATOM     21  C   UNL     1       5.211   5.116  18.105  0.00  0.00    +0.000 A 
ATOM     22  C   UNL     1       6.014   5.173  19.261  0.00  0.00    +0.000 A 
ATOM     23  C   UNL     1       7.257   5.819  19.264  0.00  0.00    +0.000 A 
ATOM     24  C   UNL     1       7.686   6.500  18.131  0.00  0.00    +0.000 A 
ATOM     25  C   UNL     1       6.876   6.536  17.002  0.00  0.00    +0.000 A 
ATOM     26  C   UNL     1       5.661   5.838  16.987  0.00  0.00    +0.000 A 
ENDBRANCH  20  21
ENDBRANCH   3  15
TORSDOF 3
ENDMDL
MODEL 6
REMARK VINA RESULT:      -8.3      4.646      6.362
REMARK  Name = 
REMARK  3 active torsions:
REMARK  status: ('A' for Active; 'I' for Inactive)
REMARK    1  A    between atoms: C_2  and  C_16
REMARK    2  A    between atoms: N_3  and  C_4
REMARK    3  A    between atoms: C_9  and  C_10
REMARK                            x       y       z     vdW  Elec       q    Type
REMARK                         _______ _______ _______ _____ _____    ______ ____
ROOT
ATOM      1  O   UNL     1       4.149   5.838  16.191  0.00  0.00    +0.000 OA
ATOM      2  C   UNL     1       4.214   4.627  16.387  0.00  0.00    +0.000 C 
ATOM      3  N   UNL     1       4.976   3.744  15.646  0.00  0.00    +0.000 N 
ATOM      4  H   UNL     1       5.213   2.879  16.108  0.00  0.00    +0.000 HD
ENDROOT
BRANCH   2   5
ATOM      5  C   UNL     1       3.487   4.004  17.478  0.00  0.00    +0.000 A 
ATOM      6  C   UNL     1       2.138   3.957  17.793  0.00  0.00    +0.000 A 
ATOM      7  C   UNL     1       2.014   3.461  19.120  0.00  0.00    +0.000 A 
ATOM      8  C   UNL     1       0.939   3.347  20.019  0.00  0.00    +0.000 A 
ATOM      9  C   UNL     1       1.189   2.920  21.327  0.00  0.00    +0.000 A 
ATOM     10  C   UNL     1       2.476   2.564  21.724  0.00  0.00    +0.000 A 
ATOM     11  C   UNL     1       3.551   2.617  20.831  0.00  0.00    +0.000 A 
ATOM     12  C   UNL     1       3.289   3.090  19.540  0.00  0.00    +0.000 A 
ATOM     13  N   UNL     1       4.138   3.317  18.483  0.00  0.00    +0.000 N 
ATOM     14  H   UNL     1       5.136   3.147  18.488  0.00  0.00    +0.000 HD
ENDBRANCH   2   5
BRANCH   3  15
ATOM     15  C   UNL     1       5.886   4.178  14.666  0.00  0.00    +0.000 A 
ATOM     16  C   UNL     1       5.701   3.740  13.344  0.00  0.00    +0.000 A 
ATOM     17  C   UNL     1       6.640   4.053  12.361  0.00  0.00    +0.000 A 
ATOM     18  C   UNL     1       7.726   4.863  12.677  0.00  0.00    +0.000 A 
ATOM     19  C   UNL     1       7.899   5.320  13.985  0.00  0.00    +0.000 A 
ATOM     20  C   UNL     1       7.011   4.966  15.023  0.00  0.00    +0.000 A 
BRANCH  20  21
ATOM     21  C   UNL     1       7.288   5.416  16.417  0.00  0.00    +0.000 A 
ATOM     22  C   UNL     1       7.579   4.517  17.461  0.00  0.00    +0.000 A 
ATOM     23  C   UNL     1       7.981   4.962  18.727  0.00  0.00    +0.000 A 
ATOM     24  C   UNL     1       8.017   6.324  19.003  0.00  0.00    +0.000 A 
ATOM     25  C   UNL     1       7.651   7.235  18.018  0.00  0.00    +0.000 A 
ATOM     26  C   UNL     1       7.307   6.784  16.737  0.00  0.00    +0.000 A 
ENDBRANCH  20  21
ENDBRANCH   3  15
TORSDOF 3
ENDMDL
MODEL 7
REMARK VINA RESULT:      -8.2      1.469      2.096
REMARK  Name = 
REMARK  3 active torsions:
REMARK  status: ('A' for Active; 'I' for Inactive)
REMARK    1  A    between atoms: C_2  and  C_16
REMARK    2  A    between atoms: N_3  and  C_4
REMARK    3  A    between atoms: C_9  and  C_10
REMARK                            x       y       z     vdW  Elec       q    Type
REMARK                         _______ _______ _______ _____ _____    ______ ____
ROOT
ATOM      1  O   UNL     1       4.424   5.987  19.557  0.00  0.00    +0.000 OA
ATOM      2  C   UNL     1       3.646   6.542  18.787  0.00  0.00    +0.000 C 
ATOM      3  N   UNL     1       3.674   6.427  17.410  0.00  0.00    +0.000 N 
ATOM      4  H   UNL     1       2.806   6.631  16.938  0.00  0.00    +0.000 HD
ENDROOT
BRANCH   2   5
ATOM      5  C   UNL     1       2.569   7.378  19.285  0.00  0.00    +0.000 A 
ATOM      6  C   UNL     1       1.832   8.396  18.699  0.00  0.00    +0.000 A 
ATOM      7  C   UNL     1       1.107   9.060  19.727  0.00  0.00    +0.000 A 
ATOM      8  C   UNL     1       0.337  10.236  19.771  0.00  0.00    +0.000 A 
ATOM      9  C   UNL     1      -0.147  10.686  21.002  0.00  0.00    +0.000 A 
ATOM     10  C   UNL     1       0.084   9.956  22.166  0.00  0.00    +0.000 A 
ATOM     11  C   UNL     1       0.799   8.754  22.138  0.00  0.00    +0.000 A 
ATOM     12  C   UNL     1       1.315   8.345  20.903  0.00  0.00    +0.000 A 
ATOM     13  N   UNL     1       2.103   7.266  20.579  0.00  0.00    +0.000 N 
ATOM     14  H   UNL     1       2.428   6.563  21.231  0.00  0.00    +0.000 HD
ENDBRANCH   2   5
BRANCH   3  15
ATOM     15  C   UNL     1       4.526   5.522  16.751  0.00  0.00    +0.000 A 
ATOM     16  C   UNL     1       5.501   6.039  15.881  0.00  0.00    +0.000 A 
ATOM     17  C   UNL     1       6.293   5.178  15.122  0.00  0.00    +0.000 A 
ATOM     18  C   UNL     1       6.165   3.802  15.280  0.00  0.00    +0.000 A 
ATOM     19  C   UNL     1       5.213   3.286  16.161  0.00  0.00    +0.000 A 
ATOM     20  C   UNL     1       4.344   4.123  16.895  0.00  0.00    +0.000 A 
BRANCH  20  21
ATOM     21  C   UNL     1       3.292   3.517  17.760  0.00  0.00    +0.000 A 
ATOM     22  C   UNL     1       3.597   2.719  18.881  0.00  0.00    +0.000 A 
ATOM     23  C   UNL     1       2.604   2.281  19.766  0.00  0.00    +0.000 A 
ATOM     24  C   UNL     1       1.268   2.559  19.501  0.00  0.00    +0.000 A 
ATOM     25  C   UNL     1       0.928   3.270  18.356  0.00  0.00    +0.000 A 
ATOM     26  C   UNL     1       1.931   3.755  17.506  0.00  0.00    +0.000 A 
ENDBRANCH  20  21
ENDBRANCH   3  15
TORSDOF 3
ENDMDL
MODEL 8
REMARK VINA RESULT:      -8.1      4.371      6.282
REMARK  Name = 
REMARK  3 active torsions:
REMARK  status: ('A' for Active; 'I' for Inactive)
REMARK    1  A    between atoms: C_2  and  C_16
REMARK    2  A    between atoms: N_3  and  C_4
REMARK    3  A    between atoms: C_9  and  C_10
REMARK                            x       y       z     vdW  Elec       q    Type
REMARK                         _______ _______ _______ _____ _____    ______ ____
ROOT
ATOM      1  O   UNL     1       4.299   6.048  16.200  0.00  0.00    +0.000 OA
ATOM      2  C   UNL     1       4.265   4.834  16.374  0.00  0.00    +0.000 C 
ATOM      3  N   UNL     1       4.932   3.902  15.603  0.00  0.00    +0.000 N 
ATOM      4  H   UNL     1       5.104   3.012  16.046  0.00  0.00    +0.000 HD
ENDROOT
BRANCH   2   5
ATOM      5  C   UNL     1       3.510   4.256  17.472  0.00  0.00    +0.000 A 
ATOM      6  C   UNL     1       2.207   4.441  17.906  0.00  0.00    +0.000 A 
ATOM      7  C   UNL     1       2.084   3.846  19.192  0.00  0.00    +0.000 A 
ATOM      8  C   UNL     1       1.078   3.852  20.176  0.00  0.00    +0.000 A 
ATOM      9  C   UNL     1       1.334   3.253  21.412  0.00  0.00    +0.000 A 
ATOM     10  C   UNL     1       2.548   2.615  21.656  0.00  0.00    +0.000 A 
ATOM     11  C   UNL     1       3.541   2.547  20.674  0.00  0.00    +0.000 A 
ATOM     12  C   UNL     1       3.285   3.193  19.458  0.00  0.00    +0.000 A 
ATOM     13  N   UNL     1       4.081   3.356  18.350  0.00  0.00    +0.000 N 
ATOM     14  H   UNL     1       5.021   2.996  18.247  0.00  0.00    +0.000 HD
ENDBRANCH   2   5
BRANCH   3  15
ATOM     15  C   UNL     1       5.856   4.273  14.610  0.00  0.00    +0.000 A 
ATOM     16  C   UNL     1       5.619   3.854  13.290  0.00  0.00    +0.000 A 
ATOM     17  C   UNL     1       6.563   4.103  12.293  0.00  0.00    +0.000 A 
ATOM     18  C   UNL     1       7.709   4.833  12.594  0.00  0.00    +0.000 A 
ATOM     19  C   UNL     1       7.934   5.272  13.900  0.00  0.00    +0.000 A 
ATOM     20  C   UNL     1       7.039   4.978  14.951  0.00  0.00    +0.000 A 
BRANCH  20  21
ATOM     21  C   UNL     1       7.369   5.403  16.342  0.00  0.00    +0.000 A 
ATOM     22  C   UNL     1       7.407   6.755  16.734  0.00  0.00    +0.000 A 
ATOM     23  C   UNL     1       7.573   7.129  18.074  0.00  0.00    +0.000 A 
ATOM     24  C   UNL     1       7.793   6.156  19.042  0.00  0.00    +0.000 A 
ATOM     25  C   UNL     1       7.849   4.818  18.672  0.00  0.00    +0.000 A 
ATOM     26  C   UNL     1       7.623   4.447  17.340  0.00  0.00    +0.000 A 
ENDBRANCH  20  21
ENDBRANCH   3  15
TORSDOF 3
ENDMDL
MODEL 9
REMARK VINA RESULT:      -8.0      1.325      1.867
REMARK  Name = 
REMARK  3 active torsions:
REMARK  status: ('A' for Active; 'I' for Inactive)
REMARK    1  A    between atoms: C_2  and  C_16
REMARK    2  A    between atoms: N_3  and  C_4
REMARK    3  A    between atoms: C_9  and  C_10
REMARK                            x       y       z     vdW  Elec       q    Type
REMARK                         _______ _______ _______ _____ _____    ______ ____
ROOT
ATOM      1  O   UNL     1       3.239   7.868  16.700  0.00  0.00    +0.000 OA
ATOM      2  C   UNL     1       3.106   7.556  17.880  0.00  0.00    +0.000 C 
ATOM      3  N   UNL     1       3.868   6.614  18.543  0.00  0.00    +0.000 N 
ATOM      4  H   UNL     1       3.898   6.705  19.547  0.00  0.00    +0.000 HD
ENDROOT
BRANCH   2   5
ATOM      5  C   UNL     1       2.112   8.203  18.718  0.00  0.00    +0.000 A 
ATOM      6  C   UNL     1       1.254   9.268  18.492  0.00  0.00    +0.000 A 
ATOM      7  C   UNL     1       0.707   9.663  19.744  0.00  0.00    +0.000 A 
ATOM      8  C   UNL     1      -0.076  10.754  20.164  0.00  0.00    +0.000 A 
ATOM      9  C   UNL     1      -0.344  10.914  21.526  0.00  0.00    +0.000 A 
ATOM     10  C   UNL     1       0.113   9.981  22.454  0.00  0.00    +0.000 A 
ATOM     11  C   UNL     1       0.845   8.858  22.054  0.00  0.00    +0.000 A 
ATOM     12  C   UNL     1       1.142   8.741  20.692  0.00  0.00    +0.000 A 
ATOM     13  N   UNL     1       1.890   7.803  20.020  0.00  0.00    +0.000 N 
ATOM     14  H   UNL     1       2.346   7.005  20.444  0.00  0.00    +0.000 HD
ENDBRANCH   2   5
BRANCH   3  15
ATOM     15  C   UNL     1       4.995   6.012  17.955  0.00  0.00    +0.000 A 
ATOM     16  C   UNL     1       6.000   6.845  17.435  0.00  0.00    +0.000 A 
ATOM     17  C   UNL     1       7.081   6.297  16.745  0.00  0.00    +0.000 A 
ATOM     18  C   UNL     1       7.200   4.915  16.635  0.00  0.00    +0.000 A 
ATOM     19  C   UNL     1       6.216   4.084  17.171  0.00  0.00    +0.000 A 
ATOM     20  C   UNL     1       5.071   4.602  17.814  0.00  0.00    +0.000 A 
BRANCH  20  21
ATOM     21  C   UNL     1       4.011   3.671  18.298  0.00  0.00    +0.000 A 
ATOM     22  C   UNL     1       3.958   3.206  19.626  0.00  0.00    +0.000 A 
ATOM     23  C   UNL     1       2.877   2.452  20.100  0.00  0.00    +0.000 A 
ATOM     24  C   UNL     1       1.862   2.073  19.230  0.00  0.00    +0.000 A 
ATOM     25  C   UNL     1       1.931   2.443  17.892  0.00  0.00    +0.000 A 
ATOM     26  C   UNL     1       2.985   3.246  17.438  0.00  0.00    +0.000 A 
ENDBRANCH  20  21
ENDBRANCH   3  15
TORSDOF 3
ENDMDL
