MODEL 1
REMARK VINA RESULT:      -7.7      0.000      0.000
REMARK  Name = 
REMARK  6 active torsions:
REMARK  status: ('A' for Active; 'I' for Inactive)
REMARK    1  A    between atoms: C_1  and  C_2
REMARK    2  A    between atoms: C_3  and  C_4
REMARK    3  A    between atoms: C_13  and  C_14
REMARK    4  A    between atoms: C_14  and  C_15
REMARK    5  A    between atoms: C_15  and  C_16
REMARK    6  A    between atoms: N_20  and  C_21
REMARK                            x       y       z     vdW  Elec       q    Type
REMARK                         _______ _______ _______ _____ _____    ______ ____
ROOT
ATOM      1  C   UNL     1      -1.595  10.111  18.035  0.00  0.00    +0.000 C 
ATOM      2  C   UNL     1      -1.399  11.325  18.899  0.00  0.00    +0.000 C 
ATOM      3  C   UNL     1      -1.700  11.387  20.221  0.00  0.00    +0.000 C 
ATOM      4  C   UNL     1      -0.986  10.531  21.230  0.00  0.00    +0.000 C 
ATOM      5  C   UNL     1       0.481  10.983  21.348  0.00  0.00    +0.000 C 
ATOM      6  C   UNL     1       1.225   9.970  20.529  0.00  0.00    +0.000 A 
ATOM      7  C   UNL     1       1.378   8.735  21.162  0.00  0.00    +0.000 A 
ATOM      8  C   UNL     1       1.735   7.623  20.438  0.00  0.00    +0.000 A 
ATOM      9  C   UNL     1       2.123   7.714  19.095  0.00  0.00    +0.000 A 
ATOM     10  C   UNL     1       1.974   8.982  18.467  0.00  0.00    +0.000 A 
ATOM     11  C   UNL     1       1.471  10.114  19.156  0.00  0.00    +0.000 A 
ATOM     12  C   UNL     1       1.233  11.439  18.436  0.00  0.00    +0.000 C 
ATOM     13  C   UNL     1      -0.168  12.089  18.469  0.00  0.00    +0.000 C 
ATOM     14  O   UNL     1      -0.330  13.245  18.071  0.00  0.00    +0.000 OA
ENDROOT
BRANCH   3  15
ATOM     15  C   UNL     1      -2.445  12.515  20.867  0.00  0.00    +0.000 C 
ATOM     16  F   UNL     1      -2.808  12.233  22.148  0.00  0.00    +0.000 F 
ATOM     17  F   UNL     1      -1.747  13.671  20.921  0.00  0.00    +0.000 F 
ATOM     18  F   UNL     1      -3.601  12.760  20.201  0.00  0.00    +0.000 F 
ENDBRANCH   3  15
BRANCH   9  19
ATOM     19  C   UNL     1       2.788   6.410  18.439  0.00  0.00    +0.000 C 
ATOM     20  C   UNL     1       3.877   5.760  19.364  0.00  0.00    +0.000 C 
ATOM     21  O   UNL     1       4.749   5.555  18.229  0.00  0.00    +0.000 OA
ATOM     22  C   UNL     1       4.010   6.580  17.504  0.00  0.00    +0.000 C 
BRANCH  19  23
ATOM     23  C   UNL     1       1.771   5.318  18.062  0.00  0.00    +0.000 C 
BRANCH  23  24
ATOM     24  C   UNL     1       1.596   4.197  19.023  0.00  0.00    +0.000 A 
ATOM     25  N   UNL     1       0.936   4.205  20.161  0.00  0.00    +0.000 NA
ATOM     26  N   UNL     1       1.058   2.967  20.746  0.00  0.00    +0.000 NA
ATOM     27  C   UNL     1       1.758   2.210  19.934  0.00  0.00    +0.000 A 
ATOM     28  N   UNL     1       2.093   2.930  18.827  0.00  0.00    +0.000 N 
ATOM     29  C   UNL     1       2.856   2.448  17.707  0.00  0.00    +0.000 C 
ENDBRANCH  23  24
ENDBRANCH  19  23
ENDBRANCH   9  19
TORSDOF 4
ENDMDL
MODEL 2
REMARK VINA RESULT:      -7.6      2.180      2.861
REMARK  Name = 
REMARK  6 active torsions:
REMARK  status: ('A' for Active; 'I' for Inactive)
REMARK    1  A    between atoms: C_1  and  C_2
REMARK    2  A    between atoms: C_3  and  C_4
REMARK    3  A    between atoms: C_13  and  C_14
REMARK    4  A    between atoms: C_14  and  C_15
REMARK    5  A    between atoms: C_15  and  C_16
REMARK    6  A    between atoms: N_20  and  C_21
REMARK                            x       y       z     vdW  Elec       q    Type
REMARK                         _______ _______ _______ _____ _____    ______ ____
ROOT
ATOM      1  C   UNL     1      -0.918   9.560  17.871  0.00  0.00    +0.000 C 
ATOM      2  C   UNL     1      -0.546  10.648  18.839  0.00  0.00    +0.000 C 
ATOM      3  C   UNL     1      -0.923  10.683  20.142  0.00  0.00    +0.000 C 
ATOM      4  C   UNL     1      -0.472   9.633  21.119  0.00  0.00    +0.000 C 
ATOM      5  C   UNL     1       1.044   9.763  21.356  0.00  0.00    +0.000 C 
ATOM      6  C   UNL     1       1.627   8.676  20.504  0.00  0.00    +0.000 A 
ATOM      7  C   UNL     1       1.481   7.396  21.044  0.00  0.00    +0.000 A 
ATOM      8  C   UNL     1       1.659   6.285  20.255  0.00  0.00    +0.000 A 
ATOM      9  C   UNL     1       2.154   6.384  18.948  0.00  0.00    +0.000 A 
ATOM     10  C   UNL     1       2.309   7.694  18.416  0.00  0.00    +0.000 A 
ATOM     11  C   UNL     1       1.996   8.856  19.163  0.00  0.00    +0.000 A 
ATOM     12  C   UNL     1       2.082  10.247  18.538  0.00  0.00    +0.000 C 
ATOM     13  C   UNL     1       0.843  11.169  18.543  0.00  0.00    +0.000 C 
ATOM     14  O   UNL     1       0.946  12.357  18.230  0.00  0.00    +0.000 OA
ENDROOT
BRANCH   3  15
ATOM     15  C   UNL     1      -1.471  11.895  20.832  0.00  0.00    +0.000 C 
ATOM     16  F   UNL     1      -1.899  11.625  22.095  0.00  0.00    +0.000 F 
ATOM     17  F   UNL     1      -0.583  12.907  20.946  0.00  0.00    +0.000 F 
ATOM     18  F   UNL     1      -2.555  12.366  20.167  0.00  0.00    +0.000 F 
ENDBRANCH   3  15
BRANCH   9  19
ATOM     19  C   UNL     1       2.589   5.017  18.230  0.00  0.00    +0.000 C 
ATOM     20  C   UNL     1       1.423   4.379  17.394  0.00  0.00    +0.000 C 
ATOM     21  O   UNL     1       1.760   3.063  17.888  0.00  0.00    +0.000 OA
ATOM     22  C   UNL     1       2.455   3.685  19.008  0.00  0.00    +0.000 C 
BRANCH  19  23
ATOM     23  C   UNL     1       3.812   5.163  17.306  0.00  0.00    +0.000 C 
BRANCH  23  24
ATOM     24  C   UNL     1       5.152   5.097  17.946  0.00  0.00    +0.000 A 
ATOM     25  N   UNL     1       5.457   5.317  19.207  0.00  0.00    +0.000 NA
ATOM     26  N   UNL     1       6.816   5.180  19.358  0.00  0.00    +0.000 NA
ATOM     27  C   UNL     1       7.315   4.838  18.193  0.00  0.00    +0.000 A 
ATOM     28  N   UNL     1       6.305   4.745  17.284  0.00  0.00    +0.000 N 
ATOM     29  C   UNL     1       6.450   4.391  15.897  0.00  0.00    +0.000 C 
ENDBRANCH  23  24
ENDBRANCH  19  23
ENDBRANCH   9  19
TORSDOF 4
ENDMDL
MODEL 3
REMARK VINA RESULT:      -7.4      0.613      1.168
REMARK  Name = 
REMARK  6 active torsions:
REMARK  status: ('A' for Active; 'I' for Inactive)
REMARK    1  A    between atoms: C_1  and  C_2
REMARK    2  A    between atoms: C_3  and  C_4
REMARK    3  A    between atoms: C_13  and  C_14
REMARK    4  A    between atoms: C_14  and  C_15
REMARK    5  A    between atoms: C_15  and  C_16
REMARK    6  A    between atoms: N_20  and  C_21
REMARK                            x       y       z     vdW  Elec       q    Type
REMARK                         _______ _______ _______ _____ _____    ______ ____
ROOT
ATOM      1  C   UNL     1      -1.442  10.184  17.918  0.00  0.00    +0.000 C 
ATOM      2  C   UNL     1      -1.262  11.345  18.855  0.00  0.00    +0.000 C 
ATOM      3  C   UNL     1      -1.607  11.338  20.167  0.00  0.00    +0.000 C 
ATOM      4  C   UNL     1      -0.938  10.417  21.150  0.00  0.00    +0.000 C 
ATOM      5  C   UNL     1       0.530  10.842  21.342  0.00  0.00    +0.000 C 
ATOM      6  C   UNL     1       1.290   9.866  20.493  0.00  0.00    +0.000 A 
ATOM      7  C   UNL     1       1.407   8.595  21.060  0.00  0.00    +0.000 A 
ATOM      8  C   UNL     1       1.776   7.521  20.287  0.00  0.00    +0.000 A 
ATOM      9  C   UNL     1       2.210   7.682  18.965  0.00  0.00    +0.000 A 
ATOM     10  C   UNL     1       2.097   8.985  18.404  0.00  0.00    +0.000 A 
ATOM     11  C   UNL     1       1.584  10.082  19.139  0.00  0.00    +0.000 A 
ATOM     12  C   UNL     1       1.386  11.449  18.487  0.00  0.00    +0.000 C 
ATOM     13  C   UNL     1      -0.007  12.115  18.510  0.00  0.00    +0.000 C 
ATOM     14  O   UNL     1      -0.143  13.294  18.172  0.00  0.00    +0.000 OA
ENDROOT
BRANCH   3  15
ATOM     15  C   UNL     1      -2.360  12.438  20.850  0.00  0.00    +0.000 C 
ATOM     16  F   UNL     1      -2.740  12.102  22.113  0.00  0.00    +0.000 F 
ATOM     17  F   UNL     1      -1.663  13.590  20.963  0.00  0.00    +0.000 F 
ATOM     18  F   UNL     1      -3.507  12.711  20.180  0.00  0.00    +0.000 F 
ENDBRANCH   3  15
BRANCH   9  19
ATOM     19  C   UNL     1       2.882   6.407  18.259  0.00  0.00    +0.000 C 
ATOM     20  C   UNL     1       3.921   5.684  19.188  0.00  0.00    +0.000 C 
ATOM     21  O   UNL     1       4.836   5.531  18.079  0.00  0.00    +0.000 OA
ATOM     22  C   UNL     1       4.144   6.611  17.387  0.00  0.00    +0.000 C 
BRANCH  19  23
ATOM     23  C   UNL     1       1.864   5.358  17.776  0.00  0.00    +0.000 C 
BRANCH  23  24
ATOM     24  C   UNL     1       2.145   3.938  18.117  0.00  0.00    +0.000 A 
ATOM     25  N   UNL     1       2.867   3.072  17.439  0.00  0.00    +0.000 NA
ATOM     26  N   UNL     1       2.836   1.866  18.098  0.00  0.00    +0.000 NA
ATOM     27  C   UNL     1       2.126   2.027  19.190  0.00  0.00    +0.000 A 
ATOM     28  N   UNL     1       1.697   3.318  19.260  0.00  0.00    +0.000 N 
ATOM     29  C   UNL     1       0.895   3.884  20.311  0.00  0.00    +0.000 C 
ENDBRANCH  23  24
ENDBRANCH  19  23
ENDBRANCH   9  19
TORSDOF 4
ENDMDL
MODEL 4
REMARK VINA RESULT:      -7.4      5.282      8.481
REMARK  Name = 
REMARK  6 active torsions:
REMARK  status: ('A' for Active; 'I' for Inactive)
REMARK    1  A    between atoms: C_1  and  C_2
REMARK    2  A    between atoms: C_3  and  C_4
REMARK    3  A    between atoms: C_13  and  C_14
REMARK    4  A    between atoms: C_14  and  C_15
REMARK    5  A    between atoms: C_15  and  C_16
REMARK    6  A    between atoms: N_20  and  C_21
REMARK                            x       y       z     vdW  Elec       q    Type
REMARK                         _______ _______ _______ _____ _____    ______ ____
ROOT
ATOM      1  C   UNL     1       0.454   3.759  19.587  0.00  0.00    +0.000 C 
ATOM      2  C   UNL     1       1.821   3.167  19.782  0.00  0.00    +0.000 C 
ATOM      3  C   UNL     1       2.719   2.956  18.786  0.00  0.00    +0.000 C 
ATOM      4  C   UNL     1       3.305   4.097  18.001  0.00  0.00    +0.000 C 
ATOM      5  C   UNL     1       4.223   4.934  18.911  0.00  0.00    +0.000 C 
ATOM      6  C   UNL     1       3.374   6.118  19.269  0.00  0.00    +0.000 A 
ATOM      7  C   UNL     1       3.252   7.057  18.243  0.00  0.00    +0.000 A 
ATOM      8  C   UNL     1       2.266   8.012  18.290  0.00  0.00    +0.000 A 
ATOM      9  C   UNL     1       1.469   8.191  19.429  0.00  0.00    +0.000 A 
ATOM     10  C   UNL     1       1.613   7.234  20.471  0.00  0.00    +0.000 A 
ATOM     11  C   UNL     1       2.526   6.153  20.385  0.00  0.00    +0.000 A 
ATOM     12  C   UNL     1       2.596   5.087  21.476  0.00  0.00    +0.000 C 
ATOM     13  C   UNL     1       2.402   3.599  21.109  0.00  0.00    +0.000 C 
ATOM     14  O   UNL     1       2.654   2.714  21.931  0.00  0.00    +0.000 OA
ENDROOT
BRANCH   3  15
ATOM     15  C   UNL     1       3.499   1.690  18.605  0.00  0.00    +0.000 C 
ATOM     16  F   UNL     1       4.028   1.578  17.356  0.00  0.00    +0.000 F 
ATOM     17  F   UNL     1       4.536   1.559  19.463  0.00  0.00    +0.000 F 
ATOM     18  F   UNL     1       2.692   0.611  18.763  0.00  0.00    +0.000 F 
ENDBRANCH   3  15
BRANCH   9  19
ATOM     19  C   UNL     1       0.555   9.508  19.478  0.00  0.00    +0.000 C 
ATOM     20  C   UNL     1       1.264  10.705  20.205  0.00  0.00    +0.000 C 
ATOM     21  O   UNL     1       0.039  11.037  20.898  0.00  0.00    +0.000 OA
ATOM     22  C   UNL     1      -0.443   9.685  20.648  0.00  0.00    +0.000 C 
BRANCH  19  23
ATOM     23  C   UNL     1       0.096   9.997  18.092  0.00  0.00    +0.000 C 
BRANCH  23  24
ATOM     24  C   UNL     1      -1.330  10.395  17.955  0.00  0.00    +0.000 A 
ATOM     25  N   UNL     1      -2.375   9.611  17.797  0.00  0.00    +0.000 NA
ATOM     26  N   UNL     1      -3.497  10.397  17.681  0.00  0.00    +0.000 NA
ATOM     27  C   UNL     1      -3.122  11.648  17.811  0.00  0.00    +0.000 A 
ATOM     28  N   UNL     1      -1.776  11.694  18.014  0.00  0.00    +0.000 N 
ATOM     29  C   UNL     1      -0.993  12.886  18.205  0.00  0.00    +0.000 C 
ENDBRANCH  23  24
ENDBRANCH  19  23
ENDBRANCH   9  19
TORSDOF 4
ENDMDL
MODEL 5
REMARK VINA RESULT:      -7.1      5.170      8.355
REMARK  Name = 
REMARK  6 active torsions:
REMARK  status: ('A' for Active; 'I' for Inactive)
REMARK    1  A    between atoms: C_1  and  C_2
REMARK    2  A    between atoms: C_3  and  C_4
REMARK    3  A    between atoms: C_13  and  C_14
REMARK    4  A    between atoms: C_14  and  C_15
REMARK    5  A    between atoms: C_15  and  C_16
REMARK    6  A    between atoms: N_20  and  C_21
REMARK                            x       y       z     vdW  Elec       q    Type
REMARK                         _______ _______ _______ _____ _____    ______ ____
ROOT
ATOM      1  C   UNL     1       0.498   3.909  19.311  0.00  0.00    +0.000 C 
ATOM      2  C   UNL     1       1.845   3.314  19.611  0.00  0.00    +0.000 C 
ATOM      3  C   UNL     1       2.808   3.079  18.684  0.00  0.00    +0.000 C 
ATOM      4  C   UNL     1       3.454   4.202  17.921  0.00  0.00    +0.000 C 
ATOM      5  C   UNL     1       4.312   5.051  18.876  0.00  0.00    +0.000 C 
ATOM      6  C   UNL     1       3.449   6.246  19.154  0.00  0.00    +0.000 A 
ATOM      7  C   UNL     1       3.404   7.166  18.104  0.00  0.00    +0.000 A 
ATOM      8  C   UNL     1       2.423   8.128  18.065  0.00  0.00    +0.000 A 
ATOM      9  C   UNL     1       1.551   8.331  19.143  0.00  0.00    +0.000 A 
ATOM     10  C   UNL     1       1.616   7.393  20.210  0.00  0.00    +0.000 A 
ATOM     11  C   UNL     1       2.525   6.306  20.207  0.00  0.00    +0.000 A 
ATOM     12  C   UNL     1       2.513   5.261  21.320  0.00  0.00    +0.000 C 
ATOM     13  C   UNL     1       2.335   3.767  20.967  0.00  0.00    +0.000 C 
ATOM     14  O   UNL     1       2.524   2.896  21.820  0.00  0.00    +0.000 OA
ENDROOT
BRANCH   3  15
ATOM     15  C   UNL     1       3.590   1.806  18.581  0.00  0.00    +0.000 C 
ATOM     16  F   UNL     1       4.642   1.770  19.444  0.00  0.00    +0.000 F 
ATOM     17  F   UNL     1       2.862   0.695  18.831  0.00  0.00    +0.000 F 
ATOM     18  F   UNL     1       4.126   1.680  17.341  0.00  0.00    +0.000 F 
ENDBRANCH   3  15
BRANCH   9  19
ATOM     19  C   UNL     1       0.644   9.654  19.105  0.00  0.00    +0.000 C 
ATOM     20  C   UNL     1      -0.876   9.349  19.347  0.00  0.00    +0.000 C 
ATOM     21  O   UNL     1      -1.250  10.266  18.293  0.00  0.00    +0.000 OA
ATOM     22  C   UNL     1       0.095  10.149  17.744  0.00  0.00    +0.000 C 
BRANCH  19  23
ATOM     23  C   UNL     1       1.080  10.734  20.112  0.00  0.00    +0.000 C 
BRANCH  23  24
ATOM     24  C   UNL     1       0.380  10.755  21.423  0.00  0.00    +0.000 A 
ATOM     25  N   UNL     1       0.590   9.977  22.464  0.00  0.00    +0.000 NA
ATOM     26  N   UNL     1      -0.301  10.319  23.452  0.00  0.00    +0.000 NA
ATOM     27  C   UNL     1      -1.015  11.329  23.013  0.00  0.00    +0.000 A 
ATOM     28  N   UNL     1      -0.604  11.656  21.757  0.00  0.00    +0.000 N 
ATOM     29  C   UNL     1      -1.141  12.713  20.942  0.00  0.00    +0.000 C 
ENDBRANCH  23  24
ENDBRANCH  19  23
ENDBRANCH   9  19
TORSDOF 4
ENDMDL
MODEL 6
REMARK VINA RESULT:      -7.1      0.881      1.004
REMARK  Name = 
REMARK  6 active torsions:
REMARK  status: ('A' for Active; 'I' for Inactive)
REMARK    1  A    between atoms: C_1  and  C_2
REMARK    2  A    between atoms: C_3  and  C_4
REMARK    3  A    between atoms: C_13  and  C_14
REMARK    4  A    between atoms: C_14  and  C_15
REMARK    5  A    between atoms: C_15  and  C_16
REMARK    6  A    between atoms: N_20  and  C_21
REMARK                            x       y       z     vdW  Elec       q    Type
REMARK                         _______ _______ _______ _____ _____    ______ ____
ROOT
ATOM      1  C   UNL     1      -1.735  10.163  18.272  0.00  0.00    +0.000 C 
ATOM      2  C   UNL     1      -1.522  11.469  18.984  0.00  0.00    +0.000 C 
ATOM      3  C   UNL     1      -1.889  11.716  20.267  0.00  0.00    +0.000 C 
ATOM      4  C   UNL     1      -1.275  10.967  21.418  0.00  0.00    +0.000 C 
ATOM      5  C   UNL     1       0.206  11.365  21.563  0.00  0.00    +0.000 C 
ATOM      6  C   UNL     1       0.939  10.222  20.926  0.00  0.00    +0.000 A 
ATOM      7  C   UNL     1       0.994   9.074  21.718  0.00  0.00    +0.000 A 
ATOM      8  C   UNL     1       1.331   7.862  21.164  0.00  0.00    +0.000 A 
ATOM      9  C   UNL     1       1.794   7.761  19.846  0.00  0.00    +0.000 A 
ATOM     10  C   UNL     1       1.743   8.942  19.054  0.00  0.00    +0.000 A 
ATOM     11  C   UNL     1       1.264  10.174  19.562  0.00  0.00    +0.000 A 
ATOM     12  C   UNL     1       1.133  11.404  18.666  0.00  0.00    +0.000 C 
ATOM     13  C   UNL     1      -0.232  12.115  18.534  0.00  0.00    +0.000 C 
ATOM     14  O   UNL     1      -0.313  13.215  17.983  0.00  0.00    +0.000 OA
ENDROOT
BRANCH   3  15
ATOM     15  C   UNL     1      -2.608  12.950  20.719  0.00  0.00    +0.000 C 
ATOM     16  F   UNL     1      -2.965  12.893  22.031  0.00  0.00    +0.000 F 
ATOM     17  F   UNL     1      -1.888  14.085  20.576  0.00  0.00    +0.000 F 
ATOM     18  F   UNL     1      -3.764  13.103  20.027  0.00  0.00    +0.000 F 
ENDBRANCH   3  15
BRANCH   9  19
ATOM     19  C   UNL     1       2.423   6.354  19.402  0.00  0.00    +0.000 C 
ATOM     20  C   UNL     1       3.971   6.439  19.153  0.00  0.00    +0.000 C 
ATOM     21  O   UNL     1       3.845   5.628  17.963  0.00  0.00    +0.000 OA
ATOM     22  C   UNL     1       2.432   5.976  17.901  0.00  0.00    +0.000 C 
BRANCH  19  23
ATOM     23  C   UNL     1       2.165   5.215  20.404  0.00  0.00    +0.000 C 
BRANCH  23  24
ATOM     24  C   UNL     1       1.699   3.918  19.846  0.00  0.00    +0.000 A 
ATOM     25  N   UNL     1       0.484   3.597  19.454  0.00  0.00    +0.000 NA
ATOM     26  N   UNL     1       0.492   2.287  19.037  0.00  0.00    +0.000 NA
ATOM     27  C   UNL     1       1.721   1.842  19.144  0.00  0.00    +0.000 A 
ATOM     28  N   UNL     1       2.519   2.838  19.620  0.00  0.00    +0.000 N 
ATOM     29  C   UNL     1       3.933   2.739  19.870  0.00  0.00    +0.000 C 
ENDBRANCH  23  24
ENDBRANCH  19  23
ENDBRANCH   9  19
TORSDOF 4
ENDMDL
MODEL 7
REMARK VINA RESULT:      -7.1      2.201      2.999
REMARK  Name = 
REMARK  6 active torsions:
REMARK  status: ('A' for Active; 'I' for Inactive)
REMARK    1  A    between atoms: C_1  and  C_2
REMARK    2  A    between atoms: C_3  and  C_4
REMARK    3  A    between atoms: C_13  and  C_14
REMARK    4  A    between atoms: C_14  and  C_15
REMARK    5  A    between atoms: C_15  and  C_16
REMARK    6  A    between atoms: N_20  and  C_21
REMARK                            x       y       z     vdW  Elec       q    Type
REMARK                         _______ _______ _______ _____ _____    ______ ____
ROOT
ATOM      1  C   UNL     1      -1.348  10.298  17.792  0.00  0.00    +0.000 C 
ATOM      2  C   UNL     1      -1.243  11.460  18.740  0.00  0.00    +0.000 C 
ATOM      3  C   UNL     1      -1.672  11.445  20.028  0.00  0.00    +0.000 C 
ATOM      4  C   UNL     1      -1.057  10.531  21.051  0.00  0.00    +0.000 C 
ATOM      5  C   UNL     1       0.390  10.973  21.338  0.00  0.00    +0.000 C 
ATOM      6  C   UNL     1       1.216  10.009  20.539  0.00  0.00    +0.000 A 
ATOM      7  C   UNL     1       1.311   8.738  21.111  0.00  0.00    +0.000 A 
ATOM      8  C   UNL     1       1.743   7.670  20.362  0.00  0.00    +0.000 A 
ATOM      9  C   UNL     1       2.260   7.839  19.070  0.00  0.00    +0.000 A 
ATOM     10  C   UNL     1       2.167   9.142  18.506  0.00  0.00    +0.000 A 
ATOM     11  C   UNL     1       1.594  10.232  19.207  0.00  0.00    +0.000 A 
ATOM     12  C   UNL     1       1.422  11.597  18.545  0.00  0.00    +0.000 C 
ATOM     13  C   UNL     1       0.022  12.246  18.479  0.00  0.00    +0.000 C 
ATOM     14  O   UNL     1      -0.106  13.423  18.135  0.00  0.00    +0.000 OA
ENDROOT
BRANCH   3  15
ATOM     15  C   UNL     1      -2.482  12.534  20.662  0.00  0.00    +0.000 C 
ATOM     16  F   UNL     1      -3.459  13.003  19.839  0.00  0.00    +0.000 F 
ATOM     17  F   UNL     1      -3.102  12.161  21.804  0.00  0.00    +0.000 F 
ATOM     18  F   UNL     1      -1.696  13.602  20.947  0.00  0.00    +0.000 F 
ENDBRANCH   3  15
BRANCH   9  19
ATOM     19  C   UNL     1       2.992   6.575  18.408  0.00  0.00    +0.000 C 
ATOM     20  C   UNL     1       2.023   5.355  18.210  0.00  0.00    +0.000 C 
ATOM     21  O   UNL     1       3.043   4.443  18.677  0.00  0.00    +0.000 OA
ATOM     22  C   UNL     1       3.715   5.560  19.328  0.00  0.00    +0.000 C 
BRANCH  19  23
ATOM     23  C   UNL     1       3.655   6.881  17.054  0.00  0.00    +0.000 C 
BRANCH  23  24
ATOM     24  C   UNL     1       5.117   6.630  16.946  0.00  0.00    +0.000 A 
ATOM     25  N   UNL     1       6.101   7.398  17.363  0.00  0.00    +0.000 NA
ATOM     26  N   UNL     1       7.293   6.800  17.032  0.00  0.00    +0.000 NA
ATOM     27  C   UNL     1       7.017   5.654  16.454  0.00  0.00    +0.000 A 
ATOM     28  N   UNL     1       5.665   5.492  16.404  0.00  0.00    +0.000 N 
ATOM     29  C   UNL     1       4.973   4.361  15.847  0.00  0.00    +0.000 C 
ENDBRANCH  23  24
ENDBRANCH  19  23
ENDBRANCH   9  19
TORSDOF 4
ENDMDL
MODEL 8
REMARK VINA RESULT:      -6.9      5.003      8.226
REMARK  Name = 
REMARK  6 active torsions:
REMARK  status: ('A' for Active; 'I' for Inactive)
REMARK    1  A    between atoms: C_1  and  C_2
REMARK    2  A    between atoms: C_3  and  C_4
REMARK    3  A    between atoms: C_13  and  C_14
REMARK    4  A    between atoms: C_14  and  C_15
REMARK    5  A    between atoms: C_15  and  C_16
REMARK    6  A    between atoms: N_20  and  C_21
REMARK                            x       y       z     vdW  Elec       q    Type
REMARK                         _______ _______ _______ _____ _____    ______ ____
ROOT
ATOM      1  C   UNL     1       0.081   4.375  19.942  0.00  0.00    +0.000 C 
ATOM      2  C   UNL     1       1.409   3.686  19.804  0.00  0.00    +0.000 C 
ATOM      3  C   UNL     1       2.023   3.427  18.622  0.00  0.00    +0.000 C 
ATOM      4  C   UNL     1       2.482   4.535  17.715  0.00  0.00    +0.000 C 
ATOM      5  C   UNL     1       3.650   5.293  18.373  0.00  0.00    +0.000 C 
ATOM      6  C   UNL     1       3.000   6.528  18.922  0.00  0.00    +0.000 A 
ATOM      7  C   UNL     1       2.701   7.488  17.953  0.00  0.00    +0.000 A 
ATOM      8  C   UNL     1       1.826   8.509  18.233  0.00  0.00    +0.000 A 
ATOM      9  C   UNL     1       1.341   8.727  19.530  0.00  0.00    +0.000 A 
ATOM     10  C   UNL     1       1.664   7.747  20.510  0.00  0.00    +0.000 A 
ATOM     11  C   UNL     1       2.449   6.606  20.210  0.00  0.00    +0.000 A 
ATOM     12  C   UNL     1       2.704   5.523  21.255  0.00  0.00    +0.000 C 
ATOM     13  C   UNL     1       2.322   4.057  20.950  0.00  0.00    +0.000 C 
ATOM     14  O   UNL     1       2.700   3.146  21.690  0.00  0.00    +0.000 OA
ENDROOT
BRANCH   3  15
ATOM     15  C   UNL     1       2.645   2.112  18.262  0.00  0.00    +0.000 C 
ATOM     16  F   UNL     1       2.463   1.792  16.951  0.00  0.00    +0.000 F 
ATOM     17  F   UNL     1       3.978   2.060  18.478  0.00  0.00    +0.000 F 
ATOM     18  F   UNL     1       2.070   1.108  18.971  0.00  0.00    +0.000 F 
ENDBRANCH   3  15
BRANCH   9  19
ATOM     19  C   UNL     1       0.563  10.104  19.794  0.00  0.00    +0.000 C 
ATOM     20  C   UNL     1       0.983  11.235  18.789  0.00  0.00    +0.000 C 
ATOM     21  O   UNL     1       1.018  12.204  19.862  0.00  0.00    +0.000 OA
ATOM     22  C   UNL     1       1.144  11.110  20.817  0.00  0.00    +0.000 C 
BRANCH  19  23
ATOM     23  C   UNL     1      -0.970   9.969  19.745  0.00  0.00    +0.000 C 
BRANCH  23  24
ATOM     24  C   UNL     1      -1.639  10.335  18.469  0.00  0.00    +0.000 A 
ATOM     25  N   UNL     1      -1.498   9.767  17.291  0.00  0.00    +0.000 NA
ATOM     26  N   UNL     1      -2.278  10.443  16.383  0.00  0.00    +0.000 NA
ATOM     27  C   UNL     1      -2.915  11.389  17.032  0.00  0.00    +0.000 A 
ATOM     28  N   UNL     1      -2.569  11.342  18.348  0.00  0.00    +0.000 N 
ATOM     29  C   UNL     1      -3.059  12.215  19.381  0.00  0.00    +0.000 C 
ENDBRANCH  23  24
ENDBRANCH  19  23
ENDBRANCH   9  19
TORSDOF 4
ENDMDL
MODEL 9
REMARK VINA RESULT:      -6.8      5.421      8.594
REMARK  Name = 
REMARK  6 active torsions:
REMARK  status: ('A' for Active; 'I' for Inactive)
REMARK    1  A    between atoms: C_1  and  C_2
REMARK    2  A    between atoms: C_3  and  C_4
REMARK    3  A    between atoms: C_13  and  C_14
REMARK    4  A    between atoms: C_14  and  C_15
REMARK    5  A    between atoms: C_15  and  C_16
REMARK    6  A    between atoms: N_20  and  C_21
REMARK                            x       y       z     vdW  Elec       q    Type
REMARK                         _______ _______ _______ _____ _____    ______ ____
ROOT
ATOM      1  C   UNL     1       0.659   4.169  18.694  0.00  0.00    +0.000 C 
ATOM      2  C   UNL     1       1.994   3.601  19.082  0.00  0.00    +0.000 C 
ATOM      3  C   UNL     1       3.031   3.413  18.226  0.00  0.00    +0.000 C 
ATOM      4  C   UNL     1       3.702   4.571  17.539  0.00  0.00    +0.000 C 
ATOM      5  C   UNL     1       4.462   5.418  18.576  0.00  0.00    +0.000 C 
ATOM      6  C   UNL     1       3.548   6.583  18.814  0.00  0.00    +0.000 A 
ATOM      7  C   UNL     1       3.558   7.527  17.785  0.00  0.00    +0.000 A 
ATOM      8  C   UNL     1       2.557   8.464  17.693  0.00  0.00    +0.000 A 
ATOM      9  C   UNL     1       1.600   8.619  18.705  0.00  0.00    +0.000 A 
ATOM     10  C   UNL     1       1.611   7.658  19.753  0.00  0.00    +0.000 A 
ATOM     11  C   UNL     1       2.547   6.594  19.795  0.00  0.00    +0.000 A 
ATOM     12  C   UNL     1       2.478   5.522  20.880  0.00  0.00    +0.000 C 
ATOM     13  C   UNL     1       2.369   4.033  20.481  0.00  0.00    +0.000 C 
ATOM     14  O   UNL     1       2.516   3.147  21.326  0.00  0.00    +0.000 OA
ENDROOT
BRANCH   3  15
ATOM     15  C   UNL     1       3.853   2.163  18.154  0.00  0.00    +0.000 C 
ATOM     16  F   UNL     1       4.649   2.127  17.050  0.00  0.00    +0.000 F 
ATOM     17  F   UNL     1       4.674   1.987  19.213  0.00  0.00    +0.000 F 
ATOM     18  F   UNL     1       3.050   1.074  18.066  0.00  0.00    +0.000 F 
ENDBRANCH   3  15
BRANCH   9  19
ATOM     19  C   UNL     1       0.664   9.920  18.628  0.00  0.00    +0.000 C 
ATOM     20  C   UNL     1      -0.414   9.954  19.769  0.00  0.00    +0.000 C 
ATOM     21  O   UNL     1      -1.422  10.395  18.832  0.00  0.00    +0.000 OA
ATOM     22  C   UNL     1      -0.605   9.879  17.741  0.00  0.00    +0.000 C 
BRANCH  19  23
ATOM     23  C   UNL     1       1.442  11.247  18.667  0.00  0.00    +0.000 C 
BRANCH  23  24
ATOM     24  C   UNL     1       1.109  12.191  19.767  0.00  0.00    +0.000 A 
ATOM     25  N   UNL     1       1.527  12.158  21.014  0.00  0.00    +0.000 NA
ATOM     26  N   UNL     1       0.949  13.202  21.697  0.00  0.00    +0.000 NA
ATOM     27  C   UNL     1       0.218  13.880  20.843  0.00  0.00    +0.000 A 
ATOM     28  N   UNL     1       0.311  13.301  19.614  0.00  0.00    +0.000 N 
ATOM     29  C   UNL     1      -0.344  13.755  18.417  0.00  0.00    +0.000 C 
ENDBRANCH  23  24
ENDBRANCH  19  23
ENDBRANCH   9  19
TORSDOF 4
ENDMDL
