MODEL 1
REMARK VINA RESULT:      -8.6      0.000      0.000
REMARK  Name = 
REMARK  4 active torsions:
REMARK  status: ('A' for Active; 'I' for Inactive)
REMARK    1  A    between atoms: C_2  and  C_24
REMARK    2  A    between atoms: N_3  and  C_4
REMARK    3  A    between atoms: C_8  and  C_10
REMARK    4  A    between atoms: C_10  and  C_11
REMARK                            x       y       z     vdW  Elec       q    Type
REMARK                         _______ _______ _______ _____ _____    ______ ____
ROOT
ATOM      1  C   UNL     1       0.609   9.775  18.789  0.00  0.00    +0.000 C 
ATOM      2  C   UNL     1       0.500   9.181  20.203  0.00  0.00    +0.000 C 
ATOM      3  C   UNL     1       1.690   8.311  20.628  0.00  0.00    +0.000 C 
ATOM      4  N   UNL     1       2.150   7.404  19.570  0.00  0.00    +0.000 N 
ATOM      5  C   UNL     1       2.434   6.077  19.885  0.00  0.00    +0.000 C 
ATOM      6  O   UNL     1       2.274   5.688  21.051  0.00  0.00    +0.000 OA
ATOM      7  C   UNL     1       2.397   8.080  18.306  0.00  0.00    +0.000 C 
ATOM      8  C   UNL     1       1.093   8.692  17.810  0.00  0.00    +0.000 C 
ENDROOT
BRANCH   5   9
ATOM      9  C   UNL     1       3.018   5.070  18.830  0.00  0.00    +0.000 C 
ATOM     10  C   UNL     1       2.056   4.715  17.666  0.00  0.00    +0.000 C 
ATOM     11  C   UNL     1       2.375   3.282  17.227  0.00  0.00    +0.000 C 
ATOM     12  C   UNL     1       3.163   2.657  18.363  0.00  0.00    +0.000 C 
ATOM     13  C   UNL     1       3.053   3.657  19.508  0.00  0.00    +0.000 C 
BRANCH   9  14
ATOM     14  C   UNL     1       4.466   5.444  18.448  0.00  0.00    +0.000 A 
ATOM     15  C   UNL     1       4.723   6.104  17.225  0.00  0.00    +0.000 A 
ATOM     16  C   UNL     1       5.994   6.597  16.905  0.00  0.00    +0.000 A 
ATOM     17  C   UNL     1       7.046   6.432  17.797  0.00  0.00    +0.000 A 
ATOM     18  C   UNL     1       6.820   5.756  18.988  0.00  0.00    +0.000 A 
ATOM     19  F   UNL     1       7.828   5.604  19.857  0.00  0.00    +0.000 F 
ATOM     20  C   UNL     1       5.559   5.256  19.311  0.00  0.00    +0.000 A 
ENDBRANCH   9  14
ENDBRANCH   5   9
BRANCH   1  23
ATOM     21  O   UNL     1      -0.355  12.392  18.577  0.00  0.00    +0.000 OA
ATOM     22  C   UNL     1       0.859  12.229  18.652  0.00  0.00    +0.000 C 
ATOM     23  N   UNL     1       1.449  10.978  18.739  0.00  0.00    +0.000 N 
ATOM     24  H   UNL     1       2.377  10.938  19.140  0.00  0.00    +0.000 HD
BRANCH  22  25
ATOM     25  C   UNL     1       1.746  13.421  18.671  0.00  0.00    +0.000 A 
ATOM     26  C   UNL     1       1.170  14.662  18.980  0.00  0.00    +0.000 A 
ATOM     27  C   UNL     1       1.938  15.826  18.952  0.00  0.00    +0.000 A 
ATOM     28  C   UNL     1       3.285  15.759  18.602  0.00  0.00    +0.000 A 
ATOM     29  C   UNL     1       3.864  14.528  18.283  0.00  0.00    +0.000 A 
ATOM     30  C   UNL     1       3.099  13.357  18.314  0.00  0.00    +0.000 A 
ENDBRANCH  22  25
ENDBRANCH   1  23
TORSDOF 4
ENDMDL
MODEL 2
REMARK VINA RESULT:      -8.4      1.185      1.607
REMARK  Name = 
REMARK  4 active torsions:
REMARK  status: ('A' for Active; 'I' for Inactive)
REMARK    1  A    between atoms: C_2  and  C_24
REMARK    2  A    between atoms: N_3  and  C_4
REMARK    3  A    between atoms: C_8  and  C_10
REMARK    4  A    between atoms: C_10  and  C_11
REMARK                            x       y       z     vdW  Elec       q    Type
REMARK                         _______ _______ _______ _____ _____    ______ ____
ROOT
ATOM      1  C   UNL     1       0.879   9.710  18.768  0.00  0.00    +0.000 C 
ATOM      2  C   UNL     1       0.610   9.084  20.147  0.00  0.00    +0.000 C 
ATOM      3  C   UNL     1       1.692   8.109  20.632  0.00  0.00    +0.000 C 
ATOM      4  N   UNL     1       2.164   7.201  19.580  0.00  0.00    +0.000 N 
ATOM      5  C   UNL     1       2.319   5.847  19.867  0.00  0.00    +0.000 C 
ATOM      6  O   UNL     1       2.036   5.437  21.002  0.00  0.00    +0.000 OA
ATOM      7  C   UNL     1       2.565   7.894  18.365  0.00  0.00    +0.000 C 
ATOM      8  C   UNL     1       1.356   8.622  17.791  0.00  0.00    +0.000 C 
ENDROOT
BRANCH   5   9
ATOM      9  C   UNL     1       2.908   4.829  18.826  0.00  0.00    +0.000 C 
ATOM     10  C   UNL     1       1.917   4.387  17.716  0.00  0.00    +0.000 C 
ATOM     11  C   UNL     1       2.286   2.955  17.315  0.00  0.00    +0.000 C 
ATOM     12  C   UNL     1       3.149   2.410  18.438  0.00  0.00    +0.000 C 
ATOM     13  C   UNL     1       3.037   3.446  19.551  0.00  0.00    +0.000 C 
BRANCH   9  14
ATOM     14  C   UNL     1       4.319   5.255  18.370  0.00  0.00    +0.000 A 
ATOM     15  C   UNL     1       5.369   5.335  19.313  0.00  0.00    +0.000 A 
ATOM     16  C   UNL     1       6.695   5.568  18.925  0.00  0.00    +0.000 A 
ATOM     17  C   UNL     1       7.003   5.739  17.581  0.00  0.00    +0.000 A 
ATOM     18  C   UNL     1       5.980   5.697  16.644  0.00  0.00    +0.000 A 
ATOM     19  F   UNL     1       6.273   5.850  15.346  0.00  0.00    +0.000 F 
ATOM     20  C   UNL     1       4.657   5.472  17.023  0.00  0.00    +0.000 A 
ENDBRANCH   9  14
ENDBRANCH   5   9
BRANCH   1  23
ATOM     21  O   UNL     1       0.187  12.311  19.530  0.00  0.00    +0.000 OA
ATOM     22  C   UNL     1       1.358  12.088  19.239  0.00  0.00    +0.000 C 
ATOM     23  N   UNL     1       1.810  10.843  18.828  0.00  0.00    +0.000 N 
ATOM     24  H   UNL     1       2.797  10.654  18.948  0.00  0.00    +0.000 HD
BRANCH  22  25
ATOM     25  C   UNL     1       2.350  13.189  19.348  0.00  0.00    +0.000 A 
ATOM     26  C   UNL     1       2.989  13.615  18.174  0.00  0.00    +0.000 A 
ATOM     27  C   UNL     1       3.975  14.600  18.221  0.00  0.00    +0.000 A 
ATOM     28  C   UNL     1       4.338  15.158  19.445  0.00  0.00    +0.000 A 
ATOM     29  C   UNL     1       3.713  14.733  20.620  0.00  0.00    +0.000 A 
ATOM     30  C   UNL     1       2.720  13.747  20.577  0.00  0.00    +0.000 A 
ENDBRANCH  22  25
ENDBRANCH   1  23
TORSDOF 4
ENDMDL
MODEL 3
REMARK VINA RESULT:      -8.0      0.885      1.087
REMARK  Name = 
REMARK  4 active torsions:
REMARK  status: ('A' for Active; 'I' for Inactive)
REMARK    1  A    between atoms: C_2  and  C_24
REMARK    2  A    between atoms: N_3  and  C_4
REMARK    3  A    between atoms: C_8  and  C_10
REMARK    4  A    between atoms: C_10  and  C_11
REMARK                            x       y       z     vdW  Elec       q    Type
REMARK                         _______ _______ _______ _____ _____    ______ ____
ROOT
ATOM      1  C   UNL     1       0.767   9.920  19.127  0.00  0.00    +0.000 C 
ATOM      2  C   UNL     1       0.671   9.277  20.520  0.00  0.00    +0.000 C 
ATOM      3  C   UNL     1       1.800   8.290  20.851  0.00  0.00    +0.000 C 
ATOM      4  N   UNL     1       2.129   7.395  19.735  0.00  0.00    +0.000 N 
ATOM      5  C   UNL     1       2.311   6.036  19.982  0.00  0.00    +0.000 C 
ATOM      6  O   UNL     1       2.171   5.611  21.139  0.00  0.00    +0.000 OA
ATOM      7  C   UNL     1       2.377   8.103  18.489  0.00  0.00    +0.000 C 
ATOM      8  C   UNL     1       1.110   8.845  18.083  0.00  0.00    +0.000 C 
ENDROOT
BRANCH   5   9
ATOM      9  C   UNL     1       2.756   5.030  18.861  0.00  0.00    +0.000 C 
ATOM     10  C   UNL     1       1.728   4.836  17.715  0.00  0.00    +0.000 C 
ATOM     11  C   UNL     1       1.883   3.403  17.196  0.00  0.00    +0.000 C 
ATOM     12  C   UNL     1       2.635   2.642  18.273  0.00  0.00    +0.000 C 
ATOM     13  C   UNL     1       2.664   3.588  19.469  0.00  0.00    +0.000 C 
BRANCH   9  14
ATOM     14  C   UNL     1       4.223   5.273  18.448  0.00  0.00    +0.000 A 
ATOM     15  C   UNL     1       4.533   5.583  17.104  0.00  0.00    +0.000 A 
ATOM     16  C   UNL     1       5.824   5.960  16.712  0.00  0.00    +0.000 A 
ATOM     17  C   UNL     1       6.843   6.024  17.655  0.00  0.00    +0.000 A 
ATOM     18  C   UNL     1       6.564   5.691  18.973  0.00  0.00    +0.000 A 
ATOM     19  F   UNL     1       7.539   5.762  19.888  0.00  0.00    +0.000 F 
ATOM     20  C   UNL     1       5.283   5.309  19.370  0.00  0.00    +0.000 A 
ENDBRANCH   9  14
ENDBRANCH   5   9
BRANCH   1  23
ATOM     21  O   UNL     1       0.270  12.458  20.194  0.00  0.00    +0.000 OA
ATOM     22  C   UNL     1       1.359  12.259  19.663  0.00  0.00    +0.000 C 
ATOM     23  N   UNL     1       1.706  11.049  19.083  0.00  0.00    +0.000 N 
ATOM     24  H   UNL     1       2.694  10.853  18.992  0.00  0.00    +0.000 HD
BRANCH  22  25
ATOM     25  C   UNL     1       2.366  13.351  19.653  0.00  0.00    +0.000 A 
ATOM     26  C   UNL     1       2.958  13.687  18.426  0.00  0.00    +0.000 A 
ATOM     27  C   UNL     1       3.955  14.660  18.363  0.00  0.00    +0.000 A 
ATOM     28  C   UNL     1       4.376  15.295  19.529  0.00  0.00    +0.000 A 
ATOM     29  C   UNL     1       3.799  14.961  20.756  0.00  0.00    +0.000 A 
ATOM     30  C   UNL     1       2.795  13.988  20.823  0.00  0.00    +0.000 A 
ENDBRANCH  22  25
ENDBRANCH   1  23
TORSDOF 4
ENDMDL
MODEL 4
REMARK VINA RESULT:      -7.4      3.933      9.512
REMARK  Name = 
REMARK  4 active torsions:
REMARK  status: ('A' for Active; 'I' for Inactive)
REMARK    1  A    between atoms: C_2  and  C_24
REMARK    2  A    between atoms: N_3  and  C_4
REMARK    3  A    between atoms: C_8  and  C_10
REMARK    4  A    between atoms: C_10  and  C_11
REMARK                            x       y       z     vdW  Elec       q    Type
REMARK                         _______ _______ _______ _____ _____    ______ ____
ROOT
ATOM      1  C   UNL     1       1.778   8.585  21.242  0.00  0.00    +0.000 C 
ATOM      2  C   UNL     1       1.146   8.975  22.589  0.00  0.00    +0.000 C 
ATOM      3  C   UNL     1      -0.283   9.526  22.492  0.00  0.00    +0.000 C 
ATOM      4  N   UNL     1      -0.464  10.471  21.384  0.00  0.00    +0.000 N 
ATOM      5  C   UNL     1      -1.160  11.657  21.606  0.00  0.00    +0.000 C 
ATOM      6  O   UNL     1      -1.596  11.895  22.742  0.00  0.00    +0.000 OA
ATOM      7  C   UNL     1       0.004   9.951  20.108  0.00  0.00    +0.000 C 
ATOM      8  C   UNL     1       1.500   9.684  20.204  0.00  0.00    +0.000 C 
ENDROOT
BRANCH   5   9
ATOM      9  C   UNL     1      -1.476  12.675  20.452  0.00  0.00    +0.000 C 
ATOM     10  C   UNL     1      -0.258  13.058  19.570  0.00  0.00    +0.000 C 
ATOM     11  C   UNL     1      -0.477  14.494  19.083  0.00  0.00    +0.000 C 
ATOM     12  C   UNL     1      -1.533  15.093  19.993  0.00  0.00    +0.000 C 
ATOM     13  C   UNL     1      -1.699  14.076  21.117  0.00  0.00    +0.000 C 
BRANCH   9  14
ATOM     14  C   UNL     1      -2.776  12.292  19.715  0.00  0.00    +0.000 A 
ATOM     15  C   UNL     1      -4.028  12.672  20.251  0.00  0.00    +0.000 A 
ATOM     16  C   UNL     1      -5.222  12.481  19.546  0.00  0.00    +0.000 A 
ATOM     17  C   UNL     1      -5.198  11.893  18.287  0.00  0.00    +0.000 A 
ATOM     18  C   UNL     1      -3.982  11.483  17.759  0.00  0.00    +0.000 A 
ATOM     19  F   UNL     1      -3.950  10.926  16.541  0.00  0.00    +0.000 F 
ATOM     20  C   UNL     1      -2.788  11.663  18.458  0.00  0.00    +0.000 A 
ENDBRANCH   9  14
ENDBRANCH   5   9
BRANCH   1  23
ATOM     21  O   UNL     1       3.251   6.938  19.525  0.00  0.00    +0.000 OA
ATOM     22  C   UNL     1       2.170   6.525  19.936  0.00  0.00    +0.000 C 
ATOM     23  N   UNL     1       1.347   7.262  20.773  0.00  0.00    +0.000 N 
ATOM     24  H   UNL     1       0.681   6.743  21.330  0.00  0.00    +0.000 HD
BRANCH  22  25
ATOM     25  C   UNL     1       1.723   5.164  19.540  0.00  0.00    +0.000 A 
ATOM     26  C   UNL     1       1.203   4.328  20.539  0.00  0.00    +0.000 A 
ATOM     27  C   UNL     1       0.826   3.018  20.241  0.00  0.00    +0.000 A 
ATOM     28  C   UNL     1       0.978   2.532  18.945  0.00  0.00    +0.000 A 
ATOM     29  C   UNL     1       1.503   3.355  17.946  0.00  0.00    +0.000 A 
ATOM     30  C   UNL     1       1.879   4.671  18.239  0.00  0.00    +0.000 A 
ENDBRANCH  22  25
ENDBRANCH   1  23
TORSDOF 4
ENDMDL
MODEL 5
REMARK VINA RESULT:      -7.3      2.748      3.789
REMARK  Name = 
REMARK  4 active torsions:
REMARK  status: ('A' for Active; 'I' for Inactive)
REMARK    1  A    between atoms: C_2  and  C_24
REMARK    2  A    between atoms: N_3  and  C_4
REMARK    3  A    between atoms: C_8  and  C_10
REMARK    4  A    between atoms: C_10  and  C_11
REMARK                            x       y       z     vdW  Elec       q    Type
REMARK                         _______ _______ _______ _____ _____    ______ ____
ROOT
ATOM      1  C   UNL     1       0.826  10.295  19.947  0.00  0.00    +0.000 C 
ATOM      2  C   UNL     1       1.818  10.674  18.835  0.00  0.00    +0.000 C 
ATOM      3  C   UNL     1       2.019   9.597  17.760  0.00  0.00    +0.000 C 
ATOM      4  N   UNL     1       2.140   8.244  18.314  0.00  0.00    +0.000 N 
ATOM      5  C   UNL     1       3.137   7.397  17.834  0.00  0.00    +0.000 C 
ATOM      6  O   UNL     1       3.913   7.815  16.962  0.00  0.00    +0.000 OA
ATOM      7  C   UNL     1       1.061   7.902  19.227  0.00  0.00    +0.000 C 
ATOM      8  C   UNL     1       1.098   8.855  20.414  0.00  0.00    +0.000 C 
ENDROOT
BRANCH   5   9
ATOM      9  C   UNL     1       3.273   5.906  18.308  0.00  0.00    +0.000 C 
ATOM     10  C   UNL     1       2.053   5.005  17.982  0.00  0.00    +0.000 C 
ATOM     11  C   UNL     1       1.959   3.943  19.081  0.00  0.00    +0.000 C 
ATOM     12  C   UNL     1       2.792   4.458  20.240  0.00  0.00    +0.000 C 
ATOM     13  C   UNL     1       3.125   5.899  19.868  0.00  0.00    +0.000 C 
BRANCH   9  14
ATOM     14  C   UNL     1       4.668   5.340  17.966  0.00  0.00    +0.000 A 
ATOM     15  C   UNL     1       4.857   4.608  16.772  0.00  0.00    +0.000 A 
ATOM     16  C   UNL     1       6.129   4.207  16.345  0.00  0.00    +0.000 A 
ATOM     17  C   UNL     1       7.247   4.518  17.110  0.00  0.00    +0.000 A 
ATOM     18  C   UNL     1       7.077   5.207  18.303  0.00  0.00    +0.000 A 
ATOM     19  F   UNL     1       8.151   5.520  19.039  0.00  0.00    +0.000 F 
ATOM     20  C   UNL     1       5.812   5.604  18.738  0.00  0.00    +0.000 A 
ENDBRANCH   9  14
ENDBRANCH   5   9
BRANCH   1  23
ATOM     21  O   UNL     1      -0.617  12.667  20.289  0.00  0.00    +0.000 OA
ATOM     22  C   UNL     1      -1.184  11.719  19.755  0.00  0.00    +0.000 C 
ATOM     23  N   UNL     1      -0.575  10.490  19.553  0.00  0.00    +0.000 N 
ATOM     24  H   UNL     1      -0.959   9.905  18.823  0.00  0.00    +0.000 HD
BRANCH  22  25
ATOM     25  C   UNL     1      -2.582  11.890  19.280  0.00  0.00    +0.000 A 
ATOM     26  C   UNL     1      -3.478  12.577  20.112  0.00  0.00    +0.000 A 
ATOM     27  C   UNL     1      -4.818  12.715  19.751  0.00  0.00    +0.000 A 
ATOM     28  C   UNL     1      -5.273  12.156  18.558  0.00  0.00    +0.000 A 
ATOM     29  C   UNL     1      -4.390  11.463  17.728  0.00  0.00    +0.000 A 
ATOM     30  C   UNL     1      -3.044  11.325  18.085  0.00  0.00    +0.000 A 
ENDBRANCH  22  25
ENDBRANCH   1  23
TORSDOF 4
ENDMDL
MODEL 6
REMARK VINA RESULT:      -7.2      3.952      9.406
REMARK  Name = 
REMARK  4 active torsions:
REMARK  status: ('A' for Active; 'I' for Inactive)
REMARK    1  A    between atoms: C_2  and  C_24
REMARK    2  A    between atoms: N_3  and  C_4
REMARK    3  A    between atoms: C_8  and  C_10
REMARK    4  A    between atoms: C_10  and  C_11
REMARK                            x       y       z     vdW  Elec       q    Type
REMARK                         _______ _______ _______ _____ _____    ______ ____
ROOT
ATOM      1  C   UNL     1       1.799   8.393  21.277  0.00  0.00    +0.000 C 
ATOM      2  C   UNL     1       1.024   8.866  22.518  0.00  0.00    +0.000 C 
ATOM      3  C   UNL     1      -0.367   9.443  22.226  0.00  0.00    +0.000 C 
ATOM      4  N   UNL     1      -0.390  10.333  21.059  0.00  0.00    +0.000 N 
ATOM      5  C   UNL     1      -1.073  11.545  21.139  0.00  0.00    +0.000 C 
ATOM      6  O   UNL     1      -1.633  11.850  22.202  0.00  0.00    +0.000 OA
ATOM      7  C   UNL     1       0.210   9.738  19.875  0.00  0.00    +0.000 C 
ATOM      8  C   UNL     1       1.677   9.443  20.160  0.00  0.00    +0.000 C 
ENDROOT
BRANCH   5   9
ATOM      9  C   UNL     1      -1.222  12.508  19.907  0.00  0.00    +0.000 C 
ATOM     10  C   UNL     1       0.102  12.824  19.163  0.00  0.00    +0.000 C 
ATOM     11  C   UNL     1      -0.022  14.237  18.585  0.00  0.00    +0.000 C 
ATOM     12  C   UNL     1      -1.165  14.901  19.330  0.00  0.00    +0.000 C 
ATOM     13  C   UNL     1      -1.491  13.945  20.473  0.00  0.00    +0.000 C 
BRANCH   9  14
ATOM     14  C   UNL     1      -2.433  12.113  19.036  0.00  0.00    +0.000 A 
ATOM     15  C   UNL     1      -2.227  11.475  17.792  0.00  0.00    +0.000 A 
ATOM     16  C   UNL     1      -3.291  10.962  17.039  0.00  0.00    +0.000 A 
ATOM     17  C   UNL     1      -4.593  11.085  17.508  0.00  0.00    +0.000 A 
ATOM     18  C   UNL     1      -4.818  11.738  18.711  0.00  0.00    +0.000 A 
ATOM     19  F   UNL     1      -6.070  11.849  19.173  0.00  0.00    +0.000 F 
ATOM     20  C   UNL     1      -3.765  12.257  19.464  0.00  0.00    +0.000 A 
ENDBRANCH   9  14
ENDBRANCH   5   9
BRANCH   1  23
ATOM     21  O   UNL     1       3.300   6.746  19.585  0.00  0.00    +0.000 OA
ATOM     22  C   UNL     1       2.225   6.321  19.998  0.00  0.00    +0.000 C 
ATOM     23  N   UNL     1       1.389   7.057  20.824  0.00  0.00    +0.000 N 
ATOM     24  H   UNL     1       0.730   6.536  21.387  0.00  0.00    +0.000 HD
BRANCH  22  25
ATOM     25  C   UNL     1       1.799   4.949  19.620  0.00  0.00    +0.000 A 
ATOM     26  C   UNL     1       1.430   4.070  20.648  0.00  0.00    +0.000 A 
ATOM     27  C   UNL     1       1.082   2.750  20.361  0.00  0.00    +0.000 A 
ATOM     28  C   UNL     1       1.113   2.297  19.044  0.00  0.00    +0.000 A 
ATOM     29  C   UNL     1       1.489   3.163  18.015  0.00  0.00    +0.000 A 
ATOM     30  C   UNL     1       1.835   4.489  18.298  0.00  0.00    +0.000 A 
ENDBRANCH  22  25
ENDBRANCH   1  23
TORSDOF 4
ENDMDL
MODEL 7
REMARK VINA RESULT:      -7.1      2.964      4.098
REMARK  Name = 
REMARK  4 active torsions:
REMARK  status: ('A' for Active; 'I' for Inactive)
REMARK    1  A    between atoms: C_2  and  C_24
REMARK    2  A    between atoms: N_3  and  C_4
REMARK    3  A    between atoms: C_8  and  C_10
REMARK    4  A    between atoms: C_10  and  C_11
REMARK                            x       y       z     vdW  Elec       q    Type
REMARK                         _______ _______ _______ _____ _____    ______ ____
ROOT
ATOM      1  C   UNL     1       0.777  10.355  20.086  0.00  0.00    +0.000 C 
ATOM      2  C   UNL     1       1.683  10.796  18.924  0.00  0.00    +0.000 C 
ATOM      3  C   UNL     1       1.851   9.754  17.809  0.00  0.00    +0.000 C 
ATOM      4  N   UNL     1       2.052   8.392  18.318  0.00  0.00    +0.000 N 
ATOM      5  C   UNL     1       3.045   7.594  17.755  0.00  0.00    +0.000 C 
ATOM      6  O   UNL     1       3.748   8.060  16.846  0.00  0.00    +0.000 OA
ATOM      7  C   UNL     1       1.046   7.990  19.288  0.00  0.00    +0.000 C 
ATOM      8  C   UNL     1       1.127   8.915  20.496  0.00  0.00    +0.000 C 
ENDROOT
BRANCH   5   9
ATOM      9  C   UNL     1       3.261   6.097  18.178  0.00  0.00    +0.000 C 
ATOM     10  C   UNL     1       2.038   5.171  17.946  0.00  0.00    +0.000 C 
ATOM     11  C   UNL     1       2.073   4.083  19.024  0.00  0.00    +0.000 C 
ATOM     12  C   UNL     1       2.997   4.597  20.113  0.00  0.00    +0.000 C 
ATOM     13  C   UNL     1       3.259   6.053  19.745  0.00  0.00    +0.000 C 
BRANCH   9  14
ATOM     14  C   UNL     1       4.631   5.575  17.695  0.00  0.00    +0.000 A 
ATOM     15  C   UNL     1       5.787   5.806  18.476  0.00  0.00    +0.000 A 
ATOM     16  C   UNL     1       7.021   5.225  18.158  0.00  0.00    +0.000 A 
ATOM     17  C   UNL     1       7.133   4.405  17.041  0.00  0.00    +0.000 A 
ATOM     18  C   UNL     1       6.017   4.195  16.244  0.00  0.00    +0.000 A 
ATOM     19  F   UNL     1       6.116   3.397  15.173  0.00  0.00    +0.000 F 
ATOM     20  C   UNL     1       4.786   4.775  16.550  0.00  0.00    +0.000 A 
ENDBRANCH   9  14
ENDBRANCH   5   9
BRANCH   1  23
ATOM     21  O   UNL     1      -0.600  12.790  20.074  0.00  0.00    +0.000 OA
ATOM     22  C   UNL     1      -1.225  11.772  19.792  0.00  0.00    +0.000 C 
ATOM     23  N   UNL     1      -0.652  10.510  19.787  0.00  0.00    +0.000 N 
ATOM     24  H   UNL     1      -1.108   9.804  19.224  0.00  0.00    +0.000 HD
BRANCH  22  25
ATOM     25  C   UNL     1      -2.659  11.888  19.418  0.00  0.00    +0.000 A 
ATOM     26  C   UNL     1      -3.067  11.321  18.202  0.00  0.00    +0.000 A 
ATOM     27  C   UNL     1      -4.386  11.452  17.767  0.00  0.00    +0.000 A 
ATOM     28  C   UNL     1      -5.302  12.163  18.539  0.00  0.00    +0.000 A 
ATOM     29  C   UNL     1      -4.901  12.739  19.746  0.00  0.00    +0.000 A 
ATOM     30  C   UNL     1      -3.581  12.606  20.190  0.00  0.00    +0.000 A 
ENDBRANCH  22  25
ENDBRANCH   1  23
TORSDOF 4
ENDMDL
MODEL 8
REMARK VINA RESULT:      -7.0      3.644      6.890
REMARK  Name = 
REMARK  4 active torsions:
REMARK  status: ('A' for Active; 'I' for Inactive)
REMARK    1  A    between atoms: C_2  and  C_24
REMARK    2  A    between atoms: N_3  and  C_4
REMARK    3  A    between atoms: C_8  and  C_10
REMARK    4  A    between atoms: C_10  and  C_11
REMARK                            x       y       z     vdW  Elec       q    Type
REMARK                         _______ _______ _______ _____ _____    ______ ____
ROOT
ATOM      1  C   UNL     1       3.729  15.690  19.267  0.00  0.00    +0.000 C 
ATOM      2  C   UNL     1       3.263  15.547  20.726  0.00  0.00    +0.000 C 
ATOM      3  C   UNL     1       2.885  14.119  21.142  0.00  0.00    +0.000 C 
ATOM      4  N   UNL     1       2.094  13.412  20.127  0.00  0.00    +0.000 N 
ATOM      5  C   UNL     1       0.974  12.684  20.521  0.00  0.00    +0.000 C 
ATOM      6  O   UNL     1       0.660  12.666  21.720  0.00  0.00    +0.000 OA
ATOM      7  C   UNL     1       2.699  13.449  18.804  0.00  0.00    +0.000 C 
ATOM      8  C   UNL     1       2.789  14.898  18.344  0.00  0.00    +0.000 C 
ENDROOT
BRANCH   5   9
ATOM      9  C   UNL     1       0.131  11.826  19.510  0.00  0.00    +0.000 C 
ATOM     10  C   UNL     1      -0.308  12.577  18.226  0.00  0.00    +0.000 C 
ATOM     11  C   UNL     1      -1.645  11.979  17.778  0.00  0.00    +0.000 C 
ATOM     12  C   UNL     1      -2.199  11.234  18.979  0.00  0.00    +0.000 C 
ATOM     13  C   UNL     1      -1.293  11.637  20.138  0.00  0.00    +0.000 C 
BRANCH   9  14
ATOM     14  C   UNL     1       0.751  10.425  19.321  0.00  0.00    +0.000 A 
ATOM     15  C   UNL     1       1.419  10.108  18.116  0.00  0.00    +0.000 A 
ATOM     16  C   UNL     1       2.125   8.910  17.956  0.00  0.00    +0.000 A 
ATOM     17  C   UNL     1       2.172   7.989  18.997  0.00  0.00    +0.000 A 
ATOM     18  C   UNL     1       1.494   8.268  20.175  0.00  0.00    +0.000 A 
ATOM     19  F   UNL     1       1.545   7.391  21.185  0.00  0.00    +0.000 F 
ATOM     20  C   UNL     1       0.783   9.457  20.339  0.00  0.00    +0.000 A 
ENDBRANCH   9  14
ENDBRANCH   5   9
BRANCH   1  23
ATOM     21  O   UNL     1       5.840  17.493  18.917  0.00  0.00    +0.000 OA
ATOM     22  C   UNL     1       6.102  16.293  18.933  0.00  0.00    +0.000 C 
ATOM     23  N   UNL     1       5.135  15.311  19.078  0.00  0.00    +0.000 N 
ATOM     24  H   UNL     1       5.446  14.413  19.427  0.00  0.00    +0.000 HD
BRANCH  22  25
ATOM     25  C   UNL     1       7.519  15.865  18.811  0.00  0.00    +0.000 A 
ATOM     26  C   UNL     1       8.344  16.569  17.922  0.00  0.00    +0.000 A 
ATOM     27  C   UNL     1       9.666  16.175  17.717  0.00  0.00    +0.000 A 
ATOM     28  C   UNL     1      10.169  15.064  18.391  0.00  0.00    +0.000 A 
ATOM     29  C   UNL     1       9.352  14.351  19.271  0.00  0.00    +0.000 A 
ATOM     30  C   UNL     1       8.026  14.746  19.483  0.00  0.00    +0.000 A 
ENDBRANCH  22  25
ENDBRANCH   1  23
TORSDOF 4
ENDMDL
MODEL 9
REMARK VINA RESULT:      -6.9      1.509      2.976
REMARK  Name = 
REMARK  4 active torsions:
REMARK  status: ('A' for Active; 'I' for Inactive)
REMARK    1  A    between atoms: C_2  and  C_24
REMARK    2  A    between atoms: N_3  and  C_4
REMARK    3  A    between atoms: C_8  and  C_10
REMARK    4  A    between atoms: C_10  and  C_11
REMARK                            x       y       z     vdW  Elec       q    Type
REMARK                         _______ _______ _______ _____ _____    ______ ____
ROOT
ATOM      1  C   UNL     1       0.486  10.093  18.438  0.00  0.00    +0.000 C 
ATOM      2  C   UNL     1       0.121   9.449  19.786  0.00  0.00    +0.000 C 
ATOM      3  C   UNL     1       1.270   8.695  20.470  0.00  0.00    +0.000 C 
ATOM      4  N   UNL     1       2.055   7.873  19.541  0.00  0.00    +0.000 N 
ATOM      5  C   UNL     1       2.401   6.574  19.906  0.00  0.00    +0.000 C 
ATOM      6  O   UNL     1       2.022   6.136  21.002  0.00  0.00    +0.000 OA
ATOM      7  C   UNL     1       2.510   8.609  18.372  0.00  0.00    +0.000 C 
ATOM      8  C   UNL     1       1.295   9.096  17.592  0.00  0.00    +0.000 C 
ENDROOT
BRANCH   5   9
ATOM      9  C   UNL     1       3.316   5.665  19.009  0.00  0.00    +0.000 C 
ATOM     10  C   UNL     1       4.840   5.841  19.244  0.00  0.00    +0.000 C 
ATOM     11  C   UNL     1       5.546   5.562  17.914  0.00  0.00    +0.000 C 
ATOM     12  C   UNL     1       4.479   5.666  16.839  0.00  0.00    +0.000 C 
ATOM     13  C   UNL     1       3.263   6.245  17.554  0.00  0.00    +0.000 C 
BRANCH   9  14
ATOM     14  C   UNL     1       2.782   4.218  18.958  0.00  0.00    +0.000 A 
ATOM     15  C   UNL     1       1.395   3.985  18.818  0.00  0.00    +0.000 A 
ATOM     16  C   UNL     1       0.879   2.699  18.616  0.00  0.00    +0.000 A 
ATOM     17  C   UNL     1       1.738   1.608  18.559  0.00  0.00    +0.000 A 
ATOM     18  C   UNL     1       3.100   1.814  18.728  0.00  0.00    +0.000 A 
ATOM     19  F   UNL     1       3.935   0.769  18.663  0.00  0.00    +0.000 F 
ATOM     20  C   UNL     1       3.621   3.091  18.937  0.00  0.00    +0.000 A 
ENDBRANCH   9  14
ENDBRANCH   5   9
BRANCH   1  23
ATOM     21  O   UNL     1      -0.764  12.595  18.452  0.00  0.00    +0.000 OA
ATOM     22  C   UNL     1       0.454  12.558  18.600  0.00  0.00    +0.000 C 
ATOM     23  N   UNL     1       1.180  11.378  18.589  0.00  0.00    +0.000 N 
ATOM     24  H   UNL     1       2.079  11.391  19.053  0.00  0.00    +0.000 HD
BRANCH  22  25
ATOM     25  C   UNL     1       1.191  13.829  18.821  0.00  0.00    +0.000 A 
ATOM     26  C   UNL     1       0.451  15.020  18.854  0.00  0.00    +0.000 A 
ATOM     27  C   UNL     1       1.093  16.250  18.995  0.00  0.00    +0.000 A 
ATOM     28  C   UNL     1       2.482  16.298  19.093  0.00  0.00    +0.000 A 
ATOM     29  C   UNL     1       3.227  15.118  19.052  0.00  0.00    +0.000 A 
ATOM     30  C   UNL     1       2.587  13.881  18.915  0.00  0.00    +0.000 A 
ENDBRANCH  22  25
ENDBRANCH   1  23
TORSDOF 4
ENDMDL
