MODEL 1
REMARK VINA RESULT:      -9.2      0.000      0.000
REMARK  Name = 
REMARK  8 active torsions:
REMARK  status: ('A' for Active; 'I' for Inactive)
REMARK    1  A    between atoms: C_2  and  C_3
REMARK    2  A    between atoms: C_3  and  O_4
REMARK    3  A    between atoms: O_4  and  C_5
REMARK    4  A    between atoms: C_8  and  N_9
REMARK    5  A    between atoms: C_11  and  C_12
REMARK    6  A    between atoms: N_14  and  C_15
REMARK    7  A    between atoms: C_15  and  C_16
REMARK    8  A    between atoms: N_27  and  C_28
REMARK                            x       y       z     vdW  Elec       q    Type
REMARK                         _______ _______ _______ _____ _____    ______ ____
ROOT
ATOM      1  C   UNL     1       1.268   8.894  19.620  0.00  0.00    +0.000 A 
ATOM      2  C   UNL     1       1.703   9.218  18.340  0.00  0.00    +0.000 A 
ATOM      3  C   UNL     1       2.580   8.366  17.660  0.00  0.00    +0.000 A 
ATOM      4  C   UNL     1       3.030   7.179  18.249  0.00  0.00    +0.000 A 
ATOM      5  C   UNL     1       2.624   6.899  19.558  0.00  0.00    +0.000 A 
ATOM      6  C   UNL     1       1.772   7.754  20.243  0.00  0.00    +0.000 A 
ENDROOT
BRANCH   4   7
ATOM      7  N   UNL     1       3.870   6.267  17.575  0.00  0.00    +0.000 N 
ATOM      8  C   UNL     1       3.569   4.856  17.512  0.00  0.00    +0.000 C 
ATOM      9  C   UNL     1       4.886   4.220  17.184  0.00  0.00    +0.000 C 
ATOM     10  C   UNL     1       5.578   5.276  16.330  0.00  0.00    +0.000 C 
ATOM     11  C   UNL     1       5.023   6.563  16.848  0.00  0.00    +0.000 C 
ATOM     12  O   UNL     1       5.565   7.628  16.599  0.00  0.00    +0.000 OA
BRANCH   9  13
ATOM     13  C   UNL     1       5.698   3.887  18.432  0.00  0.00    +0.000 C 
ATOM     14  O   UNL     1       6.652   4.541  18.820  0.00  0.00    +0.000 OA
ATOM     15  N   UNL     1       5.268   2.804  19.145  0.00  0.00    +0.000 N 
ATOM     16  H   UNL     1       5.859   2.524  19.920  0.00  0.00    +0.000 HD
BRANCH  15  17
ATOM     17  C   UNL     1       4.155   1.972  18.761  0.00  0.00    +0.000 C 
BRANCH  17  18
ATOM     18  C   UNL     1       2.878   2.403  19.369  0.00  0.00    +0.000 A 
ATOM     19  C   UNL     1       2.884   3.030  20.606  0.00  0.00    +0.000 A 
ATOM     20  C   UNL     1       1.686   3.460  21.136  0.00  0.00    +0.000 A 
ATOM     21  C   UNL     1       0.496   3.293  20.477  0.00  0.00    +0.000 A 
ATOM     22  C   UNL     1       0.494   2.691  19.221  0.00  0.00    +0.000 A 
ATOM     23  C   UNL     1       1.685   2.248  18.662  0.00  0.00    +0.000 A 
ENDBRANCH  17  18
ENDBRANCH  15  17
ENDBRANCH   9  13
ENDBRANCH   4   7
BRANCH   1  24
ATOM     24  O   UNL     1       0.332   9.720  20.190  0.00  0.00    +0.000 OA
BRANCH  24  25
ATOM     25  C   UNL     1      -0.192   9.182  21.401  0.00  0.00    +0.000 C 
BRANCH  25  27
ATOM     26  O   UNL     1      -0.018  10.083  23.594  0.00  0.00    +0.000 OA
ATOM     27  C   UNL     1      -0.522  10.201  22.478  0.00  0.00    +0.000 C 
ATOM     28  N   UNL     1      -1.404  11.184  22.080  0.00  0.00    +0.000 N 
ATOM     29  H   UNL     1      -1.873  11.022  21.194  0.00  0.00    +0.000 HD
BRANCH  28  30
ATOM     30  C   UNL     1      -1.824  12.274  22.865  0.00  0.00    +0.000 A 
ATOM     31  C   UNL     1      -3.081  12.332  23.483  0.00  0.00    +0.000 A 
ATOM     32  C   UNL     1      -3.466  13.460  24.211  0.00  0.00    +0.000 A 
ATOM     33  C   UNL     1      -2.586  14.522  24.335  0.00  0.00    +0.000 A 
ATOM     34  F   UNL     1      -2.955  15.614  25.018  0.00  0.00    +0.000 F 
ATOM     35  C   UNL     1      -1.323  14.465  23.763  0.00  0.00    +0.000 A 
ATOM     36  C   UNL     1      -0.935  13.339  23.032  0.00  0.00    +0.000 A 
ENDBRANCH  28  30
ENDBRANCH  25  27
ENDBRANCH  24  25
ENDBRANCH   1  24
TORSDOF 8
ENDMDL
MODEL 2
REMARK VINA RESULT:      -9.0      3.079      3.680
REMARK  Name = 
REMARK  8 active torsions:
REMARK  status: ('A' for Active; 'I' for Inactive)
REMARK    1  A    between atoms: C_2  and  C_3
REMARK    2  A    between atoms: C_3  and  O_4
REMARK    3  A    between atoms: O_4  and  C_5
REMARK    4  A    between atoms: C_8  and  N_9
REMARK    5  A    between atoms: C_11  and  C_12
REMARK    6  A    between atoms: N_14  and  C_15
REMARK    7  A    between atoms: C_15  and  C_16
REMARK    8  A    between atoms: N_27  and  C_28
REMARK                            x       y       z     vdW  Elec       q    Type
REMARK                         _______ _______ _______ _____ _____    ______ ____
ROOT
ATOM      1  C   UNL     1       1.291   9.208  19.294  0.00  0.00    +0.000 A 
ATOM      2  C   UNL     1       1.630   8.088  20.044  0.00  0.00    +0.000 A 
ATOM      3  C   UNL     1       2.477   7.113  19.505  0.00  0.00    +0.000 A 
ATOM      4  C   UNL     1       2.997   7.247  18.213  0.00  0.00    +0.000 A 
ATOM      5  C   UNL     1       2.601   8.355  17.456  0.00  0.00    +0.000 A 
ATOM      6  C   UNL     1       1.743   9.311  17.980  0.00  0.00    +0.000 A 
ENDROOT
BRANCH   4   7
ATOM      7  N   UNL     1       3.897   6.314  17.655  0.00  0.00    +0.000 N 
ATOM      8  C   UNL     1       3.620   4.897  17.650  0.00  0.00    +0.000 C 
ATOM      9  C   UNL     1       4.966   4.267  17.455  0.00  0.00    +0.000 C 
ATOM     10  C   UNL     1       5.705   5.285  16.596  0.00  0.00    +0.000 C 
ATOM     11  C   UNL     1       5.096   6.589  16.998  0.00  0.00    +0.000 C 
ATOM     12  O   UNL     1       5.641   7.649  16.729  0.00  0.00    +0.000 OA
BRANCH   9  13
ATOM     13  C   UNL     1       5.688   4.018  18.776  0.00  0.00    +0.000 C 
ATOM     14  O   UNL     1       6.556   4.747  19.228  0.00  0.00    +0.000 OA
ATOM     15  N   UNL     1       5.277   2.920  19.477  0.00  0.00    +0.000 N 
ATOM     16  H   UNL     1       5.817   2.699  20.306  0.00  0.00    +0.000 HD
BRANCH  15  17
ATOM     17  C   UNL     1       4.264   2.002  19.021  0.00  0.00    +0.000 C 
BRANCH  17  18
ATOM     18  C   UNL     1       2.898   2.407  19.417  0.00  0.00    +0.000 A 
ATOM     19  C   UNL     1       1.829   2.128  18.577  0.00  0.00    +0.000 A 
ATOM     20  C   UNL     1       0.559   2.479  18.983  0.00  0.00    +0.000 A 
ATOM     21  C   UNL     1       0.321   3.085  20.189  0.00  0.00    +0.000 A 
ATOM     22  C   UNL     1       1.391   3.337  21.045  0.00  0.00    +0.000 A 
ATOM     23  C   UNL     1       2.681   2.995  20.663  0.00  0.00    +0.000 A 
ENDBRANCH  17  18
ENDBRANCH  15  17
ENDBRANCH   9  13
ENDBRANCH   4   7
BRANCH   1  24
ATOM     24  O   UNL     1       0.540  10.173  19.917  0.00  0.00    +0.000 OA
BRANCH  24  25
ATOM     25  C   UNL     1       0.663  11.443  19.282  0.00  0.00    +0.000 C 
BRANCH  25  27
ATOM     26  O   UNL     1      -0.624  13.179  18.293  0.00  0.00    +0.000 OA
ATOM     27  C   UNL     1      -0.635  12.049  18.778  0.00  0.00    +0.000 C 
ATOM     28  N   UNL     1      -1.741  11.241  18.942  0.00  0.00    +0.000 N 
ATOM     29  H   UNL     1      -1.608  10.428  19.535  0.00  0.00    +0.000 HD
BRANCH  28  30
ATOM     30  C   UNL     1      -3.046  11.541  18.509  0.00  0.00    +0.000 A 
ATOM     31  C   UNL     1      -3.999  12.166  19.325  0.00  0.00    +0.000 A 
ATOM     32  C   UNL     1      -5.295  12.396  18.861  0.00  0.00    +0.000 A 
ATOM     33  C   UNL     1      -5.634  12.018  17.573  0.00  0.00    +0.000 A 
ATOM     34  F   UNL     1      -6.880  12.221  17.126  0.00  0.00    +0.000 F 
ATOM     35  C   UNL     1      -4.691  11.434  16.737  0.00  0.00    +0.000 A 
ATOM     36  C   UNL     1      -3.394  11.200  17.199  0.00  0.00    +0.000 A 
ENDBRANCH  28  30
ENDBRANCH  25  27
ENDBRANCH  24  25
ENDBRANCH   1  24
TORSDOF 8
ENDMDL
MODEL 3
REMARK VINA RESULT:      -9.0      0.507      1.260
REMARK  Name = 
REMARK  8 active torsions:
REMARK  status: ('A' for Active; 'I' for Inactive)
REMARK    1  A    between atoms: C_2  and  C_3
REMARK    2  A    between atoms: C_3  and  O_4
REMARK    3  A    between atoms: O_4  and  C_5
REMARK    4  A    between atoms: C_8  and  N_9
REMARK    5  A    between atoms: C_11  and  C_12
REMARK    6  A    between atoms: N_14  and  C_15
REMARK    7  A    between atoms: C_15  and  C_16
REMARK    8  A    between atoms: N_27  and  C_28
REMARK                            x       y       z     vdW  Elec       q    Type
REMARK                         _______ _______ _______ _____ _____    ______ ____
ROOT
ATOM      1  C   UNL     1       1.418   8.776  19.509  0.00  0.00    +0.000 A 
ATOM      2  C   UNL     1       1.892   7.599  20.077  0.00  0.00    +0.000 A 
ATOM      3  C   UNL     1       2.813   6.806  19.383  0.00  0.00    +0.000 A 
ATOM      4  C   UNL     1       3.275   7.183  18.117  0.00  0.00    +0.000 A 
ATOM      5  C   UNL     1       2.745   8.342  17.541  0.00  0.00    +0.000 A 
ATOM      6  C   UNL     1       1.814   9.117  18.218  0.00  0.00    +0.000 A 
ENDROOT
BRANCH   4   7
ATOM      7  N   UNL     1       4.244   6.440  17.409  0.00  0.00    +0.000 N 
ATOM      8  C   UNL     1       4.023   5.064  17.030  0.00  0.00    +0.000 C 
ATOM      9  C   UNL     1       5.402   4.532  16.781  0.00  0.00    +0.000 C 
ATOM     10  C   UNL     1       6.154   5.750  16.259  0.00  0.00    +0.000 C 
ATOM     11  C   UNL     1       5.471   6.897  16.930  0.00  0.00    +0.000 C 
ATOM     12  O   UNL     1       5.990   8.001  16.975  0.00  0.00    +0.000 OA
BRANCH   9  13
ATOM     13  C   UNL     1       6.047   3.974  18.046  0.00  0.00    +0.000 C 
ATOM     14  O   UNL     1       7.121   4.348  18.488  0.00  0.00    +0.000 OA
ATOM     15  N   UNL     1       5.322   3.025  18.710  0.00  0.00    +0.000 N 
ATOM     16  H   UNL     1       5.787   2.585  19.496  0.00  0.00    +0.000 HD
BRANCH  15  17
ATOM     17  C   UNL     1       4.049   2.519  18.261  0.00  0.00    +0.000 C 
BRANCH  17  18
ATOM     18  C   UNL     1       2.964   2.738  19.242  0.00  0.00    +0.000 A 
ATOM     19  C   UNL     1       1.641   2.642  18.835  0.00  0.00    +0.000 A 
ATOM     20  C   UNL     1       0.645   2.809  19.773  0.00  0.00    +0.000 A 
ATOM     21  C   UNL     1       0.922   3.059  21.092  0.00  0.00    +0.000 A 
ATOM     22  C   UNL     1       2.251   3.126  21.507  0.00  0.00    +0.000 A 
ATOM     23  C   UNL     1       3.274   2.961  20.584  0.00  0.00    +0.000 A 
ENDBRANCH  17  18
ENDBRANCH  15  17
ENDBRANCH   9  13
ENDBRANCH   4   7
BRANCH   1  24
ATOM     24  O   UNL     1       0.596   9.556  20.283  0.00  0.00    +0.000 OA
BRANCH  24  25
ATOM     25  C   UNL     1       0.486   9.063  21.616  0.00  0.00    +0.000 C 
BRANCH  25  27
ATOM     26  O   UNL     1       0.121   9.876  23.819  0.00  0.00    +0.000 OA
ATOM     27  C   UNL     1      -0.113  10.030  22.622  0.00  0.00    +0.000 C 
ATOM     28  N   UNL     1      -0.907  11.012  22.064  0.00  0.00    +0.000 N 
ATOM     29  H   UNL     1      -1.153  10.877  21.088  0.00  0.00    +0.000 HD
BRANCH  28  30
ATOM     30  C   UNL     1      -1.528  12.061  22.767  0.00  0.00    +0.000 A 
ATOM     31  C   UNL     1      -2.831  11.975  23.275  0.00  0.00    +0.000 A 
ATOM     32  C   UNL     1      -3.417  13.064  23.923  0.00  0.00    +0.000 A 
ATOM     33  C   UNL     1      -2.692  14.234  24.079  0.00  0.00    +0.000 A 
ATOM     34  F   UNL     1      -3.254  15.288  24.685  0.00  0.00    +0.000 F 
ATOM     35  C   UNL     1      -1.386  14.322  23.618  0.00  0.00    +0.000 A 
ATOM     36  C   UNL     1      -0.798  13.235  22.967  0.00  0.00    +0.000 A 
ENDBRANCH  28  30
ENDBRANCH  25  27
ENDBRANCH  24  25
ENDBRANCH   1  24
TORSDOF 8
ENDMDL
MODEL 4
REMARK VINA RESULT:      -8.9      0.723      1.049
REMARK  Name = 
REMARK  8 active torsions:
REMARK  status: ('A' for Active; 'I' for Inactive)
REMARK    1  A    between atoms: C_2  and  C_3
REMARK    2  A    between atoms: C_3  and  O_4
REMARK    3  A    between atoms: O_4  and  C_5
REMARK    4  A    between atoms: C_8  and  N_9
REMARK    5  A    between atoms: C_11  and  C_12
REMARK    6  A    between atoms: N_14  and  C_15
REMARK    7  A    between atoms: C_15  and  C_16
REMARK    8  A    between atoms: N_27  and  C_28
REMARK                            x       y       z     vdW  Elec       q    Type
REMARK                         _______ _______ _______ _____ _____    ______ ____
ROOT
ATOM      1  C   UNL     1       1.242   9.068  19.606  0.00  0.00    +0.000 A 
ATOM      2  C   UNL     1       1.638   9.315  18.297  0.00  0.00    +0.000 A 
ATOM      3  C   UNL     1       2.465   8.404  17.630  0.00  0.00    +0.000 A 
ATOM      4  C   UNL     1       2.902   7.234  18.262  0.00  0.00    +0.000 A 
ATOM      5  C   UNL     1       2.535   7.031  19.597  0.00  0.00    +0.000 A 
ATOM      6  C   UNL     1       1.734   7.945  20.267  0.00  0.00    +0.000 A 
ENDROOT
BRANCH   4   7
ATOM      7  N   UNL     1       3.690   6.264  17.607  0.00  0.00    +0.000 N 
ATOM      8  C   UNL     1       3.379   4.856  17.675  0.00  0.00    +0.000 C 
ATOM      9  C   UNL     1       4.668   4.183  17.308  0.00  0.00    +0.000 C 
ATOM     10  C   UNL     1       5.304   5.163  16.330  0.00  0.00    +0.000 C 
ATOM     11  C   UNL     1       4.791   6.491  16.781  0.00  0.00    +0.000 C 
ATOM     12  O   UNL     1       5.319   7.529  16.414  0.00  0.00    +0.000 OA
BRANCH   9  13
ATOM     13  C   UNL     1       5.562   3.941  18.521  0.00  0.00    +0.000 C 
ATOM     14  O   UNL     1       6.477   4.677  18.853  0.00  0.00    +0.000 OA
ATOM     15  N   UNL     1       5.256   2.840  19.270  0.00  0.00    +0.000 N 
ATOM     16  H   UNL     1       5.904   2.624  20.019  0.00  0.00    +0.000 HD
BRANCH  15  17
ATOM     17  C   UNL     1       4.198   1.914  18.953  0.00  0.00    +0.000 C 
BRANCH  17  18
ATOM     18  C   UNL     1       2.886   2.330  19.493  0.00  0.00    +0.000 A 
ATOM     19  C   UNL     1       2.817   2.917  20.749  0.00  0.00    +0.000 A 
ATOM     20  C   UNL     1       1.589   3.335  21.217  0.00  0.00    +0.000 A 
ATOM     21  C   UNL     1       0.442   3.195  20.480  0.00  0.00    +0.000 A 
ATOM     22  C   UNL     1       0.517   2.633  19.208  0.00  0.00    +0.000 A 
ATOM     23  C   UNL     1       1.739   2.203  18.710  0.00  0.00    +0.000 A 
ENDBRANCH  17  18
ENDBRANCH  15  17
ENDBRANCH   9  13
ENDBRANCH   4   7
BRANCH   1  24
ATOM     24  O   UNL     1       0.351   9.949  20.166  0.00  0.00    +0.000 OA
BRANCH  24  25
ATOM     25  C   UNL     1       0.733  10.335  21.483  0.00  0.00    +0.000 C 
BRANCH  25  27
ATOM     26  O   UNL     1      -0.709  10.340  23.373  0.00  0.00    +0.000 OA
ATOM     27  C   UNL     1      -0.377  10.919  22.340  0.00  0.00    +0.000 C 
ATOM     28  N   UNL     1      -0.933  12.078  21.838  0.00  0.00    +0.000 N 
ATOM     29  H   UNL     1      -0.679  12.310  20.883  0.00  0.00    +0.000 HD
BRANCH  28  30
ATOM     30  C   UNL     1      -1.932  12.846  22.466  0.00  0.00    +0.000 A 
ATOM     31  C   UNL     1      -1.652  13.825  23.428  0.00  0.00    +0.000 A 
ATOM     32  C   UNL     1      -2.686  14.524  24.055  0.00  0.00    +0.000 A 
ATOM     33  C   UNL     1      -3.999  14.256  23.705  0.00  0.00    +0.000 A 
ATOM     34  F   UNL     1      -4.995  14.911  24.314  0.00  0.00    +0.000 F 
ATOM     35  C   UNL     1      -4.291  13.318  22.725  0.00  0.00    +0.000 A 
ATOM     36  C   UNL     1      -3.260  12.615  22.098  0.00  0.00    +0.000 A 
ENDBRANCH  28  30
ENDBRANCH  25  27
ENDBRANCH  24  25
ENDBRANCH   1  24
TORSDOF 8
ENDMDL
MODEL 5
REMARK VINA RESULT:      -8.7      0.894      1.022
REMARK  Name = 
REMARK  8 active torsions:
REMARK  status: ('A' for Active; 'I' for Inactive)
REMARK    1  A    between atoms: C_2  and  C_3
REMARK    2  A    between atoms: C_3  and  O_4
REMARK    3  A    between atoms: O_4  and  C_5
REMARK    4  A    between atoms: C_8  and  N_9
REMARK    5  A    between atoms: C_11  and  C_12
REMARK    6  A    between atoms: N_14  and  C_15
REMARK    7  A    between atoms: C_15  and  C_16
REMARK    8  A    between atoms: N_27  and  C_28
REMARK                            x       y       z     vdW  Elec       q    Type
REMARK                         _______ _______ _______ _____ _____    ______ ____
ROOT
ATOM      1  C   UNL     1       1.210   8.876  19.667  0.00  0.00    +0.000 A 
ATOM      2  C   UNL     1       1.655   9.207  18.392  0.00  0.00    +0.000 A 
ATOM      3  C   UNL     1       2.545   8.364  17.719  0.00  0.00    +0.000 A 
ATOM      4  C   UNL     1       2.998   7.178  18.309  0.00  0.00    +0.000 A 
ATOM      5  C   UNL     1       2.580   6.891  19.613  0.00  0.00    +0.000 A 
ATOM      6  C   UNL     1       1.715   7.738  20.291  0.00  0.00    +0.000 A 
ENDROOT
BRANCH   4   7
ATOM      7  N   UNL     1       3.852   6.274  17.641  0.00  0.00    +0.000 N 
ATOM      8  C   UNL     1       3.568   4.859  17.582  0.00  0.00    +0.000 C 
ATOM      9  C   UNL     1       4.894   4.238  17.260  0.00  0.00    +0.000 C 
ATOM     10  C   UNL     1       5.575   5.299  16.405  0.00  0.00    +0.000 C 
ATOM     11  C   UNL     1       5.003   6.581  16.916  0.00  0.00    +0.000 C 
ATOM     12  O   UNL     1       5.532   7.652  16.666  0.00  0.00    +0.000 OA
BRANCH   9  13
ATOM     13  C   UNL     1       5.706   3.920  18.513  0.00  0.00    +0.000 C 
ATOM     14  O   UNL     1       6.635   4.600  18.915  0.00  0.00    +0.000 OA
ATOM     15  N   UNL     1       5.305   2.817  19.212  0.00  0.00    +0.000 N 
ATOM     16  H   UNL     1       5.899   2.549  19.989  0.00  0.00    +0.000 HD
BRANCH  15  17
ATOM     17  C   UNL     1       4.223   1.953  18.811  0.00  0.00    +0.000 C 
BRANCH  17  18
ATOM     18  C   UNL     1       2.926   2.340  19.406  0.00  0.00    +0.000 A 
ATOM     19  C   UNL     1       2.896   2.924  20.664  0.00  0.00    +0.000 A 
ATOM     20  C   UNL     1       1.680   3.314  21.184  0.00  0.00    +0.000 A 
ATOM     21  C   UNL     1       0.507   3.149  20.496  0.00  0.00    +0.000 A 
ATOM     22  C   UNL     1       0.541   2.590  19.220  0.00  0.00    +0.000 A 
ATOM     23  C   UNL     1       1.751   2.188  18.671  0.00  0.00    +0.000 A 
ENDBRANCH  17  18
ENDBRANCH  15  17
ENDBRANCH   9  13
ENDBRANCH   4   7
BRANCH   1  24
ATOM     24  O   UNL     1       0.262   9.693  20.230  0.00  0.00    +0.000 OA
BRANCH  24  25
ATOM     25  C   UNL     1       0.814  10.930  20.674  0.00  0.00    +0.000 C 
BRANCH  25  27
ATOM     26  O   UNL     1      -0.534  12.849  20.285  0.00  0.00    +0.000 OA
ATOM     27  C   UNL     1      -0.198  11.983  21.091  0.00  0.00    +0.000 C 
ATOM     28  N   UNL     1      -0.639  11.864  22.393  0.00  0.00    +0.000 N 
ATOM     29  H   UNL     1      -0.117  11.219  22.977  0.00  0.00    +0.000 HD
BRANCH  28  30
ATOM     30  C   UNL     1      -1.615  12.673  23.004  0.00  0.00    +0.000 A 
ATOM     31  C   UNL     1      -2.949  12.275  23.162  0.00  0.00    +0.000 A 
ATOM     32  C   UNL     1      -3.888  13.138  23.732  0.00  0.00    +0.000 A 
ATOM     33  C   UNL     1      -3.487  14.391  24.162  0.00  0.00    +0.000 A 
ATOM     34  F   UNL     1      -4.385  15.229  24.695  0.00  0.00    +0.000 F 
ATOM     35  C   UNL     1      -2.161  14.786  24.051  0.00  0.00    +0.000 A 
ATOM     36  C   UNL     1      -1.220  13.927  23.478  0.00  0.00    +0.000 A 
ENDBRANCH  28  30
ENDBRANCH  25  27
ENDBRANCH  24  25
ENDBRANCH   1  24
TORSDOF 8
ENDMDL
MODEL 6
REMARK VINA RESULT:      -8.7      0.892      1.757
REMARK  Name = 
REMARK  8 active torsions:
REMARK  status: ('A' for Active; 'I' for Inactive)
REMARK    1  A    between atoms: C_2  and  C_3
REMARK    2  A    between atoms: C_3  and  O_4
REMARK    3  A    between atoms: O_4  and  C_5
REMARK    4  A    between atoms: C_8  and  N_9
REMARK    5  A    between atoms: C_11  and  C_12
REMARK    6  A    between atoms: N_14  and  C_15
REMARK    7  A    between atoms: C_15  and  C_16
REMARK    8  A    between atoms: N_27  and  C_28
REMARK                            x       y       z     vdW  Elec       q    Type
REMARK                         _______ _______ _______ _____ _____    ______ ____
ROOT
ATOM      1  C   UNL     1       1.488   9.260  19.430  0.00  0.00    +0.000 A 
ATOM      2  C   UNL     1       1.792   8.105  20.143  0.00  0.00    +0.000 A 
ATOM      3  C   UNL     1       2.511   7.073  19.531  0.00  0.00    +0.000 A 
ATOM      4  C   UNL     1       2.938   7.183  18.202  0.00  0.00    +0.000 A 
ATOM      5  C   UNL     1       2.575   8.329  17.488  0.00  0.00    +0.000 A 
ATOM      6  C   UNL     1       1.842   9.344  18.086  0.00  0.00    +0.000 A 
ENDROOT
BRANCH   4   7
ATOM      7  N   UNL     1       3.712   6.188  17.568  0.00  0.00    +0.000 N 
ATOM      8  C   UNL     1       3.390   4.784  17.680  0.00  0.00    +0.000 C 
ATOM      9  C   UNL     1       4.669   4.091  17.321  0.00  0.00    +0.000 C 
ATOM     10  C   UNL     1       5.303   5.035  16.308  0.00  0.00    +0.000 C 
ATOM     11  C   UNL     1       4.806   6.381  16.725  0.00  0.00    +0.000 C 
ATOM     12  O   UNL     1       5.339   7.403  16.322  0.00  0.00    +0.000 OA
BRANCH   9  13
ATOM     13  C   UNL     1       5.573   3.876  18.531  0.00  0.00    +0.000 C 
ATOM     14  O   UNL     1       6.500   4.611  18.830  0.00  0.00    +0.000 OA
ATOM     15  N   UNL     1       5.262   2.804  19.319  0.00  0.00    +0.000 N 
ATOM     16  H   UNL     1       5.915   2.604  20.068  0.00  0.00    +0.000 HD
BRANCH  15  17
ATOM     17  C   UNL     1       4.190   1.881  19.043  0.00  0.00    +0.000 C 
BRANCH  17  18
ATOM     18  C   UNL     1       2.877   2.362  19.525  0.00  0.00    +0.000 A 
ATOM     19  C   UNL     1       1.745   2.160  18.749  0.00  0.00    +0.000 A 
ATOM     20  C   UNL     1       0.525   2.580  19.235  0.00  0.00    +0.000 A 
ATOM     21  C   UNL     1       0.397   3.181  20.460  0.00  0.00    +0.000 A 
ATOM     22  C   UNL     1       1.530   3.357  21.252  0.00  0.00    +0.000 A 
ATOM     23  C   UNL     1       2.772   2.943  20.789  0.00  0.00    +0.000 A 
ENDBRANCH  17  18
ENDBRANCH  15  17
ENDBRANCH   9  13
ENDBRANCH   4   7
BRANCH   1  24
ATOM     24  O   UNL     1       0.870  10.274  20.118  0.00  0.00    +0.000 OA
BRANCH  24  25
ATOM     25  C   UNL     1      -0.531  10.323  19.859  0.00  0.00    +0.000 C 
BRANCH  25  27
ATOM     26  O   UNL     1      -1.950  12.229  19.817  0.00  0.00    +0.000 OA
ATOM     27  C   UNL     1      -1.275  11.473  20.514  0.00  0.00    +0.000 C 
ATOM     28  N   UNL     1      -1.095  11.564  21.879  0.00  0.00    +0.000 N 
ATOM     29  H   UNL     1      -0.356  10.985  22.265  0.00  0.00    +0.000 HD
BRANCH  28  30
ATOM     30  C   UNL     1      -1.716  12.500  22.727  0.00  0.00    +0.000 A 
ATOM     31  C   UNL     1      -1.112  13.704  23.111  0.00  0.00    +0.000 A 
ATOM     32  C   UNL     1      -1.754  14.574  23.995  0.00  0.00    +0.000 A 
ATOM     33  C   UNL     1      -3.009  14.247  24.480  0.00  0.00    +0.000 A 
ATOM     34  F   UNL     1      -3.624  15.069  25.340  0.00  0.00    +0.000 F 
ATOM     35  C   UNL     1      -3.639  13.077  24.078  0.00  0.00    +0.000 A 
ATOM     36  C   UNL     1      -2.999  12.203  23.197  0.00  0.00    +0.000 A 
ENDBRANCH  28  30
ENDBRANCH  25  27
ENDBRANCH  24  25
ENDBRANCH   1  24
TORSDOF 8
ENDMDL
MODEL 7
REMARK VINA RESULT:      -8.7      3.300      3.958
REMARK  Name = 
REMARK  8 active torsions:
REMARK  status: ('A' for Active; 'I' for Inactive)
REMARK    1  A    between atoms: C_2  and  C_3
REMARK    2  A    between atoms: C_3  and  O_4
REMARK    3  A    between atoms: O_4  and  C_5
REMARK    4  A    between atoms: C_8  and  N_9
REMARK    5  A    between atoms: C_11  and  C_12
REMARK    6  A    between atoms: N_14  and  C_15
REMARK    7  A    between atoms: C_15  and  C_16
REMARK    8  A    between atoms: N_27  and  C_28
REMARK                            x       y       z     vdW  Elec       q    Type
REMARK                         _______ _______ _______ _____ _____    ______ ____
ROOT
ATOM      1  C   UNL     1       1.185   9.001  19.409  0.00  0.00    +0.000 A 
ATOM      2  C   UNL     1       1.580   9.213  18.093  0.00  0.00    +0.000 A 
ATOM      3  C   UNL     1       2.487   8.339  17.483  0.00  0.00    +0.000 A 
ATOM      4  C   UNL     1       3.006   7.241  18.179  0.00  0.00    +0.000 A 
ATOM      5  C   UNL     1       2.636   7.077  19.519  0.00  0.00    +0.000 A 
ATOM      6  C   UNL     1       1.755   7.956  20.132  0.00  0.00    +0.000 A 
ENDROOT
BRANCH   4   7
ATOM      7  N   UNL     1       3.879   6.306  17.583  0.00  0.00    +0.000 N 
ATOM      8  C   UNL     1       3.590   4.892  17.574  0.00  0.00    +0.000 C 
ATOM      9  C   UNL     1       4.923   4.252  17.328  0.00  0.00    +0.000 C 
ATOM     10  C   UNL     1       5.641   5.273  16.454  0.00  0.00    +0.000 C 
ATOM     11  C   UNL     1       5.057   6.578  16.888  0.00  0.00    +0.000 C 
ATOM     12  O   UNL     1       5.600   7.635  16.611  0.00  0.00    +0.000 OA
BRANCH   9  13
ATOM     13  C   UNL     1       5.687   3.985  18.622  0.00  0.00    +0.000 C 
ATOM     14  O   UNL     1       6.586   4.695  19.043  0.00  0.00    +0.000 OA
ATOM     15  N   UNL     1       5.278   2.895  19.336  0.00  0.00    +0.000 N 
ATOM     16  H   UNL     1       5.843   2.661  20.144  0.00  0.00    +0.000 HD
BRANCH  15  17
ATOM     17  C   UNL     1       4.230   1.999  18.915  0.00  0.00    +0.000 C 
BRANCH  17  18
ATOM     18  C   UNL     1       2.897   2.397  19.417  0.00  0.00    +0.000 A 
ATOM     19  C   UNL     1       2.796   3.124  20.594  0.00  0.00    +0.000 A 
ATOM     20  C   UNL     1       1.546   3.520  21.023  0.00  0.00    +0.000 A 
ATOM     21  C   UNL     1       0.408   3.223  20.320  0.00  0.00    +0.000 A 
ATOM     22  C   UNL     1       0.513   2.519  19.122  0.00  0.00    +0.000 A 
ATOM     23  C   UNL     1       1.757   2.108  18.666  0.00  0.00    +0.000 A 
ENDBRANCH  17  18
ENDBRANCH  15  17
ENDBRANCH   9  13
ENDBRANCH   4   7
BRANCH   1  24
ATOM     24  O   UNL     1       0.218   9.835  19.913  0.00  0.00    +0.000 OA
BRANCH  24  25
ATOM     25  C   UNL     1       0.033  10.994  19.103  0.00  0.00    +0.000 C 
BRANCH  25  27
ATOM     26  O   UNL     1       1.205  12.394  20.625  0.00  0.00    +0.000 OA
ATOM     27  C   UNL     1       0.918  12.179  19.449  0.00  0.00    +0.000 C 
ATOM     28  N   UNL     1       1.308  12.934  18.362  0.00  0.00    +0.000 N 
ATOM     29  H   UNL     1       0.824  12.735  17.491  0.00  0.00    +0.000 HD
BRANCH  28  30
ATOM     30  C   UNL     1       2.171  14.044  18.403  0.00  0.00    +0.000 A 
ATOM     31  C   UNL     1       1.733  15.344  18.691  0.00  0.00    +0.000 A 
ATOM     32  C   UNL     1       2.625  16.418  18.670  0.00  0.00    +0.000 A 
ATOM     33  C   UNL     1       3.959  16.189  18.379  0.00  0.00    +0.000 A 
ATOM     34  F   UNL     1       4.817  17.216  18.341  0.00  0.00    +0.000 F 
ATOM     35  C   UNL     1       4.418  14.902  18.131  0.00  0.00    +0.000 A 
ATOM     36  C   UNL     1       3.528  13.826  18.148  0.00  0.00    +0.000 A 
ENDBRANCH  28  30
ENDBRANCH  25  27
ENDBRANCH  24  25
ENDBRANCH   1  24
TORSDOF 8
ENDMDL
MODEL 8
REMARK VINA RESULT:      -8.6      2.972      3.404
REMARK  Name = 
REMARK  8 active torsions:
REMARK  status: ('A' for Active; 'I' for Inactive)
REMARK    1  A    between atoms: C_2  and  C_3
REMARK    2  A    between atoms: C_3  and  O_4
REMARK    3  A    between atoms: O_4  and  C_5
REMARK    4  A    between atoms: C_8  and  N_9
REMARK    5  A    between atoms: C_11  and  C_12
REMARK    6  A    between atoms: N_14  and  C_15
REMARK    7  A    between atoms: C_15  and  C_16
REMARK    8  A    between atoms: N_27  and  C_28
REMARK                            x       y       z     vdW  Elec       q    Type
REMARK                         _______ _______ _______ _____ _____    ______ ____
ROOT
ATOM      1  C   UNL     1       1.293   9.198  19.123  0.00  0.00    +0.000 A 
ATOM      2  C   UNL     1       1.872   9.419  17.879  0.00  0.00    +0.000 A 
ATOM      3  C   UNL     1       2.802   8.509  17.366  0.00  0.00    +0.000 A 
ATOM      4  C   UNL     1       3.162   7.365  18.088  0.00  0.00    +0.000 A 
ATOM      5  C   UNL     1       2.609   7.190  19.361  0.00  0.00    +0.000 A 
ATOM      6  C   UNL     1       1.703   8.103  19.881  0.00  0.00    +0.000 A 
ENDROOT
BRANCH   4   7
ATOM      7  N   UNL     1       4.054   6.396  17.582  0.00  0.00    +0.000 N 
ATOM      8  C   UNL     1       3.736   4.987  17.594  0.00  0.00    +0.000 C 
ATOM      9  C   UNL     1       5.069   4.315  17.462  0.00  0.00    +0.000 C 
ATOM     10  C   UNL     1       5.868   5.294  16.610  0.00  0.00    +0.000 C 
ATOM     11  C   UNL     1       5.284   6.623  16.964  0.00  0.00    +0.000 C 
ATOM     12  O   UNL     1       5.868   7.660  16.696  0.00  0.00    +0.000 OA
BRANCH   9  13
ATOM     13  C   UNL     1       5.735   4.072  18.813  0.00  0.00    +0.000 C 
ATOM     14  O   UNL     1       6.592   4.798  19.292  0.00  0.00    +0.000 OA
ATOM     15  N   UNL     1       5.285   2.986  19.507  0.00  0.00    +0.000 N 
ATOM     16  H   UNL     1       5.789   2.768  20.360  0.00  0.00    +0.000 HD
BRANCH  15  17
ATOM     17  C   UNL     1       4.282   2.072  19.020  0.00  0.00    +0.000 C 
BRANCH  17  18
ATOM     18  C   UNL     1       2.911   2.458  19.415  0.00  0.00    +0.000 A 
ATOM     19  C   UNL     1       1.845   2.157  18.578  0.00  0.00    +0.000 A 
ATOM     20  C   UNL     1       0.570   2.489  18.984  0.00  0.00    +0.000 A 
ATOM     21  C   UNL     1       0.324   3.099  20.187  0.00  0.00    +0.000 A 
ATOM     22  C   UNL     1       1.391   3.374  21.040  0.00  0.00    +0.000 A 
ATOM     23  C   UNL     1       2.686   3.050  20.658  0.00  0.00    +0.000 A 
ENDBRANCH  17  18
ENDBRANCH  15  17
ENDBRANCH   9  13
ENDBRANCH   4   7
BRANCH   1  24
ATOM     24  O   UNL     1       0.315  10.075  19.522  0.00  0.00    +0.000 OA
BRANCH  24  25
ATOM     25  C   UNL     1       0.646  10.728  20.745  0.00  0.00    +0.000 C 
BRANCH  25  27
ATOM     26  O   UNL     1       1.365  12.821  21.611  0.00  0.00    +0.000 OA
ATOM     27  C   UNL     1       0.924  12.217  20.635  0.00  0.00    +0.000 C 
ATOM     28  N   UNL     1       0.622  12.762  19.404  0.00  0.00    +0.000 N 
ATOM     29  H   UNL     1       0.086  12.168  18.779  0.00  0.00    +0.000 HD
BRANCH  28  30
ATOM     30  C   UNL     1       0.841  14.100  19.025  0.00  0.00    +0.000 A 
ATOM     31  C   UNL     1      -0.177  15.063  18.997  0.00  0.00    +0.000 A 
ATOM     32  C   UNL     1       0.085  16.365  18.565  0.00  0.00    +0.000 A 
ATOM     33  C   UNL     1       1.370  16.708  18.179  0.00  0.00    +0.000 A 
ATOM     34  F   UNL     1       1.625  17.950  17.749  0.00  0.00    +0.000 F 
ATOM     35  C   UNL     1       2.398  15.777  18.239  0.00  0.00    +0.000 A 
ATOM     36  C   UNL     1       2.139  14.473  18.667  0.00  0.00    +0.000 A 
ENDBRANCH  28  30
ENDBRANCH  25  27
ENDBRANCH  24  25
ENDBRANCH   1  24
TORSDOF 8
ENDMDL
MODEL 9
REMARK VINA RESULT:      -8.6      3.399      4.181
REMARK  Name = 
REMARK  8 active torsions:
REMARK  status: ('A' for Active; 'I' for Inactive)
REMARK    1  A    between atoms: C_2  and  C_3
REMARK    2  A    between atoms: C_3  and  O_4
REMARK    3  A    between atoms: O_4  and  C_5
REMARK    4  A    between atoms: C_8  and  N_9
REMARK    5  A    between atoms: C_11  and  C_12
REMARK    6  A    between atoms: N_14  and  C_15
REMARK    7  A    between atoms: C_15  and  C_16
REMARK    8  A    between atoms: N_27  and  C_28
REMARK                            x       y       z     vdW  Elec       q    Type
REMARK                         _______ _______ _______ _____ _____    ______ ____
ROOT
ATOM      1  C   UNL     1       1.273   9.109  19.549  0.00  0.00    +0.000 A 
ATOM      2  C   UNL     1       1.650   7.951  20.220  0.00  0.00    +0.000 A 
ATOM      3  C   UNL     1       2.474   7.012  19.591  0.00  0.00    +0.000 A 
ATOM      4  C   UNL     1       2.936   7.221  18.286  0.00  0.00    +0.000 A 
ATOM      5  C   UNL     1       2.502   8.366  17.610  0.00  0.00    +0.000 A 
ATOM      6  C   UNL     1       1.665   9.287  18.225  0.00  0.00    +0.000 A 
ENDROOT
BRANCH   4   7
ATOM      7  N   UNL     1       3.813   6.325  17.637  0.00  0.00    +0.000 N 
ATOM      8  C   UNL     1       3.549   4.907  17.581  0.00  0.00    +0.000 C 
ATOM      9  C   UNL     1       4.888   4.302  17.284  0.00  0.00    +0.000 C 
ATOM     10  C   UNL     1       5.570   5.367  16.435  0.00  0.00    +0.000 C 
ATOM     11  C   UNL     1       4.972   6.644  16.930  0.00  0.00    +0.000 C 
ATOM     12  O   UNL     1       5.491   7.721  16.683  0.00  0.00    +0.000 OA
BRANCH   9  13
ATOM     13  C   UNL     1       5.683   4.000  18.552  0.00  0.00    +0.000 C 
ATOM     14  O   UNL     1       6.598   4.694  18.965  0.00  0.00    +0.000 OA
ATOM     15  N   UNL     1       5.284   2.897  19.251  0.00  0.00    +0.000 N 
ATOM     16  H   UNL     1       5.868   2.641  20.040  0.00  0.00    +0.000 HD
BRANCH  15  17
ATOM     17  C   UNL     1       4.219   2.018  18.838  0.00  0.00    +0.000 C 
BRANCH  17  18
ATOM     18  C   UNL     1       2.910   2.387  19.417  0.00  0.00    +0.000 A 
ATOM     19  C   UNL     1       2.857   2.970  20.675  0.00  0.00    +0.000 A 
ATOM     20  C   UNL     1       1.629   3.344  21.181  0.00  0.00    +0.000 A 
ATOM     21  C   UNL     1       0.467   3.163  20.477  0.00  0.00    +0.000 A 
ATOM     22  C   UNL     1       0.524   2.605  19.202  0.00  0.00    +0.000 A 
ATOM     23  C   UNL     1       1.746   2.220  18.667  0.00  0.00    +0.000 A 
ENDBRANCH  17  18
ENDBRANCH  15  17
ENDBRANCH   9  13
ENDBRANCH   4   7
BRANCH   1  24
ATOM     24  O   UNL     1       0.548  10.033  20.258  0.00  0.00    +0.000 OA
BRANCH  24  25
ATOM     25  C   UNL     1       0.313  11.222  19.507  0.00  0.00    +0.000 C 
BRANCH  25  27
ATOM     26  O   UNL     1       1.763  12.536  20.855  0.00  0.00    +0.000 OA
ATOM     27  C   UNL     1       1.315  12.341  19.727  0.00  0.00    +0.000 C 
ATOM     28  N   UNL     1       1.618  13.065  18.591  0.00  0.00    +0.000 N 
ATOM     29  H   UNL     1       1.015  12.900  17.791  0.00  0.00    +0.000 HD
BRANCH  28  30
ATOM     30  C   UNL     1       2.556  14.111  18.512  0.00  0.00    +0.000 A 
ATOM     31  C   UNL     1       3.903  13.908  18.185  0.00  0.00    +0.000 A 
ATOM     32  C   UNL     1       4.802  14.976  18.168  0.00  0.00    +0.000 A 
ATOM     33  C   UNL     1       4.349  16.251  18.461  0.00  0.00    +0.000 A 
ATOM     34  F   UNL     1       5.209  17.277  18.463  0.00  0.00    +0.000 F 
ATOM     35  C   UNL     1       3.010  16.477  18.748  0.00  0.00    +0.000 A 
ATOM     36  C   UNL     1       2.108  15.410  18.768  0.00  0.00    +0.000 A 
ENDBRANCH  28  30
ENDBRANCH  25  27
ENDBRANCH  24  25
ENDBRANCH   1  24
TORSDOF 8
ENDMDL
