MODEL 1
REMARK VINA RESULT:      -9.3      0.000      0.000
REMARK  Name = 
REMARK  4 active torsions:
REMARK  status: ('A' for Active; 'I' for Inactive)
REMARK    1  A    between atoms: C_1  and  C_2
REMARK    2  A    between atoms: C_2  and  C_3
REMARK    3  A    between atoms: C_12  and  N_13
REMARK    4  A    between atoms: C_20  and  C_21
REMARK                            x       y       z     vdW  Elec       q    Type
REMARK                         _______ _______ _______ _____ _____    ______ ____
ROOT
ATOM      1  N   UNL     1       3.045   6.492  18.364  0.00  0.00    +0.000 N 
ATOM      2  C   UNL     1       2.324   7.610  18.691  0.00  0.00    +0.000 A 
ATOM      3  C   UNL     1       1.970   8.525  17.551  0.00  0.00    +0.000 A 
ATOM      4  C   UNL     1       1.276   9.640  17.803  0.00  0.00    +0.000 A 
ATOM      5  C   UNL     1       0.888   9.903  19.126  0.00  0.00    +0.000 A 
ATOM      6  N   UNL     1       0.199  10.876  19.681  0.00  0.00    +0.000 NA
ATOM      7  N   UNL     1       0.176  10.647  21.041  0.00  0.00    +0.000 NA
ATOM      8  C   UNL     1       0.862   9.539  21.279  0.00  0.00    +0.000 A 
ATOM      9  N   UNL     1       1.296   9.014  20.096  0.00  0.00    +0.000 N 
ATOM     10  N   UNL     1       1.998   7.860  19.926  0.00  0.00    +0.000 NA
ATOM     11  H   UNL     1       2.688   5.983  17.563  0.00  0.00    +0.000 HD
ENDROOT
BRANCH   1  23
ATOM     12  C   UNL     1       1.722   2.333  19.296  0.00  0.00    +0.000 C 
ATOM     13  C   UNL     1       2.386   3.526  18.560  0.00  0.00    +0.000 C 
ATOM     14  C   UNL     1       1.240   4.252  17.822  0.00  0.00    +0.000 C 
ATOM     15  C   UNL     1       3.402   2.946  17.544  0.00  0.00    +0.000 C 
ATOM     16  C   UNL     1       4.243   3.953  16.752  0.00  0.00    +0.000 C 
ATOM     17  C   UNL     1       5.404   4.513  17.537  0.00  0.00    +0.000 A 
ATOM     18  C   UNL     1       6.712   4.249  17.088  0.00  0.00    +0.000 A 
ATOM     19  C   UNL     1       7.826   4.720  17.783  0.00  0.00    +0.000 A 
ATOM     20  C   UNL     1       7.651   5.468  18.939  0.00  0.00    +0.000 A 
ATOM     21  C   UNL     1       6.363   5.756  19.386  0.00  0.00    +0.000 A 
ATOM     22  C   UNL     1       5.221   5.295  18.693  0.00  0.00    +0.000 A 
ATOM     23  C   UNL     1       3.854   5.667  19.243  0.00  0.00    +0.000 C 
ATOM     24  C   UNL     1       3.060   4.408  19.658  0.00  0.00    +0.000 C 
ENDBRANCH   1  23
BRANCH   8  25
ATOM     25  C   UNL     1       1.194   8.903  22.563  0.00  0.00    +0.000 C 
ATOM     26  F   UNL     1       2.432   9.267  23.002  0.00  0.00    +0.000 F 
ATOM     27  F   UNL     1       0.325   9.277  23.545  0.00  0.00    +0.000 F 
ENDBRANCH   8  25
TORSDOF 2
ENDMDL
MODEL 2
REMARK VINA RESULT:      -7.0      3.789      7.145
REMARK  Name = 
REMARK  4 active torsions:
REMARK  status: ('A' for Active; 'I' for Inactive)
REMARK    1  A    between atoms: C_1  and  C_2
REMARK    2  A    between atoms: C_2  and  C_3
REMARK    3  A    between atoms: C_12  and  N_13
REMARK    4  A    between atoms: C_20  and  C_21
REMARK                            x       y       z     vdW  Elec       q    Type
REMARK                         _______ _______ _______ _____ _____    ______ ____
ROOT
ATOM      1  N   UNL     1       3.934   5.934  19.137  0.00  0.00    +0.000 N 
ATOM      2  C   UNL     1       5.067   5.535  18.479  0.00  0.00    +0.000 A 
ATOM      3  C   UNL     1       6.345   5.589  19.270  0.00  0.00    +0.000 A 
ATOM      4  C   UNL     1       7.489   5.222  18.683  0.00  0.00    +0.000 A 
ATOM      5  C   UNL     1       7.449   4.781  17.352  0.00  0.00    +0.000 A 
ATOM      6  N   UNL     1       8.372   4.344  16.524  0.00  0.00    +0.000 NA
ATOM      7  N   UNL     1       7.764   4.105  15.310  0.00  0.00    +0.000 NA
ATOM      8  C   UNL     1       6.481   4.411  15.430  0.00  0.00    +0.000 A 
ATOM      9  N   UNL     1       6.229   4.804  16.713  0.00  0.00    +0.000 N 
ATOM     10  N   UNL     1       5.022   5.158  17.234  0.00  0.00    +0.000 NA
ATOM     11  H   UNL     1       3.827   5.538  20.063  0.00  0.00    +0.000 HD
ENDROOT
BRANCH   1  23
ATOM     12  C   UNL     1       0.634   2.978  18.607  0.00  0.00    +0.000 C 
ATOM     13  C   UNL     1       1.561   4.031  19.267  0.00  0.00    +0.000 C 
ATOM     14  C   UNL     1       2.845   3.268  19.661  0.00  0.00    +0.000 C 
ATOM     15  C   UNL     1       0.842   4.568  20.529  0.00  0.00    +0.000 C 
ATOM     16  C   UNL     1       1.543   5.688  21.305  0.00  0.00    +0.000 C 
ATOM     17  C   UNL     1       1.374   7.049  20.675  0.00  0.00    +0.000 A 
ATOM     18  C   UNL     1       0.685   8.044  21.395  0.00  0.00    +0.000 A 
ATOM     19  C   UNL     1       0.478   9.314  20.857  0.00  0.00    +0.000 A 
ATOM     20  C   UNL     1       0.959   9.614  19.590  0.00  0.00    +0.000 A 
ATOM     21  C   UNL     1       1.661   8.646  18.873  0.00  0.00    +0.000 A 
ATOM     22  C   UNL     1       1.889   7.356  19.402  0.00  0.00    +0.000 A 
ATOM     23  C   UNL     1       2.675   6.368  18.557  0.00  0.00    +0.000 C 
ATOM     24  C   UNL     1       1.814   5.137  18.195  0.00  0.00    +0.000 C 
ENDBRANCH   1  23
BRANCH   8  25
ATOM     25  C   UNL     1       5.418   4.400  14.413  0.00  0.00    +0.000 C 
ATOM     26  F   UNL     1       4.963   5.656  14.144  0.00  0.00    +0.000 F 
ATOM     27  F   UNL     1       5.868   3.903  13.226  0.00  0.00    +0.000 F 
ENDBRANCH   8  25
TORSDOF 2
ENDMDL
MODEL 3
REMARK VINA RESULT:      -6.9      6.454      8.831
REMARK  Name = 
REMARK  4 active torsions:
REMARK  status: ('A' for Active; 'I' for Inactive)
REMARK    1  A    between atoms: C_1  and  C_2
REMARK    2  A    between atoms: C_2  and  C_3
REMARK    3  A    between atoms: C_12  and  N_13
REMARK    4  A    between atoms: C_20  and  C_21
REMARK                            x       y       z     vdW  Elec       q    Type
REMARK                         _______ _______ _______ _____ _____    ______ ____
ROOT
ATOM      1  N   UNL     1      -0.794  13.140  20.508  0.00  0.00    +0.000 N 
ATOM      2  C   UNL     1      -1.800  12.893  21.404  0.00  0.00    +0.000 A 
ATOM      3  C   UNL     1      -1.374  12.372  22.749  0.00  0.00    +0.000 A 
ATOM      4  C   UNL     1      -2.308  12.102  23.667  0.00  0.00    +0.000 A 
ATOM      5  C   UNL     1      -3.653  12.333  23.343  0.00  0.00    +0.000 A 
ATOM      6  N   UNL     1      -4.774  12.192  24.016  0.00  0.00    +0.000 NA
ATOM      7  N   UNL     1      -5.813  12.517  23.169  0.00  0.00    +0.000 NA
ATOM      8  C   UNL     1      -5.293  12.843  21.995  0.00  0.00    +0.000 A 
ATOM      9  N   UNL     1      -3.932  12.779  22.071  0.00  0.00    +0.000 N 
ATOM     10  N   UNL     1      -3.046  13.081  21.081  0.00  0.00    +0.000 NA
ATOM     11  H   UNL     1      -0.012  13.661  20.889  0.00  0.00    +0.000 HD
ENDROOT
BRANCH   1  23
ATOM     12  C   UNL     1       2.853  14.091  18.119  0.00  0.00    +0.000 C 
ATOM     13  C   UNL     1       1.782  13.278  18.891  0.00  0.00    +0.000 C 
ATOM     14  C   UNL     1       2.113  13.465  20.388  0.00  0.00    +0.000 C 
ATOM     15  C   UNL     1       1.937  11.791  18.484  0.00  0.00    +0.000 C 
ATOM     16  C   UNL     1       0.921  10.802  19.068  0.00  0.00    +0.000 C 
ATOM     17  C   UNL     1      -0.408  10.820  18.355  0.00  0.00    +0.000 A 
ATOM     18  C   UNL     1      -0.831   9.655  17.686  0.00  0.00    +0.000 A 
ATOM     19  C   UNL     1      -2.040   9.616  16.992  0.00  0.00    +0.000 A 
ATOM     20  C   UNL     1      -2.851  10.742  16.956  0.00  0.00    +0.000 A 
ATOM     21  C   UNL     1      -2.457  11.897  17.630  0.00  0.00    +0.000 A 
ATOM     22  C   UNL     1      -1.241  11.955  18.346  0.00  0.00    +0.000 A 
ATOM     23  C   UNL     1      -0.897  13.250  19.063  0.00  0.00    +0.000 C 
ATOM     24  C   UNL     1       0.396  13.875  18.493  0.00  0.00    +0.000 C 
ENDBRANCH   1  23
BRANCH   8  25
ATOM     25  C   UNL     1      -5.972  13.199  20.739  0.00  0.00    +0.000 C 
ATOM     26  F   UNL     1      -5.842  12.220  19.800  0.00  0.00    +0.000 F 
ATOM     27  F   UNL     1      -7.313  13.362  20.925  0.00  0.00    +0.000 F 
ENDBRANCH   8  25
TORSDOF 2
ENDMDL
MODEL 4
REMARK VINA RESULT:      -6.8      7.420      9.669
REMARK  Name = 
REMARK  4 active torsions:
REMARK  status: ('A' for Active; 'I' for Inactive)
REMARK    1  A    between atoms: C_1  and  C_2
REMARK    2  A    between atoms: C_2  and  C_3
REMARK    3  A    between atoms: C_12  and  N_13
REMARK    4  A    between atoms: C_20  and  C_21
REMARK                            x       y       z     vdW  Elec       q    Type
REMARK                         _______ _______ _______ _____ _____    ______ ____
ROOT
ATOM      1  N   UNL     1      -1.289  14.296  19.689  0.00  0.00    +0.000 N 
ATOM      2  C   UNL     1      -0.342  15.154  19.196  0.00  0.00    +0.000 A 
ATOM      3  C   UNL     1      -0.856  16.442  18.613  0.00  0.00    +0.000 A 
ATOM      4  C   UNL     1       0.016  17.320  18.106  0.00  0.00    +0.000 A 
ATOM      5  C   UNL     1       1.383  17.011  18.155  0.00  0.00    +0.000 A 
ATOM      6  N   UNL     1       2.462  17.658  17.771  0.00  0.00    +0.000 NA
ATOM      7  N   UNL     1       3.546  16.841  18.014  0.00  0.00    +0.000 NA
ATOM      8  C   UNL     1       3.095  15.710  18.537  0.00  0.00    +0.000 A 
ATOM      9  N   UNL     1       1.740  15.789  18.680  0.00  0.00    +0.000 N 
ATOM     10  N   UNL     1       0.921  14.843  19.218  0.00  0.00    +0.000 NA
ATOM     11  H   UNL     1      -1.982  14.735  20.284  0.00  0.00    +0.000 HD
ENDROOT
BRANCH   1  23
ATOM     12  C   UNL     1      -2.803  12.572  23.516  0.00  0.00    +0.000 C 
ATOM     13  C   UNL     1      -2.779  13.095  22.056  0.00  0.00    +0.000 C 
ATOM     14  C   UNL     1      -2.814  14.636  22.164  0.00  0.00    +0.000 C 
ATOM     15  C   UNL     1      -4.054  12.573  21.348  0.00  0.00    +0.000 C 
ATOM     16  C   UNL     1      -4.205  12.901  19.859  0.00  0.00    +0.000 C 
ATOM     17  C   UNL     1      -3.386  12.007  18.962  0.00  0.00    +0.000 A 
ATOM     18  C   UNL     1      -4.056  11.173  18.047  0.00  0.00    +0.000 A 
ATOM     19  C   UNL     1      -3.355  10.308  17.207  0.00  0.00    +0.000 A 
ATOM     20  C   UNL     1      -1.969  10.264  17.264  0.00  0.00    +0.000 A 
ATOM     21  C   UNL     1      -1.289  11.098  18.150  0.00  0.00    +0.000 A 
ATOM     22  C   UNL     1      -1.979  11.987  19.004  0.00  0.00    +0.000 A 
ATOM     23  C   UNL     1      -1.158  12.870  19.929  0.00  0.00    +0.000 C 
ATOM     24  C   UNL     1      -1.463  12.559  21.412  0.00  0.00    +0.000 C 
ENDBRANCH   1  23
BRANCH   8  25
ATOM     25  C   UNL     1       3.832  14.492  18.909  0.00  0.00    +0.000 C 
ATOM     26  F   UNL     1       3.543  13.453  18.076  0.00  0.00    +0.000 F 
ATOM     27  F   UNL     1       5.180  14.678  18.821  0.00  0.00    +0.000 F 
ENDBRANCH   8  25
TORSDOF 2
ENDMDL
MODEL 5
REMARK VINA RESULT:      -6.7      3.991      7.216
REMARK  Name = 
REMARK  4 active torsions:
REMARK  status: ('A' for Active; 'I' for Inactive)
REMARK    1  A    between atoms: C_1  and  C_2
REMARK    2  A    between atoms: C_2  and  C_3
REMARK    3  A    between atoms: C_12  and  N_13
REMARK    4  A    between atoms: C_20  and  C_21
REMARK                            x       y       z     vdW  Elec       q    Type
REMARK                         _______ _______ _______ _____ _____    ______ ____
ROOT
ATOM      1  N   UNL     1       4.022   6.063  18.476  0.00  0.00    +0.000 N 
ATOM      2  C   UNL     1       5.108   5.764  17.696  0.00  0.00    +0.000 A 
ATOM      3  C   UNL     1       6.455   6.006  18.319  0.00  0.00    +0.000 A 
ATOM      4  C   UNL     1       7.557   5.743  17.607  0.00  0.00    +0.000 A 
ATOM      5  C   UNL     1       7.410   5.233  16.309  0.00  0.00    +0.000 A 
ATOM      6  N   UNL     1       8.274   4.863  15.388  0.00  0.00    +0.000 NA
ATOM      7  N   UNL     1       7.558   4.493  14.269  0.00  0.00    +0.000 NA
ATOM      8  C   UNL     1       6.271   4.656  14.538  0.00  0.00    +0.000 A 
ATOM      9  N   UNL     1       6.129   5.082  15.826  0.00  0.00    +0.000 N 
ATOM     10  N   UNL     1       4.959   5.321  16.482  0.00  0.00    +0.000 NA
ATOM     11  H   UNL     1       4.075   5.705  19.423  0.00  0.00    +0.000 HD
ENDROOT
BRANCH   1  23
ATOM     12  C   UNL     1       0.875   2.990  19.224  0.00  0.00    +0.000 C 
ATOM     13  C   UNL     1       1.829   4.191  19.452  0.00  0.00    +0.000 C 
ATOM     14  C   UNL     1       3.207   3.572  19.779  0.00  0.00    +0.000 C 
ATOM     15  C   UNL     1       1.296   4.994  20.665  0.00  0.00    +0.000 C 
ATOM     16  C   UNL     1       2.043   6.281  21.028  0.00  0.00    +0.000 C 
ATOM     17  C   UNL     1       1.686   7.450  20.144  0.00  0.00    +0.000 A 
ATOM     18  C   UNL     1       1.064   8.572  20.726  0.00  0.00    +0.000 A 
ATOM     19  C   UNL     1       0.690   9.674  19.957  0.00  0.00    +0.000 A 
ATOM     20  C   UNL     1       0.935   9.677  18.591  0.00  0.00    +0.000 A 
ATOM     21  C   UNL     1       1.569   8.583  18.002  0.00  0.00    +0.000 A 
ATOM     22  C   UNL     1       1.963   7.460  18.764  0.00  0.00    +0.000 A 
ATOM     23  C   UNL     1       2.660   6.319  18.043  0.00  0.00    +0.000 C 
ATOM     24  C   UNL     1       1.831   5.017  18.129  0.00  0.00    +0.000 C 
ENDBRANCH   1  23
BRANCH   8  25
ATOM     25  C   UNL     1       5.103   4.470  13.663  0.00  0.00    +0.000 C 
ATOM     26  F   UNL     1       5.446   3.890  12.479  0.00  0.00    +0.000 F 
ATOM     27  F   UNL     1       4.180   3.642  14.231  0.00  0.00    +0.000 F 
ENDBRANCH   8  25
TORSDOF 2
ENDMDL
MODEL 6
REMARK VINA RESULT:      -6.6      6.929      9.661
REMARK  Name = 
REMARK  4 active torsions:
REMARK  status: ('A' for Active; 'I' for Inactive)
REMARK    1  A    between atoms: C_1  and  C_2
REMARK    2  A    between atoms: C_2  and  C_3
REMARK    3  A    between atoms: C_12  and  N_13
REMARK    4  A    between atoms: C_20  and  C_21
REMARK                            x       y       z     vdW  Elec       q    Type
REMARK                         _______ _______ _______ _____ _____    ______ ____
ROOT
ATOM      1  N   UNL     1      -0.942  14.814  20.743  0.00  0.00    +0.000 N 
ATOM      2  C   UNL     1      -0.252  15.597  19.856  0.00  0.00    +0.000 A 
ATOM      3  C   UNL     1      -1.002  16.771  19.289  0.00  0.00    +0.000 A 
ATOM      4  C   UNL     1      -0.389  17.571  18.409  0.00  0.00    +0.000 A 
ATOM      5  C   UNL     1       0.942  17.291  18.063  0.00  0.00    +0.000 A 
ATOM      6  N   UNL     1       1.804  17.883  17.267  0.00  0.00    +0.000 NA
ATOM      7  N   UNL     1       2.958  17.129  17.267  0.00  0.00    +0.000 NA
ATOM      8  C   UNL     1       2.764  16.088  18.062  0.00  0.00    +0.000 A 
ATOM      9  N   UNL     1       1.520  16.171  18.618  0.00  0.00    +0.000 N 
ATOM     10  N   UNL     1       0.971  15.310  19.519  0.00  0.00    +0.000 NA
ATOM     11  H   UNL     1      -1.440  15.332  21.459  0.00  0.00    +0.000 HD
ENDROOT
BRANCH   1  23
ATOM     12  C   UNL     1      -3.326  12.916  24.003  0.00  0.00    +0.000 C 
ATOM     13  C   UNL     1      -2.907  13.402  22.592  0.00  0.00    +0.000 C 
ATOM     14  C   UNL     1      -3.242  14.910  22.552  0.00  0.00    +0.000 C 
ATOM     15  C   UNL     1      -3.761  12.631  21.555  0.00  0.00    +0.000 C 
ATOM     16  C   UNL     1      -3.460  12.892  20.075  0.00  0.00    +0.000 C 
ATOM     17  C   UNL     1      -2.247  12.152  19.571  0.00  0.00    +0.000 A 
ATOM     18  C   UNL     1      -2.418  11.185  18.561  0.00  0.00    +0.000 A 
ATOM     19  C   UNL     1      -1.338  10.453  18.069  0.00  0.00    +0.000 A 
ATOM     20  C   UNL     1      -0.065  10.675  18.576  0.00  0.00    +0.000 A 
ATOM     21  C   UNL     1       0.125  11.643  19.562  0.00  0.00    +0.000 A 
ATOM     22  C   UNL     1      -0.954  12.402  20.068  0.00  0.00    +0.000 A 
ATOM     23  C   UNL     1      -0.654  13.445  21.132  0.00  0.00    +0.000 C 
ATOM     24  C   UNL     1      -1.379  13.114  22.456  0.00  0.00    +0.000 C 
ENDBRANCH   1  23
BRANCH   8  25
ATOM     25  C   UNL     1       3.654  14.953  18.351  0.00  0.00    +0.000 C 
ATOM     26  F   UNL     1       3.101  13.767  17.970  0.00  0.00    +0.000 F 
ATOM     27  F   UNL     1       4.830  15.053  17.668  0.00  0.00    +0.000 F 
ENDBRANCH   8  25
TORSDOF 2
ENDMDL
MODEL 7
REMARK VINA RESULT:      -6.6      5.168      9.774
REMARK  Name = 
REMARK  4 active torsions:
REMARK  status: ('A' for Active; 'I' for Inactive)
REMARK    1  A    between atoms: C_1  and  C_2
REMARK    2  A    between atoms: C_2  and  C_3
REMARK    3  A    between atoms: C_12  and  N_13
REMARK    4  A    between atoms: C_20  and  C_21
REMARK                            x       y       z     vdW  Elec       q    Type
REMARK                         _______ _______ _______ _____ _____    ______ ____
ROOT
ATOM      1  N   UNL     1      -1.989  12.157  22.209  0.00  0.00    +0.000 N 
ATOM      2  C   UNL     1      -1.114  11.126  21.986  0.00  0.00    +0.000 A 
ATOM      3  C   UNL     1      -0.727  10.315  23.191  0.00  0.00    +0.000 A 
ATOM      4  C   UNL     1       0.131   9.299  23.043  0.00  0.00    +0.000 A 
ATOM      5  C   UNL     1       0.624   9.020  21.760  0.00  0.00    +0.000 A 
ATOM      6  N   UNL     1       1.442   8.102  21.295  0.00  0.00    +0.000 NA
ATOM      7  N   UNL     1       1.618   8.344  19.948  0.00  0.00    +0.000 NA
ATOM      8  C   UNL     1       0.904   9.413  19.631  0.00  0.00    +0.000 A 
ATOM      9  N   UNL     1       0.229   9.849  20.734  0.00  0.00    +0.000 N 
ATOM     10  N   UNL     1      -0.639  10.897  20.796  0.00  0.00    +0.000 NA
ATOM     11  H   UNL     1      -2.791  11.909  22.777  0.00  0.00    +0.000 HD
ENDROOT
BRANCH   1  23
ATOM     12  C   UNL     1      -5.055  15.154  23.443  0.00  0.00    +0.000 C 
ATOM     13  C   UNL     1      -3.699  14.411  23.333  0.00  0.00    +0.000 C 
ATOM     14  C   UNL     1      -3.826  13.173  24.249  0.00  0.00    +0.000 C 
ATOM     15  C   UNL     1      -2.596  15.363  23.860  0.00  0.00    +0.000 C 
ATOM     16  C   UNL     1      -1.149  14.865  23.772  0.00  0.00    +0.000 C 
ATOM     17  C   UNL     1      -0.553  14.998  22.392  0.00  0.00    +0.000 A 
ATOM     18  C   UNL     1       0.553  15.851  22.214  0.00  0.00    +0.000 A 
ATOM     19  C   UNL     1       1.134  16.033  20.959  0.00  0.00    +0.000 A 
ATOM     20  C   UNL     1       0.621  15.360  19.858  0.00  0.00    +0.000 A 
ATOM     21  C   UNL     1      -0.460  14.496  20.021  0.00  0.00    +0.000 A 
ATOM     22  C   UNL     1      -1.058  14.291  21.285  0.00  0.00    +0.000 A 
ATOM     23  C   UNL     1      -2.224  13.320  21.373  0.00  0.00    +0.000 C 
ATOM     24  C   UNL     1      -3.514  14.040  21.829  0.00  0.00    +0.000 C 
ENDBRANCH   1  23
BRANCH   8  25
ATOM     25  C   UNL     1       0.803  10.121  18.345  0.00  0.00    +0.000 C 
ATOM     26  F   UNL     1       1.859   9.843  17.530  0.00  0.00    +0.000 F 
ATOM     27  F   UNL     1      -0.311   9.745  17.654  0.00  0.00    +0.000 F 
ENDBRANCH   8  25
TORSDOF 2
ENDMDL
MODEL 8
REMARK VINA RESULT:      -6.5      6.891      9.503
REMARK  Name = 
REMARK  4 active torsions:
REMARK  status: ('A' for Active; 'I' for Inactive)
REMARK    1  A    between atoms: C_1  and  C_2
REMARK    2  A    between atoms: C_2  and  C_3
REMARK    3  A    between atoms: C_12  and  N_13
REMARK    4  A    between atoms: C_20  and  C_21
REMARK                            x       y       z     vdW  Elec       q    Type
REMARK                         _______ _______ _______ _____ _____    ______ ____
ROOT
ATOM      1  N   UNL     1      -1.538  13.865  20.853  0.00  0.00    +0.000 N 
ATOM      2  C   UNL     1      -2.626  13.481  21.590  0.00  0.00    +0.000 A 
ATOM      3  C   UNL     1      -2.380  13.236  23.053  0.00  0.00    +0.000 A 
ATOM      4  C   UNL     1      -3.399  12.849  23.828  0.00  0.00    +0.000 A 
ATOM      5  C   UNL     1      -4.667  12.703  23.245  0.00  0.00    +0.000 A 
ATOM      6  N   UNL     1      -5.842  12.367  23.729  0.00  0.00    +0.000 NA
ATOM      7  N   UNL     1      -6.732  12.329  22.675  0.00  0.00    +0.000 NA
ATOM      8  C   UNL     1      -6.068  12.639  21.572  0.00  0.00    +0.000 A 
ATOM      9  N   UNL     1      -4.771  12.921  21.889  0.00  0.00    +0.000 N 
ATOM     10  N   UNL     1      -3.790  13.319  21.032  0.00  0.00    +0.000 NA
ATOM     11  H   UNL     1      -0.985  14.602  21.276  0.00  0.00    +0.000 HD
ENDROOT
BRANCH   1  23
ATOM     12  C   UNL     1       2.139  15.574  18.989  0.00  0.00    +0.000 C 
ATOM     13  C   UNL     1       1.186  14.572  19.691  0.00  0.00    +0.000 C 
ATOM     14  C   UNL     1       1.138  15.009  21.171  0.00  0.00    +0.000 C 
ATOM     15  C   UNL     1       1.811  13.160  19.563  0.00  0.00    +0.000 C 
ATOM     16  C   UNL     1       0.996  11.988  20.120  0.00  0.00    +0.000 C 
ATOM     17  C   UNL     1      -0.114  11.540  19.201  0.00  0.00    +0.000 A 
ATOM     18  C   UNL     1      -0.064  10.237  18.669  0.00  0.00    +0.000 A 
ATOM     19  C   UNL     1      -1.048   9.772  17.797  0.00  0.00    +0.000 A 
ATOM     20  C   UNL     1      -2.103  10.602  17.443  0.00  0.00    +0.000 A 
ATOM     21  C   UNL     1      -2.178  11.887  17.977  0.00  0.00    +0.000 A 
ATOM     22  C   UNL     1      -1.197  12.375  18.868  0.00  0.00    +0.000 A 
ATOM     23  C   UNL     1      -1.365  13.783  19.413  0.00  0.00    +0.000 C 
ATOM     24  C   UNL     1      -0.195  14.693  18.974  0.00  0.00    +0.000 C 
ENDBRANCH   1  23
BRANCH   8  25
ATOM     25  C   UNL     1      -6.537  12.673  20.178  0.00  0.00    +0.000 C 
ATOM     26  F   UNL     1      -7.568  11.807  19.970  0.00  0.00    +0.000 F 
ATOM     27  F   UNL     1      -7.011  13.906  19.840  0.00  0.00    +0.000 F 
ENDBRANCH   8  25
TORSDOF 2
ENDMDL
MODEL 9
REMARK VINA RESULT:      -6.4      5.412      9.709
REMARK  Name = 
REMARK  4 active torsions:
REMARK  status: ('A' for Active; 'I' for Inactive)
REMARK    1  A    between atoms: C_1  and  C_2
REMARK    2  A    between atoms: C_2  and  C_3
REMARK    3  A    between atoms: C_12  and  N_13
REMARK    4  A    between atoms: C_20  and  C_21
REMARK                            x       y       z     vdW  Elec       q    Type
REMARK                         _______ _______ _______ _____ _____    ______ ____
ROOT
ATOM      1  N   UNL     1       1.896  14.106  19.130  0.00  0.00    +0.000 N 
ATOM      2  C   UNL     1       1.533  12.810  19.380  0.00  0.00    +0.000 A 
ATOM      3  C   UNL     1       1.975  11.792  18.365  0.00  0.00    +0.000 A 
ATOM      4  C   UNL     1       1.645  10.508  18.545  0.00  0.00    +0.000 A 
ATOM      5  C   UNL     1       0.911  10.159  19.688  0.00  0.00    +0.000 A 
ATOM      6  N   UNL     1       0.463   9.012  20.149  0.00  0.00    +0.000 NA
ATOM      7  N   UNL     1      -0.252   9.275  21.298  0.00  0.00    +0.000 NA
ATOM      8  C   UNL     1      -0.227  10.584  21.502  0.00  0.00    +0.000 A 
ATOM      9  N   UNL     1       0.530  11.176  20.533  0.00  0.00    +0.000 N 
ATOM     10  N   UNL     1       0.825  12.502  20.427  0.00  0.00    +0.000 NA
ATOM     11  H   UNL     1       2.868  14.226  18.868  0.00  0.00    +0.000 HD
ENDROOT
BRANCH   1  23
ATOM     12  C   UNL     1       4.285  16.667  21.895  0.00  0.00    +0.000 C 
ATOM     13  C   UNL     1       3.712  16.070  20.583  0.00  0.00    +0.000 C 
ATOM     14  C   UNL     1       4.474  14.745  20.360  0.00  0.00    +0.000 C 
ATOM     15  C   UNL     1       4.017  17.069  19.439  0.00  0.00    +0.000 C 
ATOM     16  C   UNL     1       3.469  16.722  18.051  0.00  0.00    +0.000 C 
ATOM     17  C   UNL     1       2.003  17.041  17.889  0.00  0.00    +0.000 A 
ATOM     18  C   UNL     1       1.624  18.010  16.939  0.00  0.00    +0.000 A 
ATOM     19  C   UNL     1       0.288  18.364  16.759  0.00  0.00    +0.000 A 
ATOM     20  C   UNL     1      -0.697  17.753  17.523  0.00  0.00    +0.000 A 
ATOM     21  C   UNL     1      -0.341  16.777  18.454  0.00  0.00    +0.000 A 
ATOM     22  C   UNL     1       1.006  16.398  18.646  0.00  0.00    +0.000 A 
ATOM     23  C   UNL     1       1.303  15.316  19.672  0.00  0.00    +0.000 C 
ATOM     24  C   UNL     1       2.183  15.862  20.818  0.00  0.00    +0.000 C 
ENDBRANCH   1  23
BRANCH   8  25
ATOM     25  C   UNL     1      -0.891  11.380  22.546  0.00  0.00    +0.000 C 
ATOM     26  F   UNL     1      -1.983  12.036  22.062  0.00  0.00    +0.000 F 
ATOM     27  F   UNL     1      -1.347  10.592  23.561  0.00  0.00    +0.000 F 
ENDBRANCH   8  25
TORSDOF 2
ENDMDL
