MODEL 1
REMARK VINA RESULT:      -7.9      0.000      0.000
REMARK  Name = 
REMARK  5 active torsions:
REMARK  status: ('A' for Active; 'I' for Inactive)
REMARK    1  A    between atoms: C_1  and  O_2
REMARK    2  A    between atoms: O_2  and  C_3
REMARK    3  A    between atoms: C_9  and  C_10
REMARK    4  A    between atoms: N_12  and  C_13
REMARK    5  A    between atoms: C_17  and  C_18
REMARK                            x       y       z     vdW  Elec       q    Type
REMARK                         _______ _______ _______ _____ _____    ______ ____
ROOT
ATOM      1  C   UNL     1       3.505   5.522  19.135  0.00  0.00    +0.000 A 
ATOM      2  C   UNL     1       3.172   4.436  19.947  0.00  0.00    +0.000 A 
ATOM      3  C   UNL     1       2.145   4.519  20.888  0.00  0.00    +0.000 A 
ATOM      4  C   UNL     1       1.466   5.718  21.077  0.00  0.00    +0.000 A 
ATOM      5  C   UNL     1       1.826   6.869  20.357  0.00  0.00    +0.000 A 
ATOM      6  C   UNL     1       2.843   6.744  19.372  0.00  0.00    +0.000 A 
ENDROOT
BRANCH   5   7
ATOM      7  C   UNL     1       1.136   8.147  20.690  0.00  0.00    +0.000 A 
ATOM      8  N   UNL     1       0.555   8.404  21.852  0.00  0.00    +0.000 NA
ATOM      9  C   UNL     1       0.024   9.690  21.874  0.00  0.00    +0.000 A 
ATOM     10  C   UNL     1      -0.657  10.315  22.946  0.00  0.00    +0.000 A 
ATOM     11  C   UNL     1      -1.146  11.621  22.798  0.00  0.00    +0.000 A 
ATOM     12  C   UNL     1      -0.962  12.313  21.606  0.00  0.00    +0.000 A 
ATOM     13  C   UNL     1      -0.280  11.722  20.540  0.00  0.00    +0.000 A 
ATOM     14  C   UNL     1       0.201  10.411  20.695  0.00  0.00    +0.000 A 
ATOM     15  S   UNL     1       1.057   9.444  19.565  0.00  0.00    +0.000 S 
ENDBRANCH   5   7
BRANCH   1  18
ATOM     16  C   UNL     1       4.399   4.550  17.006  0.00  0.00    +0.000 C 
ATOM     17  O   UNL     1       3.491   3.736  16.838  0.00  0.00    +0.000 OA
ATOM     18  N   UNL     1       4.475   5.428  18.081  0.00  0.00    +0.000 N 
ATOM     19  H   UNL     1       5.224   6.111  18.071  0.00  0.00    +0.000 HD
BRANCH  16  26
ATOM     20  C   UNL     1       6.734   5.092  16.031  0.00  0.00    +0.000 A 
ATOM     21  C   UNL     1       7.541   5.006  14.891  0.00  0.00    +0.000 A 
ATOM     22  N   UNL     1       7.152   4.515  13.695  0.00  0.00    +0.000 NA
ATOM     23  C   UNL     1       5.893   4.061  13.615  0.00  0.00    +0.000 A 
ATOM     24  F   UNL     1       5.468   3.596  12.433  0.00  0.00    +0.000 F 
ATOM     25  C   UNL     1       5.024   4.057  14.682  0.00  0.00    +0.000 A 
ATOM     26  C   UNL     1       5.439   4.575  15.925  0.00  0.00    +0.000 A 
BRANCH  20  28
ATOM     27  C   UNL     1       7.438   7.021  17.169  0.00  0.00    +0.000 C 
ATOM     28  O   UNL     1       7.161   5.618  17.218  0.00  0.00    +0.000 OA
ENDBRANCH  20  28
ENDBRANCH  16  26
ENDBRANCH   1  18
TORSDOF 4
ENDMDL
MODEL 2
REMARK VINA RESULT:      -7.9      3.849      5.382
REMARK  Name = 
REMARK  5 active torsions:
REMARK  status: ('A' for Active; 'I' for Inactive)
REMARK    1  A    between atoms: C_1  and  O_2
REMARK    2  A    between atoms: O_2  and  C_3
REMARK    3  A    between atoms: C_9  and  C_10
REMARK    4  A    between atoms: N_12  and  C_13
REMARK    5  A    between atoms: C_17  and  C_18
REMARK                            x       y       z     vdW  Elec       q    Type
REMARK                         _______ _______ _______ _____ _____    ______ ____
ROOT
ATOM      1  C   UNL     1       1.464   9.901  18.027  0.00  0.00    +0.000 A 
ATOM      2  C   UNL     1       2.272  11.020  18.240  0.00  0.00    +0.000 A 
ATOM      3  C   UNL     1       1.738  12.228  18.689  0.00  0.00    +0.000 A 
ATOM      4  C   UNL     1       0.366  12.358  18.881  0.00  0.00    +0.000 A 
ATOM      5  C   UNL     1      -0.504  11.295  18.589  0.00  0.00    +0.000 A 
ATOM      6  C   UNL     1       0.071  10.061  18.177  0.00  0.00    +0.000 A 
ENDROOT
BRANCH   5   7
ATOM      7  C   UNL     1      -1.970  11.537  18.707  0.00  0.00    +0.000 A 
ATOM      8  N   UNL     1      -2.875  11.075  17.859  0.00  0.00    +0.000 NA
ATOM      9  C   UNL     1      -4.160  11.440  18.248  0.00  0.00    +0.000 A 
ATOM     10  C   UNL     1      -5.374  11.118  17.597  0.00  0.00    +0.000 A 
ATOM     11  C   UNL     1      -6.592  11.581  18.116  0.00  0.00    +0.000 A 
ATOM     12  C   UNL     1      -6.619  12.351  19.274  0.00  0.00    +0.000 A 
ATOM     13  C   UNL     1      -5.434  12.668  19.942  0.00  0.00    +0.000 A 
ATOM     14  C   UNL     1      -4.218  12.206  19.411  0.00  0.00    +0.000 A 
ATOM     15  S   UNL     1      -2.627  12.446  20.009  0.00  0.00    +0.000 S 
ENDBRANCH   5   7
BRANCH   1  18
ATOM     16  C   UNL     1       2.300   7.607  18.587  0.00  0.00    +0.000 C 
ATOM     17  O   UNL     1       2.149   7.702  19.804  0.00  0.00    +0.000 OA
ATOM     18  N   UNL     1       2.001   8.616  17.679  0.00  0.00    +0.000 N 
ATOM     19  H   UNL     1       2.086   8.395  16.693  0.00  0.00    +0.000 HD
BRANCH  16  26
ATOM     20  C   UNL     1       4.033   6.027  17.494  0.00  0.00    +0.000 A 
ATOM     21  C   UNL     1       4.298   4.701  17.133  0.00  0.00    +0.000 A 
ATOM     22  N   UNL     1       3.446   3.665  17.284  0.00  0.00    +0.000 NA
ATOM     23  C   UNL     1       2.259   3.944  17.844  0.00  0.00    +0.000 A 
ATOM     24  F   UNL     1       1.380   2.943  17.981  0.00  0.00    +0.000 F 
ATOM     25  C   UNL     1       1.906   5.201  18.277  0.00  0.00    +0.000 A 
ATOM     26  C   UNL     1       2.803   6.277  18.110  0.00  0.00    +0.000 A 
BRANCH  20  28
ATOM     27  C   UNL     1       6.252   6.623  17.006  0.00  0.00    +0.000 C 
ATOM     28  O   UNL     1       4.918   7.051  17.301  0.00  0.00    +0.000 OA
ENDBRANCH  20  28
ENDBRANCH  16  26
ENDBRANCH   1  18
TORSDOF 4
ENDMDL
MODEL 3
REMARK VINA RESULT:      -7.7      3.867      5.406
REMARK  Name = 
REMARK  5 active torsions:
REMARK  status: ('A' for Active; 'I' for Inactive)
REMARK    1  A    between atoms: C_1  and  O_2
REMARK    2  A    between atoms: O_2  and  C_3
REMARK    3  A    between atoms: C_9  and  C_10
REMARK    4  A    between atoms: N_12  and  C_13
REMARK    5  A    between atoms: C_17  and  C_18
REMARK                            x       y       z     vdW  Elec       q    Type
REMARK                         _______ _______ _______ _____ _____    ______ ____
ROOT
ATOM      1  C   UNL     1       1.408   9.675  18.076  0.00  0.00    +0.000 A 
ATOM      2  C   UNL     1       2.201  10.811  18.250  0.00  0.00    +0.000 A 
ATOM      3  C   UNL     1       1.645  12.039  18.609  0.00  0.00    +0.000 A 
ATOM      4  C   UNL     1       0.266  12.168  18.747  0.00  0.00    +0.000 A 
ATOM      5  C   UNL     1      -0.586  11.083  18.490  0.00  0.00    +0.000 A 
ATOM      6  C   UNL     1       0.010   9.832  18.170  0.00  0.00    +0.000 A 
ENDROOT
BRANCH   5   7
ATOM      7  C   UNL     1      -2.057  11.320  18.544  0.00  0.00    +0.000 A 
ATOM      8  N   UNL     1      -2.664  12.052  19.464  0.00  0.00    +0.000 NA
ATOM      9  C   UNL     1      -4.034  12.114  19.233  0.00  0.00    +0.000 A 
ATOM     10  C   UNL     1      -5.000  12.811  19.999  0.00  0.00    +0.000 A 
ATOM     11  C   UNL     1      -6.353  12.756  19.637  0.00  0.00    +0.000 A 
ATOM     12  C   UNL     1      -6.757  12.027  18.523  0.00  0.00    +0.000 A 
ATOM     13  C   UNL     1      -5.821  11.343  17.744  0.00  0.00    +0.000 A 
ATOM     14  C   UNL     1      -4.468  11.398  18.119  0.00  0.00    +0.000 A 
ATOM     15  S   UNL     1      -3.116  10.659  17.362  0.00  0.00    +0.000 S 
ENDBRANCH   5   7
BRANCH   1  18
ATOM     16  C   UNL     1       2.283   7.442  18.801  0.00  0.00    +0.000 C 
ATOM     17  O   UNL     1       2.135   7.626  20.009  0.00  0.00    +0.000 OA
ATOM     18  N   UNL     1       1.964   8.377  17.822  0.00  0.00    +0.000 N 
ATOM     19  H   UNL     1       2.049   8.084  16.855  0.00  0.00    +0.000 HD
BRANCH  16  26
ATOM     20  C   UNL     1       3.867   5.822  17.551  0.00  0.00    +0.000 A 
ATOM     21  C   UNL     1       4.189   4.476  17.344  0.00  0.00    +0.000 A 
ATOM     22  N   UNL     1       3.529   3.425  17.874  0.00  0.00    +0.000 NA
ATOM     23  C   UNL     1       2.492   3.712  18.676  0.00  0.00    +0.000 A 
ATOM     24  F   UNL     1       1.798   2.691  19.194  0.00  0.00    +0.000 F 
ATOM     25  C   UNL     1       2.111   4.998  18.985  0.00  0.00    +0.000 A 
ATOM     26  C   UNL     1       2.806   6.089  18.422  0.00  0.00    +0.000 A 
BRANCH  20  28
ATOM     27  C   UNL     1       5.229   6.507  15.764  0.00  0.00    +0.000 C 
ATOM     28  O   UNL     1       4.550   6.857  16.974  0.00  0.00    +0.000 OA
ENDBRANCH  20  28
ENDBRANCH  16  26
ENDBRANCH   1  18
TORSDOF 4
ENDMDL
MODEL 4
REMARK VINA RESULT:      -7.7      3.657      5.038
REMARK  Name = 
REMARK  5 active torsions:
REMARK  status: ('A' for Active; 'I' for Inactive)
REMARK    1  A    between atoms: C_1  and  O_2
REMARK    2  A    between atoms: O_2  and  C_3
REMARK    3  A    between atoms: C_9  and  C_10
REMARK    4  A    between atoms: N_12  and  C_13
REMARK    5  A    between atoms: C_17  and  C_18
REMARK                            x       y       z     vdW  Elec       q    Type
REMARK                         _______ _______ _______ _____ _____    ______ ____
ROOT
ATOM      1  C   UNL     1       1.871   8.166  19.524  0.00  0.00    +0.000 A 
ATOM      2  C   UNL     1       2.301   8.715  18.314  0.00  0.00    +0.000 A 
ATOM      3  C   UNL     1       1.921   9.999  17.921  0.00  0.00    +0.000 A 
ATOM      4  C   UNL     1       1.050  10.742  18.711  0.00  0.00    +0.000 A 
ATOM      5  C   UNL     1       0.510  10.202  19.889  0.00  0.00    +0.000 A 
ATOM      6  C   UNL     1       0.950   8.910  20.289  0.00  0.00    +0.000 A 
ENDROOT
BRANCH   5   7
ATOM      7  C   UNL     1      -0.505  11.007  20.627  0.00  0.00    +0.000 A 
ATOM      8  N   UNL     1      -1.368  11.831  20.053  0.00  0.00    +0.000 NA
ATOM      9  C   UNL     1      -2.207  12.414  20.997  0.00  0.00    +0.000 A 
ATOM     10  C   UNL     1      -3.255  13.335  20.756  0.00  0.00    +0.000 A 
ATOM     11  C   UNL     1      -4.001  13.844  21.829  0.00  0.00    +0.000 A 
ATOM     12  C   UNL     1      -3.725  13.445  23.133  0.00  0.00    +0.000 A 
ATOM     13  C   UNL     1      -2.705  12.527  23.393  0.00  0.00    +0.000 A 
ATOM     14  C   UNL     1      -1.959  12.028  22.313  0.00  0.00    +0.000 A 
ATOM     15  S   UNL     1      -0.658  10.908  22.336  0.00  0.00    +0.000 S 
ENDBRANCH   5   7
BRANCH   1  18
ATOM     16  C   UNL     1       2.366   5.725  19.261  0.00  0.00    +0.000 C 
ATOM     17  O   UNL     1       1.979   5.634  18.097  0.00  0.00    +0.000 OA
ATOM     18  N   UNL     1       2.339   6.898  20.006  0.00  0.00    +0.000 N 
ATOM     19  H   UNL     1       2.762   6.874  20.928  0.00  0.00    +0.000 HD
BRANCH  16  26
ATOM     20  C   UNL     1       4.145   3.861  19.503  0.00  0.00    +0.000 A 
ATOM     21  C   UNL     1       4.478   2.684  20.183  0.00  0.00    +0.000 A 
ATOM     22  N   UNL     1       3.701   2.065  21.097  0.00  0.00    +0.000 NA
ATOM     23  C   UNL     1       2.526   2.648  21.378  0.00  0.00    +0.000 A 
ATOM     24  F   UNL     1       1.720   2.042  22.259  0.00  0.00    +0.000 F 
ATOM     25  C   UNL     1       2.114   3.828  20.802  0.00  0.00    +0.000 A 
ATOM     26  C   UNL     1       2.931   4.464  19.845  0.00  0.00    +0.000 A 
BRANCH  20  28
ATOM     27  C   UNL     1       6.013   5.231  19.115  0.00  0.00    +0.000 C 
ATOM     28  O   UNL     1       4.953   4.443  18.565  0.00  0.00    +0.000 OA
ENDBRANCH  20  28
ENDBRANCH  16  26
ENDBRANCH   1  18
TORSDOF 4
ENDMDL
MODEL 5
REMARK VINA RESULT:      -7.7      4.217      6.238
REMARK  Name = 
REMARK  5 active torsions:
REMARK  status: ('A' for Active; 'I' for Inactive)
REMARK    1  A    between atoms: C_1  and  O_2
REMARK    2  A    between atoms: O_2  and  C_3
REMARK    3  A    between atoms: C_9  and  C_10
REMARK    4  A    between atoms: N_12  and  C_13
REMARK    5  A    between atoms: C_17  and  C_18
REMARK                            x       y       z     vdW  Elec       q    Type
REMARK                         _______ _______ _______ _____ _____    ______ ____
ROOT
ATOM      1  C   UNL     1       1.042  10.080  18.620  0.00  0.00    +0.000 A 
ATOM      2  C   UNL     1       1.827  11.230  18.511  0.00  0.00    +0.000 A 
ATOM      3  C   UNL     1       1.271  12.504  18.628  0.00  0.00    +0.000 A 
ATOM      4  C   UNL     1      -0.101  12.655  18.800  0.00  0.00    +0.000 A 
ATOM      5  C   UNL     1      -0.950  11.537  18.818  0.00  0.00    +0.000 A 
ATOM      6  C   UNL     1      -0.352  10.249  18.743  0.00  0.00    +0.000 A 
ENDROOT
BRANCH   5   7
ATOM      7  C   UNL     1      -2.420  11.775  18.889  0.00  0.00    +0.000 A 
ATOM      8  N   UNL     1      -3.291  11.348  17.989  0.00  0.00    +0.000 NA
ATOM      9  C   UNL     1      -4.591  11.696  18.344  0.00  0.00    +0.000 A 
ATOM     10  C   UNL     1      -5.779  11.401  17.634  0.00  0.00    +0.000 A 
ATOM     11  C   UNL     1      -7.017  11.843  18.125  0.00  0.00    +0.000 A 
ATOM     12  C   UNL     1      -7.088  12.564  19.311  0.00  0.00    +0.000 A 
ATOM     13  C   UNL     1      -5.930  12.854  20.037  0.00  0.00    +0.000 A 
ATOM     14  C   UNL     1      -4.695  12.413  19.534  0.00  0.00    +0.000 A 
ATOM     15  S   UNL     1      -3.128  12.629  20.201  0.00  0.00    +0.000 S 
ENDBRANCH   5   7
BRANCH   1  18
ATOM     16  C   UNL     1       1.832   7.993  19.758  0.00  0.00    +0.000 C 
ATOM     17  O   UNL     1       1.587   8.365  20.905  0.00  0.00    +0.000 OA
ATOM     18  N   UNL     1       1.604   8.760  18.621  0.00  0.00    +0.000 N 
ATOM     19  H   UNL     1       1.765   8.318  17.722  0.00  0.00    +0.000 HD
BRANCH  16  26
ATOM     20  C   UNL     1       3.213   6.114  18.637  0.00  0.00    +0.000 A 
ATOM     21  C   UNL     1       3.598   4.772  18.730  0.00  0.00    +0.000 A 
ATOM     22  N   UNL     1       3.180   3.904  19.676  0.00  0.00    +0.000 NA
ATOM     23  C   UNL     1       2.342   4.388  20.604  0.00  0.00    +0.000 A 
ATOM     24  F   UNL     1       1.886   3.544  21.539  0.00  0.00    +0.000 F 
ATOM     25  C   UNL     1       1.930   5.701  20.637  0.00  0.00    +0.000 A 
ATOM     26  C   UNL     1       2.370   6.598  19.642  0.00  0.00    +0.000 A 
BRANCH  20  28
ATOM     27  C   UNL     1       4.989   6.716  17.223  0.00  0.00    +0.000 C 
ATOM     28  O   UNL     1       3.644   6.954  17.647  0.00  0.00    +0.000 OA
ENDBRANCH  20  28
ENDBRANCH  16  26
ENDBRANCH   1  18
TORSDOF 4
ENDMDL
MODEL 6
REMARK VINA RESULT:      -7.6      3.690      4.977
REMARK  Name = 
REMARK  5 active torsions:
REMARK  status: ('A' for Active; 'I' for Inactive)
REMARK    1  A    between atoms: C_1  and  O_2
REMARK    2  A    between atoms: O_2  and  C_3
REMARK    3  A    between atoms: C_9  and  C_10
REMARK    4  A    between atoms: N_12  and  C_13
REMARK    5  A    between atoms: C_17  and  C_18
REMARK                            x       y       z     vdW  Elec       q    Type
REMARK                         _______ _______ _______ _____ _____    ______ ____
ROOT
ATOM      1  C   UNL     1       1.827   8.220  19.492  0.00  0.00    +0.000 A 
ATOM      2  C   UNL     1       2.331   8.769  18.311  0.00  0.00    +0.000 A 
ATOM      3  C   UNL     1       1.978  10.053  17.897  0.00  0.00    +0.000 A 
ATOM      4  C   UNL     1       1.062  10.797  18.633  0.00  0.00    +0.000 A 
ATOM      5  C   UNL     1       0.449  10.257  19.775  0.00  0.00    +0.000 A 
ATOM      6  C   UNL     1       0.862   8.964  20.200  0.00  0.00    +0.000 A 
ENDROOT
BRANCH   5   7
ATOM      7  C   UNL     1      -0.608  11.063  20.450  0.00  0.00    +0.000 A 
ATOM      8  N   UNL     1      -0.842  11.048  21.753  0.00  0.00    +0.000 NA
ATOM      9  C   UNL     1      -1.868  11.926  22.088  0.00  0.00    +0.000 A 
ATOM     10  C   UNL     1      -2.383  12.185  23.381  0.00  0.00    +0.000 A 
ATOM     11  C   UNL     1      -3.438  13.094  23.545  0.00  0.00    +0.000 A 
ATOM     12  C   UNL     1      -3.980  13.753  22.446  0.00  0.00    +0.000 A 
ATOM     13  C   UNL     1      -3.478  13.525  21.163  0.00  0.00    +0.000 A 
ATOM     14  C   UNL     1      -2.425  12.607  21.007  0.00  0.00    +0.000 A 
ATOM     15  S   UNL     1      -1.625  12.129  19.566  0.00  0.00    +0.000 S 
ENDBRANCH   5   7
BRANCH   1  18
ATOM     16  C   UNL     1       2.352   5.782  19.253  0.00  0.00    +0.000 C 
ATOM     17  O   UNL     1       2.056   5.697  18.062  0.00  0.00    +0.000 OA
ATOM     18  N   UNL     1       2.263   6.951  20.001  0.00  0.00    +0.000 N 
ATOM     19  H   UNL     1       2.614   6.922  20.952  0.00  0.00    +0.000 HD
BRANCH  16  26
ATOM     20  C   UNL     1       4.075   3.874  19.551  0.00  0.00    +0.000 A 
ATOM     21  C   UNL     1       4.369   2.705  20.261  0.00  0.00    +0.000 A 
ATOM     22  N   UNL     1       3.569   2.130  21.184  0.00  0.00    +0.000 NA
ATOM     23  C   UNL     1       2.410   2.753  21.442  0.00  0.00    +0.000 A 
ATOM     24  F   UNL     1       1.581   2.191  22.331  0.00  0.00    +0.000 F 
ATOM     25  C   UNL     1       2.035   3.930  20.836  0.00  0.00    +0.000 A 
ATOM     26  C   UNL     1       2.877   4.520  19.870  0.00  0.00    +0.000 A 
BRANCH  20  28
ATOM     27  C   UNL     1       5.970   5.201  19.144  0.00  0.00    +0.000 C 
ATOM     28  O   UNL     1       4.906   4.410  18.606  0.00  0.00    +0.000 OA
ENDBRANCH  20  28
ENDBRANCH  16  26
ENDBRANCH   1  18
TORSDOF 4
ENDMDL
MODEL 7
REMARK VINA RESULT:      -7.6      5.625     10.158
REMARK  Name = 
REMARK  5 active torsions:
REMARK  status: ('A' for Active; 'I' for Inactive)
REMARK    1  A    between atoms: C_1  and  O_2
REMARK    2  A    between atoms: O_2  and  C_3
REMARK    3  A    between atoms: C_9  and  C_10
REMARK    4  A    between atoms: N_12  and  C_13
REMARK    5  A    between atoms: C_17  and  C_18
REMARK                            x       y       z     vdW  Elec       q    Type
REMARK                         _______ _______ _______ _____ _____    ______ ____
ROOT
ATOM      1  C   UNL     1       1.001  10.407  20.079  0.00  0.00    +0.000 A 
ATOM      2  C   UNL     1       1.259  10.850  18.780  0.00  0.00    +0.000 A 
ATOM      3  C   UNL     1       1.727   9.981  17.794  0.00  0.00    +0.000 A 
ATOM      4  C   UNL     1       2.003   8.654  18.107  0.00  0.00    +0.000 A 
ATOM      5  C   UNL     1       1.856   8.179  19.420  0.00  0.00    +0.000 A 
ATOM      6  C   UNL     1       1.333   9.074  20.394  0.00  0.00    +0.000 A 
ENDROOT
BRANCH   5   7
ATOM      7  C   UNL     1       2.279   6.779  19.710  0.00  0.00    +0.000 A 
ATOM      8  N   UNL     1       1.763   6.025  20.668  0.00  0.00    +0.000 NA
ATOM      9  C   UNL     1       2.338   4.758  20.673  0.00  0.00    +0.000 A 
ATOM     10  C   UNL     1       2.032   3.684  21.543  0.00  0.00    +0.000 A 
ATOM     11  C   UNL     1       2.721   2.469  21.425  0.00  0.00    +0.000 A 
ATOM     12  C   UNL     1       3.701   2.305  20.452  0.00  0.00    +0.000 A 
ATOM     13  C   UNL     1       4.010   3.346  19.573  0.00  0.00    +0.000 A 
ATOM     14  C   UNL     1       3.319   4.562  19.704  0.00  0.00    +0.000 A 
ATOM     15  S   UNL     1       3.494   5.998  18.779  0.00  0.00    +0.000 S 
ENDBRANCH   5   7
BRANCH   1  18
ATOM     16  C   UNL     1      -0.895  11.730  21.045  0.00  0.00    +0.000 C 
ATOM     17  O   UNL     1      -1.696  11.495  20.141  0.00  0.00    +0.000 OA
ATOM     18  N   UNL     1       0.410  11.250  21.079  0.00  0.00    +0.000 N 
ATOM     19  H   UNL     1       0.953  11.438  21.914  0.00  0.00    +0.000 HD
BRANCH  16  26
ATOM     20  C   UNL     1      -0.769  13.602  22.827  0.00  0.00    +0.000 A 
ATOM     21  C   UNL     1      -1.467  14.243  23.857  0.00  0.00    +0.000 A 
ATOM     22  N   UNL     1      -2.696  13.902  24.298  0.00  0.00    +0.000 NA
ATOM     23  C   UNL     1      -3.291  12.873  23.676  0.00  0.00    +0.000 A 
ATOM     24  F   UNL     1      -4.499  12.491  24.110  0.00  0.00    +0.000 F 
ATOM     25  C   UNL     1      -2.718  12.195  22.624  0.00  0.00    +0.000 A 
ATOM     26  C   UNL     1      -1.432  12.558  22.174  0.00  0.00    +0.000 A 
BRANCH  20  28
ATOM     27  C   UNL     1       0.533  15.196  21.697  0.00  0.00    +0.000 C 
ATOM     28  O   UNL     1       0.486  13.966  22.427  0.00  0.00    +0.000 OA
ENDBRANCH  20  28
ENDBRANCH  16  26
ENDBRANCH   1  18
TORSDOF 4
ENDMDL
MODEL 8
REMARK VINA RESULT:      -7.6      3.744      9.054
REMARK  Name = 
REMARK  5 active torsions:
REMARK  status: ('A' for Active; 'I' for Inactive)
REMARK    1  A    between atoms: C_1  and  O_2
REMARK    2  A    between atoms: O_2  and  C_3
REMARK    3  A    between atoms: C_9  and  C_10
REMARK    4  A    between atoms: N_12  and  C_13
REMARK    5  A    between atoms: C_17  and  C_18
REMARK                            x       y       z     vdW  Elec       q    Type
REMARK                         _______ _______ _______ _____ _____    ______ ____
ROOT
ATOM      1  C   UNL     1       3.055   5.516  19.653  0.00  0.00    +0.000 A 
ATOM      2  C   UNL     1       2.873   4.236  20.181  0.00  0.00    +0.000 A 
ATOM      3  C   UNL     1       3.511   3.124  19.632  0.00  0.00    +0.000 A 
ATOM      4  C   UNL     1       4.304   3.263  18.497  0.00  0.00    +0.000 A 
ATOM      5  C   UNL     1       4.443   4.510  17.866  0.00  0.00    +0.000 A 
ATOM      6  C   UNL     1       3.820   5.634  18.475  0.00  0.00    +0.000 A 
ENDROOT
BRANCH   5   7
ATOM      7  C   UNL     1       5.213   4.567  16.591  0.00  0.00    +0.000 A 
ATOM      8  N   UNL     1       4.938   3.842  15.519  0.00  0.00    +0.000 NA
ATOM      9  C   UNL     1       5.811   4.138  14.476  0.00  0.00    +0.000 A 
ATOM     10  C   UNL     1       5.816   3.572  13.179  0.00  0.00    +0.000 A 
ATOM     11  C   UNL     1       6.782   3.972  12.243  0.00  0.00    +0.000 A 
ATOM     12  C   UNL     1       7.734   4.930  12.578  0.00  0.00    +0.000 A 
ATOM     13  C   UNL     1       7.739   5.513  13.847  0.00  0.00    +0.000 A 
ATOM     14  C   UNL     1       6.772   5.101  14.779  0.00  0.00    +0.000 A 
ATOM     15  S   UNL     1       6.547   5.633  16.396  0.00  0.00    +0.000 S 
ENDBRANCH   5   7
BRANCH   1  18
ATOM     16  C   UNL     1       1.943   7.759  19.579  0.00  0.00    +0.000 C 
ATOM     17  O   UNL     1       1.858   7.827  18.353  0.00  0.00    +0.000 OA
ATOM     18  N   UNL     1       2.506   6.691  20.267  0.00  0.00    +0.000 N 
ATOM     19  H   UNL     1       2.445   6.705  21.279  0.00  0.00    +0.000 HD
BRANCH  16  26
ATOM     20  C   UNL     1       1.115  10.199  19.821  0.00  0.00    +0.000 A 
ATOM     21  C   UNL     1       0.538  11.125  20.697  0.00  0.00    +0.000 A 
ATOM     22  N   UNL     1       0.236  10.892  21.992  0.00  0.00    +0.000 NA
ATOM     23  C   UNL     1       0.501   9.661  22.456  0.00  0.00    +0.000 A 
ATOM     24  F   UNL     1       0.241   9.408  23.745  0.00  0.00    +0.000 F 
ATOM     25  C   UNL     1       1.028   8.659  21.675  0.00  0.00    +0.000 A 
ATOM     26  C   UNL     1       1.344   8.915  20.324  0.00  0.00    +0.000 A 
BRANCH  20  28
ATOM     27  C   UNL     1       2.105  11.733  18.343  0.00  0.00    +0.000 C 
ATOM     28  O   UNL     1       1.426  10.486  18.521  0.00  0.00    +0.000 OA
ENDBRANCH  20  28
ENDBRANCH  16  26
ENDBRANCH   1  18
TORSDOF 4
ENDMDL
MODEL 9
REMARK VINA RESULT:      -7.6      4.208      6.220
REMARK  Name = 
REMARK  5 active torsions:
REMARK  status: ('A' for Active; 'I' for Inactive)
REMARK    1  A    between atoms: C_1  and  O_2
REMARK    2  A    between atoms: O_2  and  C_3
REMARK    3  A    between atoms: C_9  and  C_10
REMARK    4  A    between atoms: N_12  and  C_13
REMARK    5  A    between atoms: C_17  and  C_18
REMARK                            x       y       z     vdW  Elec       q    Type
REMARK                         _______ _______ _______ _____ _____    ______ ____
ROOT
ATOM      1  C   UNL     1       0.986  10.070  18.651  0.00  0.00    +0.000 A 
ATOM      2  C   UNL     1       1.730  11.249  18.568  0.00  0.00    +0.000 A 
ATOM      3  C   UNL     1       1.122  12.501  18.645  0.00  0.00    +0.000 A 
ATOM      4  C   UNL     1      -0.262  12.600  18.749  0.00  0.00    +0.000 A 
ATOM      5  C   UNL     1      -1.068  11.451  18.739  0.00  0.00    +0.000 A 
ATOM      6  C   UNL     1      -0.418  10.186  18.706  0.00  0.00    +0.000 A 
ENDROOT
BRANCH   5   7
ATOM      7  C   UNL     1      -2.547  11.632  18.737  0.00  0.00    +0.000 A 
ATOM      8  N   UNL     1      -3.254  12.024  19.785  0.00  0.00    +0.000 NA
ATOM      9  C   UNL     1      -4.604  12.131  19.468  0.00  0.00    +0.000 A 
ATOM     10  C   UNL     1      -5.655  12.532  20.327  0.00  0.00    +0.000 A 
ATOM     11  C   UNL     1      -6.974  12.572  19.851  0.00  0.00    +0.000 A 
ATOM     12  C   UNL     1      -7.259  12.226  18.534  0.00  0.00    +0.000 A 
ATOM     13  C   UNL     1      -6.236  11.842  17.664  0.00  0.00    +0.000 A 
ATOM     14  C   UNL     1      -4.920  11.799  18.152  0.00  0.00    +0.000 A 
ATOM     15  S   UNL     1      -3.483  11.361  17.321  0.00  0.00    +0.000 S 
ENDBRANCH   5   7
BRANCH   1  18
ATOM     16  C   UNL     1       1.760   8.006  19.841  0.00  0.00    +0.000 C 
ATOM     17  O   UNL     1       1.408   8.360  20.966  0.00  0.00    +0.000 OA
ATOM     18  N   UNL     1       1.596   8.772  18.692  0.00  0.00    +0.000 N 
ATOM     19  H   UNL     1       1.848   8.344  17.808  0.00  0.00    +0.000 HD
BRANCH  16  26
ATOM     20  C   UNL     1       3.295   6.188  18.823  0.00  0.00    +0.000 A 
ATOM     21  C   UNL     1       3.724   4.861  18.943  0.00  0.00    +0.000 A 
ATOM     22  N   UNL     1       3.271   3.974  19.853  0.00  0.00    +0.000 NA
ATOM     23  C   UNL     1       2.348   4.421  20.718  0.00  0.00    +0.000 A 
ATOM     24  F   UNL     1       1.857   3.555  21.614  0.00  0.00    +0.000 F 
ATOM     25  C   UNL     1       1.884   5.716  20.721  0.00  0.00    +0.000 A 
ATOM     26  C   UNL     1       2.360   6.634  19.763  0.00  0.00    +0.000 A 
BRANCH  20  28
ATOM     27  C   UNL     1       4.650   6.444  16.923  0.00  0.00    +0.000 C 
ATOM     28  O   UNL     1       3.764   7.048  17.869  0.00  0.00    +0.000 OA
ENDBRANCH  20  28
ENDBRANCH  16  26
ENDBRANCH   1  18
TORSDOF 4
ENDMDL
