MODEL 1
REMARK VINA RESULT:      -8.1      0.000      0.000
REMARK  Name = 
REMARK  7 active torsions:
REMARK  status: ('A' for Active; 'I' for Inactive)
REMARK    1  A    between atoms: C_1  and  O_2
REMARK    2  A    between atoms: O_2  and  C_3
REMARK    3  A    between atoms: C_6  and  C_7
REMARK    4  A    between atoms: N_9  and  C_10
REMARK    5  A    between atoms: C_10  and  C_11
REMARK    6  A    between atoms: C_21  and  S_22
REMARK    7  A    between atoms: S_22  and  N_25
REMARK                            x       y       z     vdW  Elec       q    Type
REMARK                         _______ _______ _______ _____ _____    ______ ____
ROOT
ATOM      1  C   UNL     1       3.075   4.079  19.359  0.00  0.00    +0.000 A 
ATOM      2  C   UNL     1       2.169   4.278  20.424  0.00  0.00    +0.000 A 
ATOM      3  C   UNL     1       1.684   5.548  20.758  0.00  0.00    +0.000 A 
ATOM      4  C   UNL     1       2.128   6.664  20.059  0.00  0.00    +0.000 A 
ATOM      5  C   UNL     1       3.012   6.484  18.999  0.00  0.00    +0.000 A 
ATOM      6  C   UNL     1       3.483   5.201  18.637  0.00  0.00    +0.000 A 
ENDROOT
BRANCH   4   7
ATOM      7  C   UNL     1       1.621   8.009  20.432  0.00  0.00    +0.000 C 
ATOM      8  O   UNL     1       1.428   8.290  21.608  0.00  0.00    +0.000 OA
ATOM      9  N   UNL     1       1.426   8.883  19.393  0.00  0.00    +0.000 N 
ATOM     10  H   UNL     1       1.787   8.689  18.466  0.00  0.00    +0.000 HD
BRANCH   9  11
ATOM     11  C   UNL     1       0.998  10.242  19.619  0.00  0.00    +0.000 C 
BRANCH  11  12
ATOM     12  C   UNL     1      -0.296  10.437  18.908  0.00  0.00    +0.000 A 
ATOM     13  C   UNL     1      -1.406  11.140  19.329  0.00  0.00    +0.000 A 
ATOM     14  N   UNL     1      -2.331  11.010  18.331  0.00  0.00    +0.000 N 
ATOM     15  C   UNL     1      -3.617  11.542  18.242  0.00  0.00    +0.000 A 
ATOM     16  C   UNL     1      -4.354  11.293  17.148  0.00  0.00    +0.000 A 
ATOM     17  C   UNL     1      -3.786  10.465  16.091  0.00  0.00    +0.000 A 
ATOM     18  C   UNL     1      -2.544   9.949  16.188  0.00  0.00    +0.000 A 
ATOM     19  C   UNL     1      -1.755  10.218  17.345  0.00  0.00    +0.000 A 
ATOM     20  N   UNL     1      -0.533   9.855  17.677  0.00  0.00    +0.000 NA
ENDBRANCH  11  12
ENDBRANCH   9  11
ENDBRANCH   4   7
BRANCH   6  21
ATOM     21  S   UNL     1       4.469   5.262  17.158  0.00  0.00    +0.000 S 
ATOM     22  O   UNL     1       3.907   4.211  16.324  0.00  0.00    +0.000 OA
ATOM     23  O   UNL     1       4.422   6.634  16.705  0.00  0.00    +0.000 OA
BRANCH  21  24
ATOM     24  N   UNL     1       6.106   4.854  17.398  0.00  0.00    +0.000 NA
ATOM     25  C   UNL     1       6.500   4.513  18.789  0.00  0.00    +0.000 C 
ATOM     26  C   UNL     1       6.997   5.825  19.378  0.00  0.00    +0.000 C 
ATOM     27  C   UNL     1       7.737   6.465  18.224  0.00  0.00    +0.000 C 
ATOM     28  C   UNL     1       7.035   5.959  16.969  0.00  0.00    +0.000 C 
ENDBRANCH  21  24
ENDBRANCH   6  21
BRANCH   1  30
ATOM     29  C   UNL     1       2.603   1.865  18.625  0.00  0.00    +0.000 C 
ATOM     30  O   UNL     1       3.562   2.845  19.033  0.00  0.00    +0.000 OA
ENDBRANCH   1  30
TORSDOF 6
ENDMDL
MODEL 2
REMARK VINA RESULT:      -8.1      1.314      1.702
REMARK  Name = 
REMARK  7 active torsions:
REMARK  status: ('A' for Active; 'I' for Inactive)
REMARK    1  A    between atoms: C_1  and  O_2
REMARK    2  A    between atoms: O_2  and  C_3
REMARK    3  A    between atoms: C_6  and  C_7
REMARK    4  A    between atoms: N_9  and  C_10
REMARK    5  A    between atoms: C_10  and  C_11
REMARK    6  A    between atoms: C_21  and  S_22
REMARK    7  A    between atoms: S_22  and  N_25
REMARK                            x       y       z     vdW  Elec       q    Type
REMARK                         _______ _______ _______ _____ _____    ______ ____
ROOT
ATOM      1  C   UNL     1       3.105   4.069  19.467  0.00  0.00    +0.000 A 
ATOM      2  C   UNL     1       1.801   4.216  19.991  0.00  0.00    +0.000 A 
ATOM      3  C   UNL     1       1.274   5.469  20.327  0.00  0.00    +0.000 A 
ATOM      4  C   UNL     1       2.056   6.608  20.188  0.00  0.00    +0.000 A 
ATOM      5  C   UNL     1       3.339   6.483  19.663  0.00  0.00    +0.000 A 
ATOM      6  C   UNL     1       3.868   5.224  19.293  0.00  0.00    +0.000 A 
ENDROOT
BRANCH   4   7
ATOM      7  C   UNL     1       1.494   7.931  20.563  0.00  0.00    +0.000 C 
ATOM      8  O   UNL     1       1.121   8.138  21.711  0.00  0.00    +0.000 OA
ATOM      9  N   UNL     1       1.459   8.871  19.565  0.00  0.00    +0.000 N 
ATOM     10  H   UNL     1       1.959   8.734  18.694  0.00  0.00    +0.000 HD
BRANCH   9  11
ATOM     11  C   UNL     1       0.999  10.216  19.809  0.00  0.00    +0.000 C 
BRANCH  11  12
ATOM     12  C   UNL     1      -0.266  10.410  19.047  0.00  0.00    +0.000 A 
ATOM     13  C   UNL     1      -1.383  11.134  19.411  0.00  0.00    +0.000 A 
ATOM     14  N   UNL     1      -2.272  10.993  18.382  0.00  0.00    +0.000 N 
ATOM     15  C   UNL     1      -3.547  11.536  18.234  0.00  0.00    +0.000 A 
ATOM     16  C   UNL     1      -4.246  11.272  17.118  0.00  0.00    +0.000 A 
ATOM     17  C   UNL     1      -3.648  10.416  16.101  0.00  0.00    +0.000 A 
ATOM     18  C   UNL     1      -2.418   9.888  16.255  0.00  0.00    +0.000 A 
ATOM     19  C   UNL     1      -1.669  10.173  17.434  0.00  0.00    +0.000 A 
ATOM     20  N   UNL     1      -0.465   9.804  17.820  0.00  0.00    +0.000 NA
ENDBRANCH  11  12
ENDBRANCH   9  11
ENDBRANCH   4   7
BRANCH   6  21
ATOM     21  S   UNL     1       5.457   5.389  18.511  0.00  0.00    +0.000 S 
ATOM     22  O   UNL     1       5.370   6.662  17.814  0.00  0.00    +0.000 OA
ATOM     23  O   UNL     1       6.437   5.215  19.560  0.00  0.00    +0.000 OA
BRANCH  21  24
ATOM     24  N   UNL     1       5.767   4.214  17.317  0.00  0.00    +0.000 NA
ATOM     25  C   UNL     1       7.110   4.260  16.682  0.00  0.00    +0.000 C 
ATOM     26  C   UNL     1       6.917   5.115  15.439  0.00  0.00    +0.000 C 
ATOM     27  C   UNL     1       5.553   4.694  14.937  0.00  0.00    +0.000 C 
ATOM     28  C   UNL     1       4.778   4.282  16.183  0.00  0.00    +0.000 C 
ENDBRANCH  21  24
ENDBRANCH   6  21
BRANCH   1  30
ATOM     29  C   UNL     1       4.407   2.201  20.158  0.00  0.00    +0.000 C 
ATOM     30  O   UNL     1       3.632   2.850  19.147  0.00  0.00    +0.000 OA
ENDBRANCH   1  30
TORSDOF 6
ENDMDL
MODEL 3
REMARK VINA RESULT:      -8.0      1.278      1.962
REMARK  Name = 
REMARK  7 active torsions:
REMARK  status: ('A' for Active; 'I' for Inactive)
REMARK    1  A    between atoms: C_1  and  O_2
REMARK    2  A    between atoms: O_2  and  C_3
REMARK    3  A    between atoms: C_6  and  C_7
REMARK    4  A    between atoms: N_9  and  C_10
REMARK    5  A    between atoms: C_10  and  C_11
REMARK    6  A    between atoms: C_21  and  S_22
REMARK    7  A    between atoms: S_22  and  N_25
REMARK                            x       y       z     vdW  Elec       q    Type
REMARK                         _______ _______ _______ _____ _____    ______ ____
ROOT
ATOM      1  C   UNL     1       3.364   4.199  19.385  0.00  0.00    +0.000 A 
ATOM      2  C   UNL     1       2.158   4.244  20.119  0.00  0.00    +0.000 A 
ATOM      3  C   UNL     1       1.545   5.455  20.465  0.00  0.00    +0.000 A 
ATOM      4  C   UNL     1       2.147   6.658  20.120  0.00  0.00    +0.000 A 
ATOM      5  C   UNL     1       3.330   6.632  19.386  0.00  0.00    +0.000 A 
ATOM      6  C   UNL     1       3.939   5.412  19.008  0.00  0.00    +0.000 A 
ENDROOT
BRANCH   4   7
ATOM      7  C   UNL     1       1.498   7.937  20.505  0.00  0.00    +0.000 C 
ATOM      8  O   UNL     1       1.089   8.099  21.647  0.00  0.00    +0.000 OA
ATOM      9  N   UNL     1       1.427   8.891  19.522  0.00  0.00    +0.000 N 
ATOM     10  H   UNL     1       1.953   8.801  18.660  0.00  0.00    +0.000 HD
BRANCH   9  11
ATOM     11  C   UNL     1       0.880  10.201  19.779  0.00  0.00    +0.000 C 
BRANCH  11  12
ATOM     12  C   UNL     1      -0.336  10.361  18.933  0.00  0.00    +0.000 A 
ATOM     13  C   UNL     1      -0.562   9.879  17.661  0.00  0.00    +0.000 A 
ATOM     14  N   UNL     1      -1.817  10.303  17.319  0.00  0.00    +0.000 N 
ATOM     15  C   UNL     1      -2.539  10.075  16.148  0.00  0.00    +0.000 A 
ATOM     16  C   UNL     1      -3.777  10.582  16.033  0.00  0.00    +0.000 A 
ATOM     17  C   UNL     1      -4.322  11.363  17.137  0.00  0.00    +0.000 A 
ATOM     18  C   UNL     1      -3.613  11.585  18.262  0.00  0.00    +0.000 A 
ATOM     19  C   UNL     1      -2.302  11.042  18.392  0.00  0.00    +0.000 A 
ATOM     20  N   UNL     1      -1.422  11.097  19.370  0.00  0.00    +0.000 NA
ENDBRANCH  11  12
ENDBRANCH   9  11
ENDBRANCH   4   7
BRANCH   6  21
ATOM     21  S   UNL     1       5.343   5.686  17.950  0.00  0.00    +0.000 S 
ATOM     22  O   UNL     1       4.889   6.720  17.033  0.00  0.00    +0.000 OA
ATOM     23  O   UNL     1       6.459   5.953  18.830  0.00  0.00    +0.000 OA
BRANCH  21  24
ATOM     24  N   UNL     1       5.756   4.344  16.986  0.00  0.00    +0.000 NA
ATOM     25  C   UNL     1       7.134   4.334  16.429  0.00  0.00    +0.000 C 
ATOM     26  C   UNL     1       6.995   4.967  15.053  0.00  0.00    +0.000 C 
ATOM     27  C   UNL     1       5.677   4.420  14.551  0.00  0.00    +0.000 C 
ATOM     28  C   UNL     1       4.837   4.190  15.803  0.00  0.00    +0.000 C 
ENDBRANCH  21  24
ENDBRANCH   6  21
BRANCH   1  30
ATOM     29  C   UNL     1       3.124   1.957  18.622  0.00  0.00    +0.000 C 
ATOM     30  O   UNL     1       3.975   3.023  19.053  0.00  0.00    +0.000 OA
ENDBRANCH   1  30
TORSDOF 6
ENDMDL
MODEL 4
REMARK VINA RESULT:      -7.9      1.754      2.203
REMARK  Name = 
REMARK  7 active torsions:
REMARK  status: ('A' for Active; 'I' for Inactive)
REMARK    1  A    between atoms: C_1  and  O_2
REMARK    2  A    between atoms: O_2  and  C_3
REMARK    3  A    between atoms: C_6  and  C_7
REMARK    4  A    between atoms: N_9  and  C_10
REMARK    5  A    between atoms: C_10  and  C_11
REMARK    6  A    between atoms: C_21  and  S_22
REMARK    7  A    between atoms: S_22  and  N_25
REMARK                            x       y       z     vdW  Elec       q    Type
REMARK                         _______ _______ _______ _____ _____    ______ ____
ROOT
ATOM      1  C   UNL     1       2.657   4.945  19.975  0.00  0.00    +0.000 A 
ATOM      2  C   UNL     1       1.816   5.876  20.625  0.00  0.00    +0.000 A 
ATOM      3  C   UNL     1       1.598   7.162  20.115  0.00  0.00    +0.000 A 
ATOM      4  C   UNL     1       2.252   7.567  18.958  0.00  0.00    +0.000 A 
ATOM      5  C   UNL     1       3.075   6.658  18.298  0.00  0.00    +0.000 A 
ATOM      6  C   UNL     1       3.277   5.348  18.791  0.00  0.00    +0.000 A 
ENDROOT
BRANCH   4   7
ATOM      7  C   UNL     1       2.027   8.937  18.434  0.00  0.00    +0.000 C 
ATOM      8  O   UNL     1       2.401   9.234  17.305  0.00  0.00    +0.000 OA
ATOM      9  N   UNL     1       1.366   9.798  19.272  0.00  0.00    +0.000 N 
ATOM     10  H   UNL     1       0.895   9.465  20.106  0.00  0.00    +0.000 HD
BRANCH   9  11
ATOM     11  C   UNL     1       1.025  11.139  18.864  0.00  0.00    +0.000 C 
BRANCH  11  12
ATOM     12  C   UNL     1      -0.460  11.225  18.776  0.00  0.00    +0.000 A 
ATOM     13  C   UNL     1      -1.314  12.041  19.489  0.00  0.00    +0.000 A 
ATOM     14  N   UNL     1      -2.573  11.735  19.053  0.00  0.00    +0.000 N 
ATOM     15  C   UNL     1      -3.798  12.281  19.435  0.00  0.00    +0.000 A 
ATOM     16  C   UNL     1      -4.924  11.832  18.857  0.00  0.00    +0.000 A 
ATOM     17  C   UNL     1      -4.826  10.780  17.853  0.00  0.00    +0.000 A 
ATOM     18  C   UNL     1      -3.638  10.252  17.496  0.00  0.00    +0.000 A 
ATOM     19  C   UNL     1      -2.441  10.731  18.101  0.00  0.00    +0.000 A 
ATOM     20  N   UNL     1      -1.177  10.404  17.925  0.00  0.00    +0.000 NA
ENDBRANCH  11  12
ENDBRANCH   9  11
ENDBRANCH   4   7
BRANCH   6  21
ATOM     21  S   UNL     1       4.244   4.370  17.664  0.00  0.00    +0.000 S 
ATOM     22  O   UNL     1       5.347   3.889  18.481  0.00  0.00    +0.000 OA
ATOM     23  O   UNL     1       3.328   3.421  17.072  0.00  0.00    +0.000 OA
BRANCH  21  24
ATOM     24  N   UNL     1       4.948   5.266  16.397  0.00  0.00    +0.000 NA
ATOM     25  C   UNL     1       4.991   4.603  15.068  0.00  0.00    +0.000 C 
ATOM     26  C   UNL     1       6.356   3.931  15.020  0.00  0.00    +0.000 C 
ATOM     27  C   UNL     1       7.260   4.935  15.701  0.00  0.00    +0.000 C 
ATOM     28  C   UNL     1       6.369   5.661  16.702  0.00  0.00    +0.000 C 
ENDBRANCH  21  24
ENDBRANCH   6  21
BRANCH   1  30
ATOM     29  C   UNL     1       2.261   3.374  21.718  0.00  0.00    +0.000 C 
ATOM     30  O   UNL     1       2.885   3.693  20.471  0.00  0.00    +0.000 OA
ENDBRANCH   1  30
TORSDOF 6
ENDMDL
MODEL 5
REMARK VINA RESULT:      -7.9      0.669      1.178
REMARK  Name = 
REMARK  7 active torsions:
REMARK  status: ('A' for Active; 'I' for Inactive)
REMARK    1  A    between atoms: C_1  and  O_2
REMARK    2  A    between atoms: O_2  and  C_3
REMARK    3  A    between atoms: C_6  and  C_7
REMARK    4  A    between atoms: N_9  and  C_10
REMARK    5  A    between atoms: C_10  and  C_11
REMARK    6  A    between atoms: C_21  and  S_22
REMARK    7  A    between atoms: S_22  and  N_25
REMARK                            x       y       z     vdW  Elec       q    Type
REMARK                         _______ _______ _______ _____ _____    ______ ____
ROOT
ATOM      1  C   UNL     1       3.073   3.960  19.402  0.00  0.00    +0.000 A 
ATOM      2  C   UNL     1       2.170   4.157  20.470  0.00  0.00    +0.000 A 
ATOM      3  C   UNL     1       1.681   5.426  20.804  0.00  0.00    +0.000 A 
ATOM      4  C   UNL     1       2.118   6.542  20.102  0.00  0.00    +0.000 A 
ATOM      5  C   UNL     1       2.999   6.365  19.038  0.00  0.00    +0.000 A 
ATOM      6  C   UNL     1       3.474   5.083  18.677  0.00  0.00    +0.000 A 
ENDROOT
BRANCH   4   7
ATOM      7  C   UNL     1       1.607   7.886  20.473  0.00  0.00    +0.000 C 
ATOM      8  O   UNL     1       1.425   8.171  21.651  0.00  0.00    +0.000 OA
ATOM      9  N   UNL     1       1.394   8.755  19.433  0.00  0.00    +0.000 N 
ATOM     10  H   UNL     1       1.746   8.559  18.503  0.00  0.00    +0.000 HD
BRANCH   9  11
ATOM     11  C   UNL     1       0.961  10.112  19.658  0.00  0.00    +0.000 C 
BRANCH  11  12
ATOM     12  C   UNL     1      -0.285  10.329  18.871  0.00  0.00    +0.000 A 
ATOM     13  C   UNL     1      -0.582   9.885  17.599  0.00  0.00    +0.000 A 
ATOM     14  N   UNL     1      -1.836  10.354  17.324  0.00  0.00    +0.000 N 
ATOM     15  C   UNL     1      -2.616  10.176  16.182  0.00  0.00    +0.000 A 
ATOM     16  C   UNL     1      -3.842  10.722  16.133  0.00  0.00    +0.000 A 
ATOM     17  C   UNL     1      -4.313  11.493  17.278  0.00  0.00    +0.000 A 
ATOM     18  C   UNL     1      -3.549  11.667  18.375  0.00  0.00    +0.000 A 
ATOM     19  C   UNL     1      -2.251  11.081  18.433  0.00  0.00    +0.000 A 
ATOM     20  N   UNL     1      -1.328  11.086  19.373  0.00  0.00    +0.000 NA
ENDBRANCH  11  12
ENDBRANCH   9  11
ENDBRANCH   4   7
BRANCH   6  21
ATOM     21  S   UNL     1       4.454   5.146  17.194  0.00  0.00    +0.000 S 
ATOM     22  O   UNL     1       3.919   4.067  16.378  0.00  0.00    +0.000 OA
ATOM     23  O   UNL     1       4.371   6.509  16.719  0.00  0.00    +0.000 OA
BRANCH  21  24
ATOM     24  N   UNL     1       6.102   4.785  17.436  0.00  0.00    +0.000 NA
ATOM     25  C   UNL     1       6.553   4.691  18.849  0.00  0.00    +0.000 C 
ATOM     26  C   UNL     1       7.064   6.085  19.181  0.00  0.00    +0.000 C 
ATOM     27  C   UNL     1       7.754   6.514  17.905  0.00  0.00    +0.000 C 
ATOM     28  C   UNL     1       7.007   5.798  16.786  0.00  0.00    +0.000 C 
ENDBRANCH  21  24
ENDBRANCH   6  21
BRANCH   1  30
ATOM     29  C   UNL     1       4.401   2.094  20.047  0.00  0.00    +0.000 C 
ATOM     30  O   UNL     1       3.564   2.728  19.076  0.00  0.00    +0.000 OA
ENDBRANCH   1  30
TORSDOF 6
ENDMDL
MODEL 6
REMARK VINA RESULT:      -7.8      2.129      3.111
REMARK  Name = 
REMARK  7 active torsions:
REMARK  status: ('A' for Active; 'I' for Inactive)
REMARK    1  A    between atoms: C_1  and  O_2
REMARK    2  A    between atoms: O_2  and  C_3
REMARK    3  A    between atoms: C_6  and  C_7
REMARK    4  A    between atoms: N_9  and  C_10
REMARK    5  A    between atoms: C_10  and  C_11
REMARK    6  A    between atoms: C_21  and  S_22
REMARK    7  A    between atoms: S_22  and  N_25
REMARK                            x       y       z     vdW  Elec       q    Type
REMARK                         _______ _______ _______ _____ _____    ______ ____
ROOT
ATOM      1  C   UNL     1       3.937   5.640  18.675  0.00  0.00    +0.000 A 
ATOM      2  C   UNL     1       2.959   6.153  19.555  0.00  0.00    +0.000 A 
ATOM      3  C   UNL     1       2.289   7.357  19.300  0.00  0.00    +0.000 A 
ATOM      4  C   UNL     1       2.613   8.103  18.174  0.00  0.00    +0.000 A 
ATOM      5  C   UNL     1       3.567   7.606  17.290  0.00  0.00    +0.000 A 
ATOM      6  C   UNL     1       4.225   6.376  17.526  0.00  0.00    +0.000 A 
ENDROOT
BRANCH   4   7
ATOM      7  C   UNL     1       1.910   9.386  17.921  0.00  0.00    +0.000 C 
ATOM      8  O   UNL     1       2.531  10.356  17.506  0.00  0.00    +0.000 OA
ATOM      9  N   UNL     1       0.558   9.383  18.150  0.00  0.00    +0.000 N 
ATOM     10  H   UNL     1       0.049   8.517  18.293  0.00  0.00    +0.000 HD
BRANCH   9  11
ATOM     11  C   UNL     1      -0.257  10.543  17.883  0.00  0.00    +0.000 C 
BRANCH  11  12
ATOM     12  C   UNL     1      -0.835  11.002  19.177  0.00  0.00    +0.000 A 
ATOM     13  C   UNL     1      -1.865  11.895  19.385  0.00  0.00    +0.000 A 
ATOM     14  N   UNL     1      -2.010  11.990  20.741  0.00  0.00    +0.000 N 
ATOM     15  C   UNL     1      -2.920  12.740  21.483  0.00  0.00    +0.000 A 
ATOM     16  C   UNL     1      -2.889  12.668  22.824  0.00  0.00    +0.000 A 
ATOM     17  C   UNL     1      -1.896  11.811  23.459  0.00  0.00    +0.000 A 
ATOM     18  C   UNL     1      -1.014  11.094  22.733  0.00  0.00    +0.000 A 
ATOM     19  C   UNL     1      -1.049  11.161  21.310  0.00  0.00    +0.000 A 
ATOM     20  N   UNL     1      -0.325  10.564  20.386  0.00  0.00    +0.000 NA
ENDBRANCH  11  12
ENDBRANCH   9  11
ENDBRANCH   4   7
BRANCH   6  21
ATOM     21  S   UNL     1       5.268   5.923  16.157  0.00  0.00    +0.000 S 
ATOM     22  O   UNL     1       4.986   4.510  15.960  0.00  0.00    +0.000 OA
ATOM     23  O   UNL     1       4.971   6.865  15.101  0.00  0.00    +0.000 OA
BRANCH  21  24
ATOM     24  N   UNL     1       6.936   6.033  16.491  0.00  0.00    +0.000 NA
ATOM     25  C   UNL     1       7.603   4.778  16.923  0.00  0.00    +0.000 C 
ATOM     26  C   UNL     1       7.547   4.818  18.443  0.00  0.00    +0.000 C 
ATOM     27  C   UNL     1       7.791   6.277  18.760  0.00  0.00    +0.000 C 
ATOM     28  C   UNL     1       7.234   7.045  17.567  0.00  0.00    +0.000 C 
ENDBRANCH  21  24
ENDBRANCH   6  21
BRANCH   1  30
ATOM     29  C   UNL     1       3.855   3.428  19.549  0.00  0.00    +0.000 C 
ATOM     30  O   UNL     1       4.603   4.473  18.921  0.00  0.00    +0.000 OA
ENDBRANCH   1  30
TORSDOF 6
ENDMDL
MODEL 7
REMARK VINA RESULT:      -7.8      1.905      3.268
REMARK  Name = 
REMARK  7 active torsions:
REMARK  status: ('A' for Active; 'I' for Inactive)
REMARK    1  A    between atoms: C_1  and  O_2
REMARK    2  A    between atoms: O_2  and  C_3
REMARK    3  A    between atoms: C_6  and  C_7
REMARK    4  A    between atoms: N_9  and  C_10
REMARK    5  A    between atoms: C_10  and  C_11
REMARK    6  A    between atoms: C_21  and  S_22
REMARK    7  A    between atoms: S_22  and  N_25
REMARK                            x       y       z     vdW  Elec       q    Type
REMARK                         _______ _______ _______ _____ _____    ______ ____
ROOT
ATOM      1  C   UNL     1       4.077   5.051  17.080  0.00  0.00    +0.000 A 
ATOM      2  C   UNL     1       4.562   6.367  17.246  0.00  0.00    +0.000 A 
ATOM      3  C   UNL     1       3.874   7.321  18.007  0.00  0.00    +0.000 A 
ATOM      4  C   UNL     1       2.657   6.993  18.590  0.00  0.00    +0.000 A 
ATOM      5  C   UNL     1       2.170   5.697  18.446  0.00  0.00    +0.000 A 
ATOM      6  C   UNL     1       2.873   4.720  17.704  0.00  0.00    +0.000 A 
ENDROOT
BRANCH   4   7
ATOM      7  C   UNL     1       1.927   8.016  19.381  0.00  0.00    +0.000 C 
ATOM      8  O   UNL     1       1.755   7.857  20.583  0.00  0.00    +0.000 OA
ATOM      9  N   UNL     1       1.506   9.122  18.687  0.00  0.00    +0.000 N 
ATOM     10  H   UNL     1       1.840   9.314  17.750  0.00  0.00    +0.000 HD
BRANCH   9  11
ATOM     11  C   UNL     1       0.842  10.220  19.345  0.00  0.00    +0.000 C 
BRANCH  11  12
ATOM     12  C   UNL     1      -0.450  10.458  18.645  0.00  0.00    +0.000 A 
ATOM     13  C   UNL     1      -1.529  11.206  19.070  0.00  0.00    +0.000 A 
ATOM     14  N   UNL     1      -2.468  11.102  18.081  0.00  0.00    +0.000 N 
ATOM     15  C   UNL     1      -3.733  11.681  17.999  0.00  0.00    +0.000 A 
ATOM     16  C   UNL     1      -4.490  11.451  16.913  0.00  0.00    +0.000 A 
ATOM     17  C   UNL     1      -3.962  10.594  15.858  0.00  0.00    +0.000 A 
ATOM     18  C   UNL     1      -2.740  10.032  15.949  0.00  0.00    +0.000 A 
ATOM     19  C   UNL     1      -1.931  10.281  17.096  0.00  0.00    +0.000 A 
ATOM     20  N   UNL     1      -0.721   9.875  17.420  0.00  0.00    +0.000 NA
ENDBRANCH  11  12
ENDBRANCH   9  11
ENDBRANCH   4   7
BRANCH   6  21
ATOM     21  S   UNL     1       2.096   3.125  17.825  0.00  0.00    +0.000 S 
ATOM     22  O   UNL     1       0.674   3.432  17.824  0.00  0.00    +0.000 OA
ATOM     23  O   UNL     1       2.655   2.327  16.757  0.00  0.00    +0.000 OA
BRANCH  21  24
ATOM     24  N   UNL     1       2.405   2.313  19.291  0.00  0.00    +0.000 NA
ATOM     25  C   UNL     1       1.249   2.154  20.211  0.00  0.00    +0.000 C 
ATOM     26  C   UNL     1       1.334   3.353  21.143  0.00  0.00    +0.000 C 
ATOM     27  C   UNL     1       2.821   3.508  21.374  0.00  0.00    +0.000 C 
ATOM     28  C   UNL     1       3.480   2.991  20.100  0.00  0.00    +0.000 C 
ENDBRANCH  21  24
ENDBRANCH   6  21
BRANCH   1  30
ATOM     29  C   UNL     1       5.922   4.552  15.663  0.00  0.00    +0.000 C 
ATOM     30  O   UNL     1       4.735   4.117  16.331  0.00  0.00    +0.000 OA
ENDBRANCH   1  30
TORSDOF 6
ENDMDL
MODEL 8
REMARK VINA RESULT:      -7.8      1.816      2.468
REMARK  Name = 
REMARK  7 active torsions:
REMARK  status: ('A' for Active; 'I' for Inactive)
REMARK    1  A    between atoms: C_1  and  O_2
REMARK    2  A    between atoms: O_2  and  C_3
REMARK    3  A    between atoms: C_6  and  C_7
REMARK    4  A    between atoms: N_9  and  C_10
REMARK    5  A    between atoms: C_10  and  C_11
REMARK    6  A    between atoms: C_21  and  S_22
REMARK    7  A    between atoms: S_22  and  N_25
REMARK                            x       y       z     vdW  Elec       q    Type
REMARK                         _______ _______ _______ _____ _____    ______ ____
ROOT
ATOM      1  C   UNL     1       2.690   5.095  20.045  0.00  0.00    +0.000 A 
ATOM      2  C   UNL     1       1.882   6.040  20.714  0.00  0.00    +0.000 A 
ATOM      3  C   UNL     1       1.616   7.304  20.173  0.00  0.00    +0.000 A 
ATOM      4  C   UNL     1       2.190   7.673  18.964  0.00  0.00    +0.000 A 
ATOM      5  C   UNL     1       2.980   6.750  18.284  0.00  0.00    +0.000 A 
ATOM      6  C   UNL     1       3.228   5.460  18.810  0.00  0.00    +0.000 A 
ENDROOT
BRANCH   4   7
ATOM      7  C   UNL     1       1.916   9.022  18.406  0.00  0.00    +0.000 C 
ATOM      8  O   UNL     1       2.261   9.298  17.264  0.00  0.00    +0.000 OA
ATOM      9  N   UNL     1       1.244   9.886  19.233  0.00  0.00    +0.000 N 
ATOM     10  H   UNL     1       0.797   9.562  20.083  0.00  0.00    +0.000 HD
BRANCH   9  11
ATOM     11  C   UNL     1       0.857  11.205  18.795  0.00  0.00    +0.000 C 
BRANCH  11  12
ATOM     12  C   UNL     1      -0.630  11.237  18.704  0.00  0.00    +0.000 A 
ATOM     13  C   UNL     1      -1.451  10.514  17.864  0.00  0.00    +0.000 A 
ATOM     14  N   UNL     1      -2.727  10.908  18.159  0.00  0.00    +0.000 N 
ATOM     15  C   UNL     1      -3.935  10.474  17.615  0.00  0.00    +0.000 A 
ATOM     16  C   UNL     1      -5.085  10.995  18.073  0.00  0.00    +0.000 A 
ATOM     17  C   UNL     1      -5.029  12.007  19.121  0.00  0.00    +0.000 A 
ATOM     18  C   UNL     1      -3.855  12.427  19.636  0.00  0.00    +0.000 A 
ATOM     19  C   UNL     1      -2.634  11.870  19.158  0.00  0.00    +0.000 A 
ATOM     20  N   UNL     1      -1.379  12.089  19.494  0.00  0.00    +0.000 NA
ENDBRANCH  11  12
ENDBRANCH   9  11
ENDBRANCH   4   7
BRANCH   6  21
ATOM     21  S   UNL     1       4.134   4.451  17.659  0.00  0.00    +0.000 S 
ATOM     22  O   UNL     1       5.217   3.901  18.458  0.00  0.00    +0.000 OA
ATOM     23  O   UNL     1       3.163   3.561  17.061  0.00  0.00    +0.000 OA
BRANCH  21  24
ATOM     24  N   UNL     1       4.871   5.330  16.399  0.00  0.00    +0.000 NA
ATOM     25  C   UNL     1       5.040   4.612  15.109  0.00  0.00    +0.000 C 
ATOM     26  C   UNL     1       6.439   4.018  15.181  0.00  0.00    +0.000 C 
ATOM     27  C   UNL     1       7.240   5.101  15.871  0.00  0.00    +0.000 C 
ATOM     28  C   UNL     1       6.245   5.818  16.777  0.00  0.00    +0.000 C 
ENDBRANCH  21  24
ENDBRANCH   6  21
BRANCH   1  30
ATOM     29  C   UNL     1       2.065   3.379  21.570  0.00  0.00    +0.000 C 
ATOM     30  O   UNL     1       2.964   3.863  20.569  0.00  0.00    +0.000 OA
ENDBRANCH   1  30
TORSDOF 6
ENDMDL
MODEL 9
REMARK VINA RESULT:      -7.8      1.596      3.427
REMARK  Name = 
REMARK  7 active torsions:
REMARK  status: ('A' for Active; 'I' for Inactive)
REMARK    1  A    between atoms: C_1  and  O_2
REMARK    2  A    between atoms: O_2  and  C_3
REMARK    3  A    between atoms: C_6  and  C_7
REMARK    4  A    between atoms: N_9  and  C_10
REMARK    5  A    between atoms: C_10  and  C_11
REMARK    6  A    between atoms: C_21  and  S_22
REMARK    7  A    between atoms: S_22  and  N_25
REMARK                            x       y       z     vdW  Elec       q    Type
REMARK                         _______ _______ _______ _____ _____    ______ ____
ROOT
ATOM      1  C   UNL     1       4.348   5.859  17.556  0.00  0.00    +0.000 A 
ATOM      2  C   UNL     1       4.058   7.180  17.149  0.00  0.00    +0.000 A 
ATOM      3  C   UNL     1       3.178   8.000  17.867  0.00  0.00    +0.000 A 
ATOM      4  C   UNL     1       2.531   7.504  18.991  0.00  0.00    +0.000 A 
ATOM      5  C   UNL     1       2.815   6.207  19.413  0.00  0.00    +0.000 A 
ATOM      6  C   UNL     1       3.725   5.383  18.709  0.00  0.00    +0.000 A 
ENDROOT
BRANCH   4   7
ATOM      7  C   UNL     1       1.588   8.375  19.736  0.00  0.00    +0.000 C 
ATOM      8  O   UNL     1       1.190   8.044  20.846  0.00  0.00    +0.000 OA
ATOM      9  N   UNL     1       1.240   9.548  19.116  0.00  0.00    +0.000 N 
ATOM     10  H   UNL     1       1.741   9.883  18.301  0.00  0.00    +0.000 HD
BRANCH   9  11
ATOM     11  C   UNL     1       0.383  10.516  19.756  0.00  0.00    +0.000 C 
BRANCH  11  12
ATOM     12  C   UNL     1      -0.825  10.690  18.902  0.00  0.00    +0.000 A 
ATOM     13  C   UNL     1      -1.989  11.372  19.194  0.00  0.00    +0.000 A 
ATOM     14  N   UNL     1      -2.791  11.228  18.097  0.00  0.00    +0.000 N 
ATOM     15  C   UNL     1      -4.068  11.737  17.862  0.00  0.00    +0.000 A 
ATOM     16  C   UNL     1      -4.671  11.478  16.691  0.00  0.00    +0.000 A 
ATOM     17  C   UNL     1      -3.971  10.663  15.705  0.00  0.00    +0.000 A 
ATOM     18  C   UNL     1      -2.739  10.169  15.943  0.00  0.00    +0.000 A 
ATOM     19  C   UNL     1      -2.093  10.449  17.182  0.00  0.00    +0.000 A 
ATOM     20  N   UNL     1      -0.910  10.107  17.651  0.00  0.00    +0.000 NA
ENDBRANCH  11  12
ENDBRANCH   9  11
ENDBRANCH   4   7
BRANCH   6  21
ATOM     21  S   UNL     1       4.006   3.848  19.563  0.00  0.00    +0.000 S 
ATOM     22  O   UNL     1       5.420   3.586  19.348  0.00  0.00    +0.000 OA
ATOM     23  O   UNL     1       3.513   4.044  20.908  0.00  0.00    +0.000 OA
BRANCH  21  24
ATOM     24  N   UNL     1       3.170   2.521  18.896  0.00  0.00    +0.000 NA
ATOM     25  C   UNL     1       2.550   2.738  17.564  0.00  0.00    +0.000 C 
ATOM     26  C   UNL     1       1.123   3.167  17.871  0.00  0.00    +0.000 C 
ATOM     27  C   UNL     1       0.748   2.301  19.054  0.00  0.00    +0.000 C 
ATOM     28  C   UNL     1       2.057   2.043  19.791  0.00  0.00    +0.000 C 
ENDBRANCH  21  24
ENDBRANCH   6  21
BRANCH   1  30
ATOM     29  C   UNL     1       6.484   5.585  16.542  0.00  0.00    +0.000 C 
ATOM     30  O   UNL     1       5.196   5.047  16.856  0.00  0.00    +0.000 OA
ENDBRANCH   1  30
TORSDOF 6
ENDMDL
