MODEL 1
REMARK VINA RESULT:      -8.1      0.000      0.000
REMARK  Name = 
REMARK  9 active torsions:
REMARK  status: ('A' for Active; 'I' for Inactive)
REMARK    1  A    between atoms: C_1  and  C_2
REMARK    2  A    between atoms: C_6  and  C_7
REMARK    3  A    between atoms: C_10  and  S_11
REMARK    4  A    between atoms: S_11  and  C_12
REMARK    5  A    between atoms: C_12  and  C_13
REMARK    6  A    between atoms: N_15  and  C_16
REMARK    7  A    between atoms: C_20  and  C_21
REMARK    8  A    between atoms: N_26  and  C_27
REMARK    9  A    between atoms: C_27  and  C_28
REMARK                            x       y       z     vdW  Elec       q    Type
REMARK                         _______ _______ _______ _____ _____    ______ ____
ROOT
ATOM      1  C   UNL     1       4.391   6.626  17.169  0.00  0.00    +0.000 A 
ATOM      2  N   UNL     1       4.023   7.693  16.476  0.00  0.00    +0.000 NA
ATOM      3  N   UNL     1       3.026   8.362  17.157  0.00  0.00    +0.000 NA
ATOM      4  C   UNL     1       2.809   7.710  18.273  0.00  0.00    +0.000 A 
ATOM      5  N   UNL     1       3.681   6.637  18.361  0.00  0.00    +0.000 N 
ENDROOT
BRANCH   1  11
ATOM      6  C   UNL     1       7.576   6.404  17.936  0.00  0.00    +0.000 C 
ATOM      7  C   UNL     1       6.739   5.621  16.999  0.00  0.00    +0.000 A 
ATOM      8  O   UNL     1       7.410   4.644  16.321  0.00  0.00    +0.000 OA
ATOM      9  C   UNL     1       6.504   4.019  15.528  0.00  0.00    +0.000 A 
ATOM     10  C   UNL     1       5.262   4.582  15.690  0.00  0.00    +0.000 A 
ATOM     11  C   UNL     1       5.400   5.637  16.635  0.00  0.00    +0.000 A 
ENDBRANCH   1  11
BRANCH   4  12
ATOM     12  S   UNL     1       1.605   8.122  19.467  0.00  0.00    +0.000 S 
BRANCH  12  13
ATOM     13  C   UNL     1       1.230   9.881  19.114  0.00  0.00    +0.000 C 
BRANCH  13  14
ATOM     14  C   UNL     1      -0.226  10.229  19.495  0.00  0.00    +0.000 C 
ATOM     15  O   UNL     1      -0.706   9.907  20.581  0.00  0.00    +0.000 OA
ATOM     16  N   UNL     1      -0.940  10.898  18.506  0.00  0.00    +0.000 N 
ATOM     17  H   UNL     1      -0.658  10.746  17.544  0.00  0.00    +0.000 HD
BRANCH  16  18
ATOM     18  C   UNL     1      -2.264  11.290  18.679  0.00  0.00    +0.000 A 
ATOM     19  S   UNL     1      -3.340  10.447  17.624  0.00  0.00    +0.000 S 
ATOM     20  C   UNL     1      -4.664  11.208  18.312  0.00  0.00    +0.000 A 
ATOM     21  C   UNL     1      -4.335  12.167  19.227  0.00  0.00    +0.000 A 
ATOM     22  C   UNL     1      -2.928  12.216  19.476  0.00  0.00    +0.000 A 
ATOM     23  C   UNL     1      -5.546  12.901  19.692  0.00  0.00    +0.000 C 
ATOM     24  C   UNL     1      -6.719  12.201  18.929  0.00  0.00    +0.000 C 
ATOM     25  C   UNL     1      -6.116  11.057  18.059  0.00  0.00    +0.000 C 
BRANCH  22  26
ATOM     26  C   UNL     1      -2.303  13.172  20.343  0.00  0.00    +0.000 C 
ATOM     27  N   UNL     1      -1.719  13.895  21.039  0.00  0.00    +0.000 NA
ENDBRANCH  22  26
ENDBRANCH  16  18
ENDBRANCH  13  14
ENDBRANCH  12  13
ENDBRANCH   4  12
BRANCH   5  28
ATOM     28  C   UNL     1       3.824   5.724  19.483  0.00  0.00    +0.000 C 
BRANCH  28  29
ATOM     29  C   UNL     1       2.776   4.630  19.536  0.00  0.00    +0.000 A 
ATOM     30  C   UNL     1       2.080   4.308  20.712  0.00  0.00    +0.000 A 
ATOM     31  C   UNL     1       1.087   3.325  20.714  0.00  0.00    +0.000 A 
ATOM     32  C   UNL     1       0.759   2.658  19.538  0.00  0.00    +0.000 A 
ATOM     33  C   UNL     1       1.414   2.983  18.353  0.00  0.00    +0.000 A 
ATOM     34  C   UNL     1       2.410   3.966  18.351  0.00  0.00    +0.000 A 
ENDBRANCH  28  29
ENDBRANCH   5  28
TORSDOF 8
ENDMDL
MODEL 2
REMARK VINA RESULT:      -8.0      5.056      9.389
REMARK  Name = 
REMARK  9 active torsions:
REMARK  status: ('A' for Active; 'I' for Inactive)
REMARK    1  A    between atoms: C_1  and  C_2
REMARK    2  A    between atoms: C_6  and  C_7
REMARK    3  A    between atoms: C_10  and  S_11
REMARK    4  A    between atoms: S_11  and  C_12
REMARK    5  A    between atoms: C_12  and  C_13
REMARK    6  A    between atoms: N_15  and  C_16
REMARK    7  A    between atoms: C_20  and  C_21
REMARK    8  A    between atoms: N_26  and  C_27
REMARK    9  A    between atoms: C_27  and  C_28
REMARK                            x       y       z     vdW  Elec       q    Type
REMARK                         _______ _______ _______ _____ _____    ______ ____
ROOT
ATOM      1  C   UNL     1       4.599   4.661  19.140  0.00  0.00    +0.000 A 
ATOM      2  N   UNL     1       5.761   4.473  19.747  0.00  0.00    +0.000 NA
ATOM      3  N   UNL     1       6.683   5.381  19.268  0.00  0.00    +0.000 NA
ATOM      4  C   UNL     1       6.070   6.133  18.387  0.00  0.00    +0.000 A 
ATOM      5  N   UNL     1       4.738   5.762  18.306  0.00  0.00    +0.000 N 
ENDROOT
BRANCH   1  11
ATOM      6  C   UNL     1       2.924   2.917  16.919  0.00  0.00    +0.000 C 
ATOM      7  C   UNL     1       2.748   3.064  18.382  0.00  0.00    +0.000 A 
ATOM      8  O   UNL     1       1.696   2.364  18.899  0.00  0.00    +0.000 OA
ATOM      9  C   UNL     1       1.689   2.592  20.237  0.00  0.00    +0.000 A 
ATOM     10  C   UNL     1       2.722   3.428  20.582  0.00  0.00    +0.000 A 
ATOM     11  C   UNL     1       3.415   3.755  19.383  0.00  0.00    +0.000 A 
ENDBRANCH   1  11
BRANCH   4  12
ATOM     12  S   UNL     1       6.813   7.406  17.452  0.00  0.00    +0.000 S 
BRANCH  12  13
ATOM     13  C   UNL     1       8.356   7.772  18.370  0.00  0.00    +0.000 C 
BRANCH  13  14
ATOM     14  C   UNL     1       8.535   9.292  18.578  0.00  0.00    +0.000 C 
ATOM     15  O   UNL     1       8.022  10.115  17.821  0.00  0.00    +0.000 OA
ATOM     16  N   UNL     1       9.338   9.639  19.660  0.00  0.00    +0.000 N 
ATOM     17  H   UNL     1      10.043   8.971  19.950  0.00  0.00    +0.000 HD
BRANCH  16  18
ATOM     18  C   UNL     1       9.605  10.963  19.996  0.00  0.00    +0.000 A 
ATOM     19  S   UNL     1       8.765  11.461  21.419  0.00  0.00    +0.000 S 
ATOM     20  C   UNL     1       9.501  12.964  21.369  0.00  0.00    +0.000 A 
ATOM     21  C   UNL     1      10.269  13.165  20.258  0.00  0.00    +0.000 A 
ATOM     22  C   UNL     1      10.364  11.992  19.446  0.00  0.00    +0.000 A 
ATOM     23  C   UNL     1      10.776  14.566  20.203  0.00  0.00    +0.000 C 
ATOM     24  C   UNL     1      10.218  15.213  21.515  0.00  0.00    +0.000 C 
ATOM     25  C   UNL     1       9.418  14.123  22.290  0.00  0.00    +0.000 C 
BRANCH  22  26
ATOM     26  C   UNL     1      11.054  11.942  18.190  0.00  0.00    +0.000 C 
ATOM     27  N   UNL     1      11.576  11.816  17.161  0.00  0.00    +0.000 NA
ENDBRANCH  22  26
ENDBRANCH  16  18
ENDBRANCH  13  14
ENDBRANCH  12  13
ENDBRANCH   4  12
BRANCH   5  28
ATOM     28  C   UNL     1       3.703   6.407  17.516  0.00  0.00    +0.000 C 
BRANCH  28  29
ATOM     29  C   UNL     1       2.786   7.317  18.310  0.00  0.00    +0.000 A 
ATOM     30  C   UNL     1       2.453   7.069  19.650  0.00  0.00    +0.000 A 
ATOM     31  C   UNL     1       1.642   7.953  20.366  0.00  0.00    +0.000 A 
ATOM     32  C   UNL     1       1.163   9.111  19.760  0.00  0.00    +0.000 A 
ATOM     33  C   UNL     1       1.507   9.394  18.441  0.00  0.00    +0.000 A 
ATOM     34  C   UNL     1       2.317   8.507  17.723  0.00  0.00    +0.000 A 
ENDBRANCH  28  29
ENDBRANCH   5  28
TORSDOF 8
ENDMDL
MODEL 3
REMARK VINA RESULT:      -8.0      2.087      2.549
REMARK  Name = 
REMARK  9 active torsions:
REMARK  status: ('A' for Active; 'I' for Inactive)
REMARK    1  A    between atoms: C_1  and  C_2
REMARK    2  A    between atoms: C_6  and  C_7
REMARK    3  A    between atoms: C_10  and  S_11
REMARK    4  A    between atoms: S_11  and  C_12
REMARK    5  A    between atoms: C_12  and  C_13
REMARK    6  A    between atoms: N_15  and  C_16
REMARK    7  A    between atoms: C_20  and  C_21
REMARK    8  A    between atoms: N_26  and  C_27
REMARK    9  A    between atoms: C_27  and  C_28
REMARK                            x       y       z     vdW  Elec       q    Type
REMARK                         _______ _______ _______ _____ _____    ______ ____
ROOT
ATOM      1  C   UNL     1       4.631   6.522  17.016  0.00  0.00    +0.000 A 
ATOM      2  N   UNL     1       4.307   7.551  16.247  0.00  0.00    +0.000 NA
ATOM      3  N   UNL     1       3.283   8.263  16.839  0.00  0.00    +0.000 NA
ATOM      4  C   UNL     1       3.006   7.677  17.978  0.00  0.00    +0.000 A 
ATOM      5  N   UNL     1       3.863   6.606  18.169  0.00  0.00    +0.000 N 
ENDROOT
BRANCH   1  11
ATOM      6  C   UNL     1       7.667   6.116  18.201  0.00  0.00    +0.000 C 
ATOM      7  C   UNL     1       6.930   5.404  17.131  0.00  0.00    +0.000 A 
ATOM      8  O   UNL     1       7.642   4.413  16.517  0.00  0.00    +0.000 OA
ATOM      9  C   UNL     1       6.825   3.858  15.587  0.00  0.00    +0.000 A 
ATOM     10  C   UNL     1       5.600   4.480  15.598  0.00  0.00    +0.000 A 
ATOM     11  C   UNL     1       5.656   5.499  16.590  0.00  0.00    +0.000 A 
ENDBRANCH   1  11
BRANCH   4  12
ATOM     12  S   UNL     1       1.748   8.163  19.085  0.00  0.00    +0.000 S 
BRANCH  12  13
ATOM     13  C   UNL     1       0.932   9.561  18.225  0.00  0.00    +0.000 C 
BRANCH  13  14
ATOM     14  C   UNL     1       0.530  10.671  19.222  0.00  0.00    +0.000 C 
ATOM     15  O   UNL     1       1.300  11.580  19.524  0.00  0.00    +0.000 OA
ATOM     16  N   UNL     1      -0.747  10.532  19.760  0.00  0.00    +0.000 N 
ATOM     17  H   UNL     1      -1.130   9.595  19.815  0.00  0.00    +0.000 HD
BRANCH  16  18
ATOM     18  C   UNL     1      -1.273  11.442  20.672  0.00  0.00    +0.000 A 
ATOM     19  S   UNL     1      -2.034  12.783  19.896  0.00  0.00    +0.000 S 
ATOM     20  C   UNL     1      -2.511  13.411  21.374  0.00  0.00    +0.000 A 
ATOM     21  C   UNL     1      -2.023  12.723  22.448  0.00  0.00    +0.000 A 
ATOM     22  C   UNL     1      -1.311  11.546  22.059  0.00  0.00    +0.000 A 
ATOM     23  C   UNL     1      -2.363  13.413  23.725  0.00  0.00    +0.000 C 
ATOM     24  C   UNL     1      -3.197  14.655  23.264  0.00  0.00    +0.000 C 
ATOM     25  C   UNL     1      -3.319  14.606  21.711  0.00  0.00    +0.000 C 
BRANCH  22  26
ATOM     26  C   UNL     1      -0.641  10.676  22.980  0.00  0.00    +0.000 C 
ATOM     27  N   UNL     1      -0.111   9.902  23.665  0.00  0.00    +0.000 NA
ENDBRANCH  22  26
ENDBRANCH  16  18
ENDBRANCH  13  14
ENDBRANCH  12  13
ENDBRANCH   4  12
BRANCH   5  28
ATOM     28  C   UNL     1       3.942   5.757  19.346  0.00  0.00    +0.000 C 
BRANCH  28  29
ATOM     29  C   UNL     1       2.863   4.695  19.426  0.00  0.00    +0.000 A 
ATOM     30  C   UNL     1       2.023   4.555  20.542  0.00  0.00    +0.000 A 
ATOM     31  C   UNL     1       1.008   3.595  20.563  0.00  0.00    +0.000 A 
ATOM     32  C   UNL     1       0.802   2.770  19.461  0.00  0.00    +0.000 A 
ATOM     33  C   UNL     1       1.602   2.913  18.331  0.00  0.00    +0.000 A 
ATOM     34  C   UNL     1       2.621   3.872  18.311  0.00  0.00    +0.000 A 
ENDBRANCH  28  29
ENDBRANCH   5  28
TORSDOF 8
ENDMDL
MODEL 4
REMARK VINA RESULT:      -7.9      2.720      4.766
REMARK  Name = 
REMARK  9 active torsions:
REMARK  status: ('A' for Active; 'I' for Inactive)
REMARK    1  A    between atoms: C_1  and  C_2
REMARK    2  A    between atoms: C_6  and  C_7
REMARK    3  A    between atoms: C_10  and  S_11
REMARK    4  A    between atoms: S_11  and  C_12
REMARK    5  A    between atoms: C_12  and  C_13
REMARK    6  A    between atoms: N_15  and  C_16
REMARK    7  A    between atoms: C_20  and  C_21
REMARK    8  A    between atoms: N_26  and  C_27
REMARK    9  A    between atoms: C_27  and  C_28
REMARK                            x       y       z     vdW  Elec       q    Type
REMARK                         _______ _______ _______ _____ _____    ______ ____
ROOT
ATOM      1  C   UNL     1       1.884   5.784  20.199  0.00  0.00    +0.000 A 
ATOM      2  N   UNL     1       1.246   6.673  20.945  0.00  0.00    +0.000 NA
ATOM      3  N   UNL     1       1.397   7.930  20.395  0.00  0.00    +0.000 NA
ATOM      4  C   UNL     1       2.108   7.795  19.302  0.00  0.00    +0.000 A 
ATOM      5  N   UNL     1       2.396   6.455  19.097  0.00  0.00    +0.000 N 
ENDROOT
BRANCH   1  11
ATOM      6  C   UNL     1       0.985   3.161  18.440  0.00  0.00    +0.000 C 
ATOM      7  C   UNL     1       1.561   3.277  19.799  0.00  0.00    +0.000 A 
ATOM      8  O   UNL     1       1.737   2.085  20.443  0.00  0.00    +0.000 OA
ATOM      9  C   UNL     1       2.283   2.366  21.653  0.00  0.00    +0.000 A 
ATOM     10  C   UNL     1       2.460   3.721  21.791  0.00  0.00    +0.000 A 
ATOM     11  C   UNL     1       1.982   4.331  20.597  0.00  0.00    +0.000 A 
ENDBRANCH   1  11
BRANCH   4  12
ATOM     12  S   UNL     1       2.620   9.099  18.262  0.00  0.00    +0.000 S 
BRANCH  12  13
ATOM     13  C   UNL     1       1.048   9.895  17.759  0.00  0.00    +0.000 C 
BRANCH  13  14
ATOM     14  C   UNL     1       0.555  10.886  18.837  0.00  0.00    +0.000 C 
ATOM     15  O   UNL     1       1.182  11.907  19.114  0.00  0.00    +0.000 OA
ATOM     16  N   UNL     1      -0.623  10.510  19.476  0.00  0.00    +0.000 N 
ATOM     17  H   UNL     1      -0.832   9.519  19.520  0.00  0.00    +0.000 HD
BRANCH  16  18
ATOM     18  C   UNL     1      -1.211  11.284  20.471  0.00  0.00    +0.000 A 
ATOM     19  S   UNL     1      -2.199  12.543  19.824  0.00  0.00    +0.000 S 
ATOM     20  C   UNL     1      -2.664  13.016  21.362  0.00  0.00    +0.000 A 
ATOM     21  C   UNL     1      -2.017  12.348  22.363  0.00  0.00    +0.000 A 
ATOM     22  C   UNL     1      -1.174  11.308  21.861  0.00  0.00    +0.000 A 
ATOM     23  C   UNL     1      -2.366  12.913  23.697  0.00  0.00    +0.000 C 
ATOM     24  C   UNL     1      -3.393  14.046  23.361  0.00  0.00    +0.000 C 
ATOM     25  C   UNL     1      -3.607  14.064  21.818  0.00  0.00    +0.000 C 
BRANCH  22  26
ATOM     26  C   UNL     1      -0.331  10.494  22.688  0.00  0.00    +0.000 C 
ATOM     27  N   UNL     1       0.276   9.779  23.372  0.00  0.00    +0.000 NA
ENDBRANCH  22  26
ENDBRANCH  16  18
ENDBRANCH  13  14
ENDBRANCH  12  13
ENDBRANCH   4  12
BRANCH   5  28
ATOM     28  C   UNL     1       3.083   5.880  17.953  0.00  0.00    +0.000 C 
BRANCH  28  29
ATOM     29  C   UNL     1       4.595   5.950  18.031  0.00  0.00    +0.000 A 
ATOM     30  C   UNL     1       5.364   6.699  17.127  0.00  0.00    +0.000 A 
ATOM     31  C   UNL     1       6.753   6.779  17.256  0.00  0.00    +0.000 A 
ATOM     32  C   UNL     1       7.397   6.125  18.303  0.00  0.00    +0.000 A 
ATOM     33  C   UNL     1       6.652   5.403  19.230  0.00  0.00    +0.000 A 
ATOM     34  C   UNL     1       5.261   5.320  19.099  0.00  0.00    +0.000 A 
ENDBRANCH  28  29
ENDBRANCH   5  28
TORSDOF 8
ENDMDL
MODEL 5
REMARK VINA RESULT:      -7.9      1.958      2.440
REMARK  Name = 
REMARK  9 active torsions:
REMARK  status: ('A' for Active; 'I' for Inactive)
REMARK    1  A    between atoms: C_1  and  C_2
REMARK    2  A    between atoms: C_6  and  C_7
REMARK    3  A    between atoms: C_10  and  S_11
REMARK    4  A    between atoms: S_11  and  C_12
REMARK    5  A    between atoms: C_12  and  C_13
REMARK    6  A    between atoms: N_15  and  C_16
REMARK    7  A    between atoms: C_20  and  C_21
REMARK    8  A    between atoms: N_26  and  C_27
REMARK    9  A    between atoms: C_27  and  C_28
REMARK                            x       y       z     vdW  Elec       q    Type
REMARK                         _______ _______ _______ _____ _____    ______ ____
ROOT
ATOM      1  C   UNL     1       4.243   6.700  17.633  0.00  0.00    +0.000 A 
ATOM      2  N   UNL     1       3.672   7.843  17.283  0.00  0.00    +0.000 NA
ATOM      3  N   UNL     1       2.684   8.162  18.192  0.00  0.00    +0.000 NA
ATOM      4  C   UNL     1       2.675   7.221  19.105  0.00  0.00    +0.000 A 
ATOM      5  N   UNL     1       3.674   6.301  18.835  0.00  0.00    +0.000 N 
ENDROOT
BRANCH   1  11
ATOM      6  C   UNL     1       7.456   7.370  17.544  0.00  0.00    +0.000 C 
ATOM      7  C   UNL     1       6.639   6.395  16.787  0.00  0.00    +0.000 A 
ATOM      8  O   UNL     1       7.339   5.653  15.880  0.00  0.00    +0.000 OA
ATOM      9  C   UNL     1       6.455   4.808  15.292  0.00  0.00    +0.000 A 
ATOM     10  C   UNL     1       5.198   4.999  15.811  0.00  0.00    +0.000 A 
ATOM     11  C   UNL     1       5.297   6.039  16.778  0.00  0.00    +0.000 A 
ENDBRANCH   1  11
BRANCH   4  12
ATOM     12  S   UNL     1       1.571   7.133  20.454  0.00  0.00    +0.000 S 
BRANCH  12  13
ATOM     13  C   UNL     1       1.624   8.820  21.168  0.00  0.00    +0.000 C 
BRANCH  13  14
ATOM     14  C   UNL     1       0.204   9.408  21.317  0.00  0.00    +0.000 C 
ATOM     15  O   UNL     1      -0.787   8.689  21.428  0.00  0.00    +0.000 OA
ATOM     16  N   UNL     1       0.145  10.799  21.281  0.00  0.00    +0.000 N 
ATOM     17  H   UNL     1       0.877  11.282  20.774  0.00  0.00    +0.000 HD
BRANCH  16  18
ATOM     18  C   UNL     1      -1.052  11.497  21.402  0.00  0.00    +0.000 A 
ATOM     19  S   UNL     1      -1.583  11.609  23.041  0.00  0.00    +0.000 S 
ATOM     20  C   UNL     1      -2.890  12.554  22.589  0.00  0.00    +0.000 A 
ATOM     21  C   UNL     1      -3.025  12.697  21.237  0.00  0.00    +0.000 A 
ATOM     22  C   UNL     1      -1.940  12.103  20.520  0.00  0.00    +0.000 A 
ATOM     23  C   UNL     1      -4.281  13.423  20.898  0.00  0.00    +0.000 C 
ATOM     24  C   UNL     1      -4.907  13.753  22.295  0.00  0.00    +0.000 C 
ATOM     25  C   UNL     1      -3.947  13.208  23.396  0.00  0.00    +0.000 C 
BRANCH  22  26
ATOM     26  C   UNL     1      -1.862  12.052  19.089  0.00  0.00    +0.000 C 
ATOM     27  N   UNL     1      -1.755  11.927  17.939  0.00  0.00    +0.000 NA
ENDBRANCH  22  26
ENDBRANCH  16  18
ENDBRANCH  13  14
ENDBRANCH  12  13
ENDBRANCH   4  12
BRANCH   5  28
ATOM     28  C   UNL     1       4.052   5.163  19.656  0.00  0.00    +0.000 C 
BRANCH  28  29
ATOM     29  C   UNL     1       3.294   3.888  19.344  0.00  0.00    +0.000 A 
ATOM     30  C   UNL     1       1.938   3.718  19.664  0.00  0.00    +0.000 A 
ATOM     31  C   UNL     1       1.258   2.547  19.320  0.00  0.00    +0.000 A 
ATOM     32  C   UNL     1       1.917   1.531  18.634  0.00  0.00    +0.000 A 
ATOM     33  C   UNL     1       3.253   1.690  18.278  0.00  0.00    +0.000 A 
ATOM     34  C   UNL     1       3.936   2.862  18.625  0.00  0.00    +0.000 A 
ENDBRANCH  28  29
ENDBRANCH   5  28
TORSDOF 8
ENDMDL
MODEL 6
REMARK VINA RESULT:      -7.8      2.706      3.559
REMARK  Name = 
REMARK  9 active torsions:
REMARK  status: ('A' for Active; 'I' for Inactive)
REMARK    1  A    between atoms: C_1  and  C_2
REMARK    2  A    between atoms: C_6  and  C_7
REMARK    3  A    between atoms: C_10  and  S_11
REMARK    4  A    between atoms: S_11  and  C_12
REMARK    5  A    between atoms: C_12  and  C_13
REMARK    6  A    between atoms: N_15  and  C_16
REMARK    7  A    between atoms: C_20  and  C_21
REMARK    8  A    between atoms: N_26  and  C_27
REMARK    9  A    between atoms: C_27  and  C_28
REMARK                            x       y       z     vdW  Elec       q    Type
REMARK                         _______ _______ _______ _____ _____    ______ ____
ROOT
ATOM      1  C   UNL     1       4.178   6.746  17.458  0.00  0.00    +0.000 A 
ATOM      2  N   UNL     1       3.743   7.859  16.886  0.00  0.00    +0.000 NA
ATOM      3  N   UNL     1       2.793   8.451  17.694  0.00  0.00    +0.000 NA
ATOM      4  C   UNL     1       2.671   7.706  18.766  0.00  0.00    +0.000 A 
ATOM      5  N   UNL     1       3.561   6.647  18.698  0.00  0.00    +0.000 N 
ENDROOT
BRANCH   1  11
ATOM      6  C   UNL     1       7.451   6.998  17.378  0.00  0.00    +0.000 C 
ATOM      7  C   UNL     1       6.530   6.011  16.769  0.00  0.00    +0.000 A 
ATOM      8  O   UNL     1       7.147   5.042  16.030  0.00  0.00    +0.000 OA
ATOM      9  C   UNL     1       6.173   4.221  15.562  0.00  0.00    +0.000 A 
ATOM     10  C   UNL     1       4.942   4.650  15.993  0.00  0.00    +0.000 A 
ATOM     11  C   UNL     1       5.155   5.824  16.770  0.00  0.00    +0.000 A 
ENDBRANCH   1  11
BRANCH   4  12
ATOM     12  S   UNL     1       1.557   7.996  20.077  0.00  0.00    +0.000 S 
BRANCH  12  13
ATOM     13  C   UNL     1       0.663   9.510  19.559  0.00  0.00    +0.000 C 
BRANCH  13  14
ATOM     14  C   UNL     1       0.639  10.559  20.692  0.00  0.00    +0.000 C 
ATOM     15  O   UNL     1       1.183  10.355  21.776  0.00  0.00    +0.000 OA
ATOM     16  N   UNL     1      -0.066  11.720  20.392  0.00  0.00    +0.000 N 
ATOM     17  H   UNL     1      -0.813  11.649  19.710  0.00  0.00    +0.000 HD
BRANCH  16  18
ATOM     18  C   UNL     1      -0.190  12.772  21.296  0.00  0.00    +0.000 A 
ATOM     19  S   UNL     1       0.996  13.999  21.038  0.00  0.00    +0.000 S 
ATOM     20  C   UNL     1       0.330  14.944  22.250  0.00  0.00    +0.000 A 
ATOM     21  C   UNL     1      -0.681  14.331  22.934  0.00  0.00    +0.000 A 
ATOM     22  C   UNL     1      -1.019  13.060  22.374  0.00  0.00    +0.000 A 
ATOM     23  C   UNL     1      -1.130  15.164  24.086  0.00  0.00    +0.000 C 
ATOM     24  C   UNL     1      -0.239  16.448  23.984  0.00  0.00    +0.000 C 
ATOM     25  C   UNL     1       0.684  16.298  22.737  0.00  0.00    +0.000 C 
BRANCH  22  26
ATOM     26  C   UNL     1      -2.000  12.177  22.933  0.00  0.00    +0.000 C 
ATOM     27  N   UNL     1      -2.802  11.521  23.458  0.00  0.00    +0.000 NA
ENDBRANCH  22  26
ENDBRANCH  16  18
ENDBRANCH  13  14
ENDBRANCH  12  13
ENDBRANCH   4  12
BRANCH   5  28
ATOM     28  C   UNL     1       3.803   5.649  19.727  0.00  0.00    +0.000 C 
BRANCH  28  29
ATOM     29  C   UNL     1       2.769   4.541  19.778  0.00  0.00    +0.000 A 
ATOM     30  C   UNL     1       2.223   4.073  20.984  0.00  0.00    +0.000 A 
ATOM     31  C   UNL     1       1.237   3.083  20.991  0.00  0.00    +0.000 A 
ATOM     32  C   UNL     1       0.767   2.554  19.793  0.00  0.00    +0.000 A 
ATOM     33  C   UNL     1       1.271   3.025  18.584  0.00  0.00    +0.000 A 
ATOM     34  C   UNL     1       2.260   4.015  18.576  0.00  0.00    +0.000 A 
ENDBRANCH  28  29
ENDBRANCH   5  28
TORSDOF 8
ENDMDL
MODEL 7
REMARK VINA RESULT:      -7.8      2.658     10.202
REMARK  Name = 
REMARK  9 active torsions:
REMARK  status: ('A' for Active; 'I' for Inactive)
REMARK    1  A    between atoms: C_1  and  C_2
REMARK    2  A    between atoms: C_6  and  C_7
REMARK    3  A    between atoms: C_10  and  S_11
REMARK    4  A    between atoms: S_11  and  C_12
REMARK    5  A    between atoms: C_12  and  C_13
REMARK    6  A    between atoms: N_15  and  C_16
REMARK    7  A    between atoms: C_20  and  C_21
REMARK    8  A    between atoms: N_26  and  C_27
REMARK    9  A    between atoms: C_27  and  C_28
REMARK                            x       y       z     vdW  Elec       q    Type
REMARK                         _______ _______ _______ _____ _____    ______ ____
ROOT
ATOM      1  C   UNL     1      -2.403  12.510  22.113  0.00  0.00    +0.000 A 
ATOM      2  N   UNL     1      -1.889  12.017  23.231  0.00  0.00    +0.000 NA
ATOM      3  N   UNL     1      -0.663  11.444  22.960  0.00  0.00    +0.000 NA
ATOM      4  C   UNL     1      -0.426  11.612  21.682  0.00  0.00    +0.000 A 
ATOM      5  N   UNL     1      -1.464  12.328  21.108  0.00  0.00    +0.000 N 
ENDROOT
BRANCH   1  11
ATOM      6  C   UNL     1      -3.311  15.495  23.137  0.00  0.00    +0.000 C 
ATOM      7  C   UNL     1      -4.090  14.386  22.542  0.00  0.00    +0.000 A 
ATOM      8  O   UNL     1      -5.425  14.640  22.407  0.00  0.00    +0.000 OA
ATOM      9  C   UNL     1      -5.982  13.542  21.838  0.00  0.00    +0.000 A 
ATOM     10  C   UNL     1      -5.021  12.589  21.605  0.00  0.00    +0.000 A 
ATOM     11  C   UNL     1      -3.785  13.117  22.070  0.00  0.00    +0.000 A 
ENDBRANCH   1  11
BRANCH   4  12
ATOM     12  S   UNL     1       0.977  11.023  20.827  0.00  0.00    +0.000 S 
BRANCH  12  13
ATOM     13  C   UNL     1       1.268   9.369  21.563  0.00  0.00    +0.000 C 
BRANCH  13  14
ATOM     14  C   UNL     1       1.391   8.286  20.468  0.00  0.00    +0.000 C 
ATOM     15  O   UNL     1       1.015   8.485  19.315  0.00  0.00    +0.000 OA
ATOM     16  N   UNL     1       1.926   7.078  20.906  0.00  0.00    +0.000 N 
ATOM     17  H   UNL     1       1.806   6.842  21.884  0.00  0.00    +0.000 HD
BRANCH  16  18
ATOM     18  C   UNL     1       2.111   5.993  20.054  0.00  0.00    +0.000 A 
ATOM     19  S   UNL     1       1.427   4.540  20.687  0.00  0.00    +0.000 S 
ATOM     20  C   UNL     1       1.843   3.700  19.299  0.00  0.00    +0.000 A 
ATOM     21  C   UNL     1       2.587   4.429  18.416  0.00  0.00    +0.000 A 
ATOM     22  C   UNL     1       2.737   5.789  18.829  0.00  0.00    +0.000 A 
ATOM     23  C   UNL     1       3.045   3.584  17.276  0.00  0.00    +0.000 C 
ATOM     24  C   UNL     1       2.418   2.182  17.579  0.00  0.00    +0.000 C 
ATOM     25  C   UNL     1       1.592   2.296  18.896  0.00  0.00    +0.000 C 
BRANCH  22  26
ATOM     26  C   UNL     1       3.523   6.757  18.121  0.00  0.00    +0.000 C 
ATOM     27  N   UNL     1       4.182   7.473  17.487  0.00  0.00    +0.000 NA
ENDBRANCH  22  26
ENDBRANCH  16  18
ENDBRANCH  13  14
ENDBRANCH  12  13
ENDBRANCH   4  12
BRANCH   5  28
ATOM     28  C   UNL     1      -1.537  12.800  19.735  0.00  0.00    +0.000 C 
BRANCH  28  29
ATOM     29  C   UNL     1      -2.093  11.786  18.754  0.00  0.00    +0.000 A 
ATOM     30  C   UNL     1      -1.279  10.860  18.083  0.00  0.00    +0.000 A 
ATOM     31  C   UNL     1      -1.831   9.909  17.221  0.00  0.00    +0.000 A 
ATOM     32  C   UNL     1      -3.208   9.854  17.028  0.00  0.00    +0.000 A 
ATOM     33  C   UNL     1      -4.038  10.741  17.708  0.00  0.00    +0.000 A 
ATOM     34  C   UNL     1      -3.485  11.696  18.569  0.00  0.00    +0.000 A 
ENDBRANCH  28  29
ENDBRANCH   5  28
TORSDOF 8
ENDMDL
MODEL 8
REMARK VINA RESULT:      -7.7      2.630      3.884
REMARK  Name = 
REMARK  9 active torsions:
REMARK  status: ('A' for Active; 'I' for Inactive)
REMARK    1  A    between atoms: C_1  and  C_2
REMARK    2  A    between atoms: C_6  and  C_7
REMARK    3  A    between atoms: C_10  and  S_11
REMARK    4  A    between atoms: S_11  and  C_12
REMARK    5  A    between atoms: C_12  and  C_13
REMARK    6  A    between atoms: N_15  and  C_16
REMARK    7  A    between atoms: C_20  and  C_21
REMARK    8  A    between atoms: N_26  and  C_27
REMARK    9  A    between atoms: C_27  and  C_28
REMARK                            x       y       z     vdW  Elec       q    Type
REMARK                         _______ _______ _______ _____ _____    ______ ____
ROOT
ATOM      1  C   UNL     1       4.109   6.977  17.459  0.00  0.00    +0.000 A 
ATOM      2  N   UNL     1       3.617   8.114  16.989  0.00  0.00    +0.000 NA
ATOM      3  N   UNL     1       2.645   8.585  17.848  0.00  0.00    +0.000 NA
ATOM      4  C   UNL     1       2.567   7.743  18.850  0.00  0.00    +0.000 A 
ATOM      5  N   UNL     1       3.506   6.738  18.686  0.00  0.00    +0.000 N 
ENDROOT
BRANCH   1  11
ATOM      6  C   UNL     1       7.381   7.227  17.590  0.00  0.00    +0.000 C 
ATOM      7  C   UNL     1       6.498   6.349  16.788  0.00  0.00    +0.000 A 
ATOM      8  O   UNL     1       7.156   5.503  15.943  0.00  0.00    +0.000 OA
ATOM      9  C   UNL     1       6.212   4.766  15.304  0.00  0.00    +0.000 A 
ATOM     10  C   UNL     1       4.958   5.129  15.731  0.00  0.00    +0.000 A 
ATOM     11  C   UNL     1       5.126   6.168  16.689  0.00  0.00    +0.000 A 
ENDBRANCH   1  11
BRANCH   4  12
ATOM     12  S   UNL     1       1.449   7.861  20.185  0.00  0.00    +0.000 S 
BRANCH  12  13
ATOM     13  C   UNL     1       0.212   9.084  19.606  0.00  0.00    +0.000 C 
BRANCH  13  14
ATOM     14  C   UNL     1       0.721  10.529  19.808  0.00  0.00    +0.000 C 
ATOM     15  O   UNL     1       1.042  10.954  20.916  0.00  0.00    +0.000 OA
ATOM     16  N   UNL     1       0.751  11.299  18.649  0.00  0.00    +0.000 N 
ATOM     17  H   UNL     1       0.100  11.056  17.911  0.00  0.00    +0.000 HD
BRANCH  16  18
ATOM     18  C   UNL     1       1.183  12.622  18.646  0.00  0.00    +0.000 A 
ATOM     19  S   UNL     1       2.799  12.783  18.061  0.00  0.00    +0.000 S 
ATOM     20  C   UNL     1       2.717  14.450  18.190  0.00  0.00    +0.000 A 
ATOM     21  C   UNL     1       1.566  14.902  18.770  0.00  0.00    +0.000 A 
ATOM     22  C   UNL     1       0.638  13.844  19.025  0.00  0.00    +0.000 A 
ATOM     23  C   UNL     1       1.618  16.375  18.987  0.00  0.00    +0.000 C 
ATOM     24  C   UNL     1       3.008  16.788  18.397  0.00  0.00    +0.000 C 
ATOM     25  C   UNL     1       3.695  15.506  17.836  0.00  0.00    +0.000 C 
BRANCH  22  26
ATOM     26  C   UNL     1      -0.621  14.028  19.686  0.00  0.00    +0.000 C 
ATOM     27  N   UNL     1      -1.598  14.154  20.301  0.00  0.00    +0.000 NA
ENDBRANCH  22  26
ENDBRANCH  16  18
ENDBRANCH  13  14
ENDBRANCH  12  13
ENDBRANCH   4  12
BRANCH   5  28
ATOM     28  C   UNL     1       3.802   5.666  19.622  0.00  0.00    +0.000 C 
BRANCH  28  29
ATOM     29  C   UNL     1       2.767   4.558  19.651  0.00  0.00    +0.000 A 
ATOM     30  C   UNL     1       2.195   4.092  20.845  0.00  0.00    +0.000 A 
ATOM     31  C   UNL     1       1.209   3.102  20.831  0.00  0.00    +0.000 A 
ATOM     32  C   UNL     1       0.765   2.572  19.624  0.00  0.00    +0.000 A 
ATOM     33  C   UNL     1       1.295   3.042  18.425  0.00  0.00    +0.000 A 
ATOM     34  C   UNL     1       2.285   4.032  18.438  0.00  0.00    +0.000 A 
ENDBRANCH  28  29
ENDBRANCH   5  28
TORSDOF 8
ENDMDL
MODEL 9
REMARK VINA RESULT:      -7.7      1.754      2.505
REMARK  Name = 
REMARK  9 active torsions:
REMARK  status: ('A' for Active; 'I' for Inactive)
REMARK    1  A    between atoms: C_1  and  C_2
REMARK    2  A    between atoms: C_6  and  C_7
REMARK    3  A    between atoms: C_10  and  S_11
REMARK    4  A    between atoms: S_11  and  C_12
REMARK    5  A    between atoms: C_12  and  C_13
REMARK    6  A    between atoms: N_15  and  C_16
REMARK    7  A    between atoms: C_20  and  C_21
REMARK    8  A    between atoms: N_26  and  C_27
REMARK    9  A    between atoms: C_27  and  C_28
REMARK                            x       y       z     vdW  Elec       q    Type
REMARK                         _______ _______ _______ _____ _____    ______ ____
ROOT
ATOM      1  C   UNL     1       4.408   6.501  17.399  0.00  0.00    +0.000 A 
ATOM      2  N   UNL     1       4.031   7.641  16.839  0.00  0.00    +0.000 NA
ATOM      3  N   UNL     1       3.043   8.225  17.605  0.00  0.00    +0.000 NA
ATOM      4  C   UNL     1       2.839   7.448  18.641  0.00  0.00    +0.000 A 
ATOM      5  N   UNL     1       3.712   6.373  18.593  0.00  0.00    +0.000 N 
ENDROOT
BRANCH   1  11
ATOM      6  C   UNL     1       7.588   6.152  18.136  0.00  0.00    +0.000 C 
ATOM      7  C   UNL     1       6.747   5.506  17.103  0.00  0.00    +0.000 A 
ATOM      8  O   UNL     1       7.412   4.620  16.304  0.00  0.00    +0.000 OA
ATOM      9  C   UNL     1       6.502   4.112  15.434  0.00  0.00    +0.000 A 
ATOM     10  C   UNL     1       5.265   4.661  15.666  0.00  0.00    +0.000 A 
ATOM     11  C   UNL     1       5.409   5.581  16.742  0.00  0.00    +0.000 A 
ENDBRANCH   1  11
BRANCH   4  12
ATOM     12  S   UNL     1       1.650   7.718  19.889  0.00  0.00    +0.000 S 
BRANCH  12  13
ATOM     13  C   UNL     1       1.401   9.533  19.864  0.00  0.00    +0.000 C 
BRANCH  13  14
ATOM     14  C   UNL     1       0.081   9.925  20.566  0.00  0.00    +0.000 C 
ATOM     15  O   UNL     1      -0.641   9.087  21.103  0.00  0.00    +0.000 OA
ATOM     16  N   UNL     1      -0.226  11.281  20.508  0.00  0.00    +0.000 N 
ATOM     17  H   UNL     1       0.145  11.810  19.726  0.00  0.00    +0.000 HD
BRANCH  16  18
ATOM     18  C   UNL     1      -1.374  11.810  21.088  0.00  0.00    +0.000 A 
ATOM     19  S   UNL     1      -1.208  12.025  22.793  0.00  0.00    +0.000 S 
ATOM     20  C   UNL     1      -2.730  12.718  22.888  0.00  0.00    +0.000 A 
ATOM     21  C   UNL     1      -3.422  12.691  21.712  0.00  0.00    +0.000 A 
ATOM     22  C   UNL     1      -2.635  12.182  20.632  0.00  0.00    +0.000 A 
ATOM     23  C   UNL     1      -4.815  13.188  21.898  0.00  0.00    +0.000 C 
ATOM     24  C   UNL     1      -4.869  13.576  23.414  0.00  0.00    +0.000 C 
ATOM     25  C   UNL     1      -3.467  13.299  24.035  0.00  0.00    +0.000 C 
BRANCH  22  26
ATOM     26  C   UNL     1      -3.134  11.986  19.303  0.00  0.00    +0.000 C 
ATOM     27  N   UNL     1      -3.456  11.785  18.205  0.00  0.00    +0.000 NA
ENDBRANCH  22  26
ENDBRANCH  16  18
ENDBRANCH  13  14
ENDBRANCH  12  13
ENDBRANCH   4  12
BRANCH   5  28
ATOM     28  C   UNL     1       3.868   5.336  19.599  0.00  0.00    +0.000 C 
BRANCH  28  29
ATOM     29  C   UNL     1       2.813   4.248  19.546  0.00  0.00    +0.000 A 
ATOM     30  C   UNL     1       2.623   3.436  18.417  0.00  0.00    +0.000 A 
ATOM     31  C   UNL     1       1.673   2.412  18.419  0.00  0.00    +0.000 A 
ATOM     32  C   UNL     1       0.907   2.169  19.555  0.00  0.00    +0.000 A 
ATOM     33  C   UNL     1       1.100   2.942  20.697  0.00  0.00    +0.000 A 
ATOM     34  C   UNL     1       2.050   3.970  20.695  0.00  0.00    +0.000 A 
ENDBRANCH  28  29
ENDBRANCH   5  28
TORSDOF 8
ENDMDL
