MODEL 1
REMARK VINA RESULT:      -8.6      0.000      0.000
REMARK  Name = 
REMARK  2 active torsions:
REMARK  status: ('A' for Active; 'I' for Inactive)
REMARK    1  A    between atoms: C_2  and  C_15
REMARK    2  A    between atoms: C_7  and  C_8
REMARK                            x       y       z     vdW  Elec       q    Type
REMARK                         _______ _______ _______ _____ _____    ______ ____
ROOT
ATOM      1  O   UNL     1       9.666  10.397  19.660  0.00  0.00    +0.000 OA
ATOM      2  C   UNL     1       9.288  10.855  18.589  0.00  0.00    +0.000 C 
ATOM      3  N   UNL     1       8.460  10.213  17.675  0.00  0.00    +0.000 N 
ATOM      4  C   UNL     1       8.170   8.868  17.884  0.00  0.00    +0.000 A 
ATOM      5  N   UNL     1       8.572   8.086  18.846  0.00  0.00    +0.000 NA
ATOM      6  N   UNL     1       8.098   6.822  18.625  0.00  0.00    +0.000 NA
ATOM      7  C   UNL     1       7.384   6.842  17.514  0.00  0.00    +0.000 A 
ATOM      8  N   UNL     1       7.395   8.125  17.023  0.00  0.00    +0.000 N 
ATOM      9  H   UNL     1       8.174  10.709  16.841  0.00  0.00    +0.000 HD
ATOM     10  H   UNL     1       6.913   8.421  16.188  0.00  0.00    +0.000 HD
ENDROOT
BRANCH   2  11
ATOM     11  C   UNL     1       9.814  12.208  18.202  0.00  0.00    +0.000 A 
ATOM     12  C   UNL     1      11.060  12.232  17.582  0.00  0.00    +0.000 A 
ATOM     13  C   UNL     1      11.541  13.440  17.111  0.00  0.00    +0.000 A 
ATOM     14  C   UNL     1      10.840  14.602  17.399  0.00  0.00    +0.000 A 
ATOM     15  C   UNL     1      11.367  15.837  16.999  0.00  0.00    +0.000 A 
ATOM     16  C   UNL     1      11.056  16.965  17.737  0.00  0.00    +0.000 A 
ATOM     17  C   UNL     1       9.989  16.910  18.620  0.00  0.00    +0.000 A 
ATOM     18  C   UNL     1       9.237  15.727  18.741  0.00  0.00    +0.000 A 
ATOM     19  C   UNL     1       9.681  14.522  18.197  0.00  0.00    +0.000 A 
ATOM     20  N   UNL     1       9.093  13.328  18.497  0.00  0.00    +0.000 NA
ENDBRANCH   2  11
BRANCH   7  21
ATOM     21  C   UNL     1       6.706   5.714  16.892  0.00  0.00    +0.000 A 
ATOM     22  C   UNL     1       5.634   5.081  17.512  0.00  0.00    +0.000 A 
ATOM     23  C   UNL     1       5.046   3.991  16.869  0.00  0.00    +0.000 A 
ATOM     24  C   UNL     1       5.517   3.597  15.620  0.00  0.00    +0.000 A 
ATOM     25  C   UNL     1       6.606   4.296  15.083  0.00  0.00    +0.000 A 
ATOM     26  N   UNL     1       7.202   5.346  15.682  0.00  0.00    +0.000 NA
ENDBRANCH   7  21
TORSDOF 2
ENDMDL
MODEL 2
REMARK VINA RESULT:      -8.4      0.662      1.022
REMARK  Name = 
REMARK  2 active torsions:
REMARK  status: ('A' for Active; 'I' for Inactive)
REMARK    1  A    between atoms: C_2  and  C_15
REMARK    2  A    between atoms: C_7  and  C_8
REMARK                            x       y       z     vdW  Elec       q    Type
REMARK                         _______ _______ _______ _____ _____    ______ ____
ROOT
ATOM      1  O   UNL     1       9.695  10.246  19.587  0.00  0.00    +0.000 OA
ATOM      2  C   UNL     1       9.266  10.711  18.539  0.00  0.00    +0.000 C 
ATOM      3  N   UNL     1       8.383  10.082  17.669  0.00  0.00    +0.000 N 
ATOM      4  C   UNL     1       8.087   8.740  17.892  0.00  0.00    +0.000 A 
ATOM      5  N   UNL     1       8.530   7.951  18.829  0.00  0.00    +0.000 NA
ATOM      6  N   UNL     1       8.030   6.694  18.633  0.00  0.00    +0.000 NA
ATOM      7  C   UNL     1       7.258   6.724  17.561  0.00  0.00    +0.000 A 
ATOM      8  N   UNL     1       7.258   8.008  17.072  0.00  0.00    +0.000 N 
ATOM      9  H   UNL     1       8.059  10.583  16.852  0.00  0.00    +0.000 HD
ATOM     10  H   UNL     1       6.737   8.312  16.264  0.00  0.00    +0.000 HD
ENDROOT
BRANCH   2  11
ATOM     11  C   UNL     1       9.788  12.059  18.126  0.00  0.00    +0.000 A 
ATOM     12  C   UNL     1      11.105  12.099  17.675  0.00  0.00    +0.000 A 
ATOM     13  C   UNL     1      11.599  13.294  17.185  0.00  0.00    +0.000 A 
ATOM     14  C   UNL     1      10.822  14.439  17.291  0.00  0.00    +0.000 A 
ATOM     15  C   UNL     1      11.351  15.667  16.876  0.00  0.00    +0.000 A 
ATOM     16  C   UNL     1      10.901  16.826  17.481  0.00  0.00    +0.000 A 
ATOM     17  C   UNL     1       9.727  16.782  18.218  0.00  0.00    +0.000 A 
ATOM     18  C   UNL     1       9.011  15.575  18.325  0.00  0.00    +0.000 A 
ATOM     19  C   UNL     1       9.569  14.358  17.934  0.00  0.00    +0.000 A 
ATOM     20  N   UNL     1       8.992  13.160  18.240  0.00  0.00    +0.000 NA
ENDBRANCH   2  11
BRANCH   7  21
ATOM     21  C   UNL     1       6.534   5.606  16.974  0.00  0.00    +0.000 A 
ATOM     22  C   UNL     1       6.892   5.080  15.737  0.00  0.00    +0.000 A 
ATOM     23  C   UNL     1       6.140   4.023  15.224  0.00  0.00    +0.000 A 
ATOM     24  C   UNL     1       5.089   3.503  15.974  0.00  0.00    +0.000 A 
ATOM     25  C   UNL     1       4.804   4.108  17.205  0.00  0.00    +0.000 A 
ATOM     26  N   UNL     1       5.504   5.135  17.725  0.00  0.00    +0.000 NA
ENDBRANCH   7  21
TORSDOF 2
ENDMDL
MODEL 3
REMARK VINA RESULT:      -8.3      1.711      9.684
REMARK  Name = 
REMARK  2 active torsions:
REMARK  status: ('A' for Active; 'I' for Inactive)
REMARK    1  A    between atoms: C_2  and  C_15
REMARK    2  A    between atoms: C_7  and  C_8
REMARK                            x       y       z     vdW  Elec       q    Type
REMARK                         _______ _______ _______ _____ _____    ______ ____
ROOT
ATOM      1  O   UNL     1       8.303   6.568  19.076  0.00  0.00    +0.000 OA
ATOM      2  C   UNL     1       7.478   6.901  18.235  0.00  0.00    +0.000 C 
ATOM      3  N   UNL     1       7.426   8.129  17.586  0.00  0.00    +0.000 N 
ATOM      4  C   UNL     1       8.256   9.149  18.044  0.00  0.00    +0.000 A 
ATOM      5  N   UNL     1       9.110   9.126  19.028  0.00  0.00    +0.000 NA
ATOM      6  N   UNL     1       9.665  10.368  19.170  0.00  0.00    +0.000 NA
ATOM      7  C   UNL     1       9.146  11.156  18.245  0.00  0.00    +0.000 A 
ATOM      8  N   UNL     1       8.259  10.415  17.503  0.00  0.00    +0.000 N 
ATOM      9  H   UNL     1       6.725   8.277  16.871  0.00  0.00    +0.000 HD
ATOM     10  H   UNL     1       7.732  10.770  16.721  0.00  0.00    +0.000 HD
ENDROOT
BRANCH   2  11
ATOM     11  C   UNL     1       6.390   5.914  17.917  0.00  0.00    +0.000 A 
ATOM     12  C   UNL     1       5.633   6.177  16.778  0.00  0.00    +0.000 A 
ATOM     13  C   UNL     1       4.689   5.246  16.383  0.00  0.00    +0.000 A 
ATOM     14  C   UNL     1       4.429   4.160  17.207  0.00  0.00    +0.000 A 
ATOM     15  C   UNL     1       3.414   3.261  16.854  0.00  0.00    +0.000 A 
ATOM     16  C   UNL     1       2.751   2.577  17.857  0.00  0.00    +0.000 A 
ATOM     17  C   UNL     1       3.316   2.536  19.122  0.00  0.00    +0.000 A 
ATOM     18  C   UNL     1       4.548   3.171  19.362  0.00  0.00    +0.000 A 
ATOM     19  C   UNL     1       5.102   4.060  18.441  0.00  0.00    +0.000 A 
ATOM     20  N   UNL     1       6.167   4.856  18.748  0.00  0.00    +0.000 NA
ENDBRANCH   2  11
BRANCH   7  21
ATOM     21  C   UNL     1       9.436  12.567  18.037  0.00  0.00    +0.000 A 
ATOM     22  C   UNL     1      10.633  12.984  17.463  0.00  0.00    +0.000 A 
ATOM     23  C   UNL     1      10.855  14.353  17.314  0.00  0.00    +0.000 A 
ATOM     24  C   UNL     1       9.867  15.253  17.703  0.00  0.00    +0.000 A 
ATOM     25  C   UNL     1       8.700  14.732  18.277  0.00  0.00    +0.000 A 
ATOM     26  N   UNL     1       8.458  13.417  18.443  0.00  0.00    +0.000 NA
ENDBRANCH   7  21
TORSDOF 2
ENDMDL
MODEL 4
REMARK VINA RESULT:      -8.1      7.079     10.772
REMARK  Name = 
REMARK  2 active torsions:
REMARK  status: ('A' for Active; 'I' for Inactive)
REMARK    1  A    between atoms: C_2  and  C_15
REMARK    2  A    between atoms: C_7  and  C_8
REMARK                            x       y       z     vdW  Elec       q    Type
REMARK                         _______ _______ _______ _____ _____    ______ ____
ROOT
ATOM      1  O   UNL     1       1.519   5.585  20.571  0.00  0.00    +0.000 OA
ATOM      2  C   UNL     1       2.194   6.356  19.901  0.00  0.00    +0.000 C 
ATOM      3  N   UNL     1       2.206   7.741  20.016  0.00  0.00    +0.000 N 
ATOM      4  C   UNL     1       1.247   8.340  20.828  0.00  0.00    +0.000 A 
ATOM      5  N   UNL     1       0.300   7.778  21.525  0.00  0.00    +0.000 NA
ATOM      6  N   UNL     1      -0.454   8.748  22.124  0.00  0.00    +0.000 NA
ATOM      7  C   UNL     1       0.053   9.922  21.793  0.00  0.00    +0.000 A 
ATOM      8  N   UNL     1       1.141   9.704  20.983  0.00  0.00    +0.000 N 
ATOM      9  H   UNL     1       2.841   8.276  19.438  0.00  0.00    +0.000 HD
ATOM     10  H   UNL     1       1.722  10.432  20.599  0.00  0.00    +0.000 HD
ENDROOT
BRANCH   2  11
ATOM     11  C   UNL     1       3.041   5.754  18.816  0.00  0.00    +0.000 A 
ATOM     12  C   UNL     1       2.751   4.438  18.465  0.00  0.00    +0.000 A 
ATOM     13  C   UNL     1       3.430   3.872  17.401  0.00  0.00    +0.000 A 
ATOM     14  C   UNL     1       4.473   4.577  16.816  0.00  0.00    +0.000 A 
ATOM     15  C   UNL     1       5.220   3.974  15.797  0.00  0.00    +0.000 A 
ATOM     16  C   UNL     1       6.540   4.351  15.625  0.00  0.00    +0.000 A 
ATOM     17  C   UNL     1       6.981   5.524  16.219  0.00  0.00    +0.000 A 
ATOM     18  C   UNL     1       6.087   6.312  16.966  0.00  0.00    +0.000 A 
ATOM     19  C   UNL     1       4.835   5.830  17.351  0.00  0.00    +0.000 A 
ATOM     20  N   UNL     1       4.054   6.480  18.261  0.00  0.00    +0.000 NA
ENDBRANCH   2  11
BRANCH   7  21
ATOM     21  C   UNL     1      -0.443  11.231  22.192  0.00  0.00    +0.000 A 
ATOM     22  C   UNL     1      -1.583  11.365  22.979  0.00  0.00    +0.000 A 
ATOM     23  C   UNL     1      -2.016  12.651  23.305  0.00  0.00    +0.000 A 
ATOM     24  C   UNL     1      -1.280  13.751  22.874  0.00  0.00    +0.000 A 
ATOM     25  C   UNL     1      -0.150  13.509  22.081  0.00  0.00    +0.000 A 
ATOM     26  N   UNL     1       0.289  12.282  21.741  0.00  0.00    +0.000 NA
ENDBRANCH   7  21
TORSDOF 2
ENDMDL
MODEL 5
REMARK VINA RESULT:      -8.1      1.827      9.516
REMARK  Name = 
REMARK  2 active torsions:
REMARK  status: ('A' for Active; 'I' for Inactive)
REMARK    1  A    between atoms: C_2  and  C_15
REMARK    2  A    between atoms: C_7  and  C_8
REMARK                            x       y       z     vdW  Elec       q    Type
REMARK                         _______ _______ _______ _____ _____    ______ ____
ROOT
ATOM      1  O   UNL     1       8.229   6.649  18.937  0.00  0.00    +0.000 OA
ATOM      2  C   UNL     1       7.379   7.029  18.142  0.00  0.00    +0.000 C 
ATOM      3  N   UNL     1       7.333   8.278  17.533  0.00  0.00    +0.000 N 
ATOM      4  C   UNL     1       8.209   9.261  17.985  0.00  0.00    +0.000 A 
ATOM      5  N   UNL     1       9.103   9.186  18.931  0.00  0.00    +0.000 NA
ATOM      6  N   UNL     1       9.696  10.408  19.086  0.00  0.00    +0.000 NA
ATOM      7  C   UNL     1       9.160  11.238  18.208  0.00  0.00    +0.000 A 
ATOM      8  N   UNL     1       8.223  10.543  17.483  0.00  0.00    +0.000 N 
ATOM      9  H   UNL     1       6.607   8.466  16.854  0.00  0.00    +0.000 HD
ATOM     10  H   UNL     1       7.673  10.935  16.735  0.00  0.00    +0.000 HD
ENDROOT
BRANCH   2  11
ATOM     11  C   UNL     1       6.253   6.081  17.842  0.00  0.00    +0.000 A 
ATOM     12  C   UNL     1       6.038   5.784  16.498  0.00  0.00    +0.000 A 
ATOM     13  C   UNL     1       5.083   4.837  16.175  0.00  0.00    +0.000 A 
ATOM     14  C   UNL     1       4.276   4.324  17.181  0.00  0.00    +0.000 A 
ATOM     15  C   UNL     1       3.251   3.430  16.847  0.00  0.00    +0.000 A 
ATOM     16  C   UNL     1       2.125   3.378  17.649  0.00  0.00    +0.000 A 
ATOM     17  C   UNL     1       2.181   3.941  18.915  0.00  0.00    +0.000 A 
ATOM     18  C   UNL     1       3.372   4.537  19.366  0.00  0.00    +0.000 A 
ATOM     19  C   UNL     1       4.425   4.814  18.494  0.00  0.00    +0.000 A 
ATOM     20  N   UNL     1       5.485   5.593  18.858  0.00  0.00    +0.000 NA
ENDBRANCH   2  11
BRANCH   7  21
ATOM     21  C   UNL     1       9.479  12.647  18.030  0.00  0.00    +0.000 A 
ATOM     22  C   UNL     1       8.597  13.646  18.430  0.00  0.00    +0.000 A 
ATOM     23  C   UNL     1       8.957  14.975  18.208  0.00  0.00    +0.000 A 
ATOM     24  C   UNL     1      10.193  15.263  17.636  0.00  0.00    +0.000 A 
ATOM     25  C   UNL     1      11.006  14.185  17.262  0.00  0.00    +0.000 A 
ATOM     26  N   UNL     1      10.684  12.891  17.454  0.00  0.00    +0.000 NA
ENDBRANCH   7  21
TORSDOF 2
ENDMDL
MODEL 6
REMARK VINA RESULT:      -7.9      1.015      1.302
REMARK  Name = 
REMARK  2 active torsions:
REMARK  status: ('A' for Active; 'I' for Inactive)
REMARK    1  A    between atoms: C_2  and  C_15
REMARK    2  A    between atoms: C_7  and  C_8
REMARK                            x       y       z     vdW  Elec       q    Type
REMARK                         _______ _______ _______ _____ _____    ______ ____
ROOT
ATOM      1  O   UNL     1       9.673  10.038  19.921  0.00  0.00    +0.000 OA
ATOM      2  C   UNL     1       9.363  10.576  18.866  0.00  0.00    +0.000 C 
ATOM      3  N   UNL     1       8.546  10.031  17.882  0.00  0.00    +0.000 N 
ATOM      4  C   UNL     1       8.183   8.692  17.998  0.00  0.00    +0.000 A 
ATOM      5  N   UNL     1       8.505   7.836  18.926  0.00  0.00    +0.000 NA
ATOM      6  N   UNL     1       7.981   6.613  18.612  0.00  0.00    +0.000 NA
ATOM      7  C   UNL     1       7.318   6.733  17.476  0.00  0.00    +0.000 A 
ATOM      8  N   UNL     1       7.411   8.040  17.063  0.00  0.00    +0.000 N 
ATOM      9  H   UNL     1       8.320  10.588  17.068  0.00  0.00    +0.000 HD
ATOM     10  H   UNL     1       6.981   8.408  16.229  0.00  0.00    +0.000 HD
ENDROOT
BRANCH   2  11
ATOM     11  C   UNL     1       9.969  11.921  18.582  0.00  0.00    +0.000 A 
ATOM     12  C   UNL     1      10.695  12.034  17.399  0.00  0.00    +0.000 A 
ATOM     13  C   UNL     1      11.183  13.277  17.039  0.00  0.00    +0.000 A 
ATOM     14  C   UNL     1      11.062  14.332  17.931  0.00  0.00    +0.000 A 
ATOM     15  C   UNL     1      11.631  15.571  17.609  0.00  0.00    +0.000 A 
ATOM     16  C   UNL     1      12.046  16.401  18.634  0.00  0.00    +0.000 A 
ATOM     17  C   UNL     1      11.591  16.152  19.920  0.00  0.00    +0.000 A 
ATOM     18  C   UNL     1      10.712  15.079  20.158  0.00  0.00    +0.000 A 
ATOM     19  C   UNL     1      10.482  14.097  19.195  0.00  0.00    +0.000 A 
ATOM     20  N   UNL     1       9.824  12.936  19.481  0.00  0.00    +0.000 NA
ENDBRANCH   2  11
BRANCH   7  21
ATOM     21  C   UNL     1       6.614   5.678  16.760  0.00  0.00    +0.000 A 
ATOM     22  C   UNL     1       7.067   5.211  15.530  0.00  0.00    +0.000 A 
ATOM     23  C   UNL     1       6.330   4.214  14.889  0.00  0.00    +0.000 A 
ATOM     24  C   UNL     1       5.199   3.693  15.509  0.00  0.00    +0.000 A 
ATOM     25  C   UNL     1       4.823   4.237  16.745  0.00  0.00    +0.000 A 
ATOM     26  N   UNL     1       5.506   5.204  17.386  0.00  0.00    +0.000 NA
ENDBRANCH   7  21
TORSDOF 2
ENDMDL
MODEL 7
REMARK VINA RESULT:      -7.9      0.928      1.606
REMARK  Name = 
REMARK  2 active torsions:
REMARK  status: ('A' for Active; 'I' for Inactive)
REMARK    1  A    between atoms: C_2  and  C_15
REMARK    2  A    between atoms: C_7  and  C_8
REMARK                            x       y       z     vdW  Elec       q    Type
REMARK                         _______ _______ _______ _____ _____    ______ ____
ROOT
ATOM      1  O   UNL     1       9.619  10.287  20.169  0.00  0.00    +0.000 OA
ATOM      2  C   UNL     1       9.243  10.899  19.177  0.00  0.00    +0.000 C 
ATOM      3  N   UNL     1       8.448  10.389  18.158  0.00  0.00    +0.000 N 
ATOM      4  C   UNL     1       8.195   9.020  18.146  0.00  0.00    +0.000 A 
ATOM      5  N   UNL     1       8.607   8.106  18.979  0.00  0.00    +0.000 NA
ATOM      6  N   UNL     1       8.174   6.881  18.553  0.00  0.00    +0.000 NA
ATOM      7  C   UNL     1       7.476   7.057  17.445  0.00  0.00    +0.000 A 
ATOM      8  N   UNL     1       7.455   8.402  17.163  0.00  0.00    +0.000 N 
ATOM      9  H   UNL     1       8.160  11.003  17.407  0.00  0.00    +0.000 HD
ATOM     10  H   UNL     1       6.978   8.813  16.377  0.00  0.00    +0.000 HD
ENDROOT
BRANCH   2  11
ATOM     11  C   UNL     1       9.734  12.310  19.019  0.00  0.00    +0.000 A 
ATOM     12  C   UNL     1       8.921  13.309  19.550  0.00  0.00    +0.000 A 
ATOM     13  C   UNL     1       9.377  14.615  19.525  0.00  0.00    +0.000 A 
ATOM     14  C   UNL     1      10.552  14.905  18.847  0.00  0.00    +0.000 A 
ATOM     15  C   UNL     1      10.972  16.237  18.744  0.00  0.00    +0.000 A 
ATOM     16  C   UNL     1      11.729  16.615  17.650  0.00  0.00    +0.000 A 
ATOM     17  C   UNL     1      12.328  15.629  16.880  0.00  0.00    +0.000 A 
ATOM     18  C   UNL     1      12.172  14.275  17.229  0.00  0.00    +0.000 A 
ATOM     19  C   UNL     1      11.224  13.868  18.169  0.00  0.00    +0.000 A 
ATOM     20  N   UNL     1      10.897  12.556  18.351  0.00  0.00    +0.000 NA
ENDBRANCH   2  11
BRANCH   7  21
ATOM     21  C   UNL     1       6.841   6.024  16.639  0.00  0.00    +0.000 A 
ATOM     22  C   UNL     1       5.617   5.472  17.003  0.00  0.00    +0.000 A 
ATOM     23  C   UNL     1       5.078   4.469  16.196  0.00  0.00    +0.000 A 
ATOM     24  C   UNL     1       5.751   4.082  15.042  0.00  0.00    +0.000 A 
ATOM     25  C   UNL     1       6.981   4.696  14.767  0.00  0.00    +0.000 A 
ATOM     26  N   UNL     1       7.534   5.659  15.529  0.00  0.00    +0.000 NA
ENDBRANCH   7  21
TORSDOF 2
ENDMDL
MODEL 8
REMARK VINA RESULT:      -7.8      2.334      9.945
REMARK  Name = 
REMARK  2 active torsions:
REMARK  status: ('A' for Active; 'I' for Inactive)
REMARK    1  A    between atoms: C_2  and  C_15
REMARK    2  A    between atoms: C_7  and  C_8
REMARK                            x       y       z     vdW  Elec       q    Type
REMARK                         _______ _______ _______ _____ _____    ______ ____
ROOT
ATOM      1  O   UNL     1       7.780   5.491  19.248  0.00  0.00    +0.000 OA
ATOM      2  C   UNL     1       6.923   5.854  18.453  0.00  0.00    +0.000 C 
ATOM      3  N   UNL     1       6.902   7.067  17.774  0.00  0.00    +0.000 N 
ATOM      4  C   UNL     1       7.823   8.043  18.146  0.00  0.00    +0.000 A 
ATOM      5  N   UNL     1       8.739   7.991  19.072  0.00  0.00    +0.000 NA
ATOM      6  N   UNL     1       9.378   9.198  19.140  0.00  0.00    +0.000 NA
ATOM      7  C   UNL     1       8.847   9.993  18.229  0.00  0.00    +0.000 A 
ATOM      8  N   UNL     1       7.867   9.292  17.569  0.00  0.00    +0.000 N 
ATOM      9  H   UNL     1       6.165   7.241  17.103  0.00  0.00    +0.000 HD
ATOM     10  H   UNL     1       7.311   9.660  16.813  0.00  0.00    +0.000 HD
ENDROOT
BRANCH   2  11
ATOM     11  C   UNL     1       5.757   4.931  18.237  0.00  0.00    +0.000 A 
ATOM     12  C   UNL     1       5.190   4.940  16.966  0.00  0.00    +0.000 A 
ATOM     13  C   UNL     1       4.184   4.034  16.684  0.00  0.00    +0.000 A 
ATOM     14  C   UNL     1       3.675   3.252  17.711  0.00  0.00    +0.000 A 
ATOM     15  C   UNL     1       2.598   2.396  17.450  0.00  0.00    +0.000 A 
ATOM     16  C   UNL     1       1.727   2.087  18.479  0.00  0.00    +0.000 A 
ATOM     17  C   UNL     1       2.120   2.344  19.784  0.00  0.00    +0.000 A 
ATOM     18  C   UNL     1       3.389   2.894  20.040  0.00  0.00    +0.000 A 
ATOM     19  C   UNL     1       4.170   3.433  19.018  0.00  0.00    +0.000 A 
ATOM     20  N   UNL     1       5.289   4.173  19.270  0.00  0.00    +0.000 NA
ENDBRANCH   2  11
BRANCH   7  21
ATOM     21  C   UNL     1       9.209  11.378  17.961  0.00  0.00    +0.000 A 
ATOM     22  C   UNL     1      10.533  11.754  17.755  0.00  0.00    +0.000 A 
ATOM     23  C   UNL     1      10.810  13.102  17.526  0.00  0.00    +0.000 A 
ATOM     24  C   UNL     1       9.763  14.016  17.470  0.00  0.00    +0.000 A 
ATOM     25  C   UNL     1       8.466  13.538  17.697  0.00  0.00    +0.000 A 
ATOM     26  N   UNL     1       8.165  12.246  17.929  0.00  0.00    +0.000 NA
ENDBRANCH   7  21
TORSDOF 2
ENDMDL
MODEL 9
REMARK VINA RESULT:      -7.7      8.865     10.256
REMARK  Name = 
REMARK  2 active torsions:
REMARK  status: ('A' for Active; 'I' for Inactive)
REMARK    1  A    between atoms: C_2  and  C_15
REMARK    2  A    between atoms: C_7  and  C_8
REMARK                            x       y       z     vdW  Elec       q    Type
REMARK                         _______ _______ _______ _____ _____    ______ ____
ROOT
ATOM      1  O   UNL     1       0.419  11.685  19.113  0.00  0.00    +0.000 OA
ATOM      2  C   UNL     1       0.159  10.941  20.049  0.00  0.00    +0.000 C 
ATOM      3  N   UNL     1       0.698   9.677  20.260  0.00  0.00    +0.000 N 
ATOM      4  C   UNL     1       1.463   9.112  19.243  0.00  0.00    +0.000 A 
ATOM      5  N   UNL     1       1.762   9.606  18.075  0.00  0.00    +0.000 NA
ATOM      6  N   UNL     1       2.481   8.684  17.367  0.00  0.00    +0.000 NA
ATOM      7  C   UNL     1       2.631   7.613  18.126  0.00  0.00    +0.000 A 
ATOM      8  N   UNL     1       2.011   7.852  19.329  0.00  0.00    +0.000 N 
ATOM      9  H   UNL     1       0.443   9.169  21.097  0.00  0.00    +0.000 HD
ATOM     10  H   UNL     1       1.987   7.202  20.098  0.00  0.00    +0.000 HD
ENDROOT
BRANCH   2  11
ATOM     11  C   UNL     1      -0.882  11.411  21.026  0.00  0.00    +0.000 A 
ATOM     12  C   UNL     1      -0.781  10.912  22.322  0.00  0.00    +0.000 A 
ATOM     13  C   UNL     1      -1.649  11.394  23.285  0.00  0.00    +0.000 A 
ATOM     14  C   UNL     1      -2.678  12.242  22.900  0.00  0.00    +0.000 A 
ATOM     15  C   UNL     1      -3.611  12.664  23.855  0.00  0.00    +0.000 A 
ATOM     16  C   UNL     1      -4.895  12.974  23.443  0.00  0.00    +0.000 A 
ATOM     17  C   UNL     1      -5.128  13.186  22.092  0.00  0.00    +0.000 A 
ATOM     18  C   UNL     1      -4.065  13.100  21.174  0.00  0.00    +0.000 A 
ATOM     19  C   UNL     1      -2.833  12.554  21.534  0.00  0.00    +0.000 A 
ATOM     20  N   UNL     1      -1.875  12.249  20.611  0.00  0.00    +0.000 NA
ENDBRANCH   2  11
BRANCH   7  21
ATOM     21  C   UNL     1       3.318   6.379  17.770  0.00  0.00    +0.000 A 
ATOM     22  C   UNL     1       2.702   5.140  17.913  0.00  0.00    +0.000 A 
ATOM     23  C   UNL     1       3.427   3.997  17.574  0.00  0.00    +0.000 A 
ATOM     24  C   UNL     1       4.717   4.130  17.069  0.00  0.00    +0.000 A 
ATOM     25  C   UNL     1       5.249   5.422  16.969  0.00  0.00    +0.000 A 
ATOM     26  N   UNL     1       4.580   6.544  17.296  0.00  0.00    +0.000 NA
ENDBRANCH   7  21
TORSDOF 2
ENDMDL
