MODEL 1
REMARK VINA RESULT:      -8.0      0.000      0.000
REMARK  Name = 
REMARK  8 active torsions:
REMARK  status: ('A' for Active; 'I' for Inactive)
REMARK    1  A    between atoms: C_1  and  N_2
REMARK    2  A    between atoms: C_6  and  C_7
REMARK    3  A    between atoms: C_7  and  C_8
REMARK    4  A    between atoms: C_11  and  C_12
REMARK    5  A    between atoms: C_14  and  N_15
REMARK    6  A    between atoms: C_20  and  C_21
REMARK    7  A    between atoms: C_21  and  N_22
REMARK    8  A    between atoms: C_24  and  C_25
REMARK                            x       y       z     vdW  Elec       q    Type
REMARK                         _______ _______ _______ _____ _____    ______ ____
ROOT
ATOM      1  N   UNL     1       4.371   3.744  19.181  0.00  0.00    +0.000 N 
ATOM      2  C   UNL     1       5.635   4.527  19.196  0.00  0.00    +0.000 C 
ATOM      3  C   UNL     1       6.001   4.599  17.748  0.00  0.00    +0.000 A 
ATOM      4  C   UNL     1       5.418   3.503  17.112  0.00  0.00    +0.000 A 
ATOM      5  C   UNL     1       5.416   3.336  15.739  0.00  0.00    +0.000 A 
ATOM      6  C   UNL     1       5.989   4.350  14.959  0.00  0.00    +0.000 A 
ATOM      7  C   UNL     1       6.580   5.466  15.601  0.00  0.00    +0.000 A 
ATOM      8  C   UNL     1       6.593   5.616  17.005  0.00  0.00    +0.000 A 
ATOM      9  C   UNL     1       4.438   2.906  18.050  0.00  0.00    +0.000 C 
ATOM     10  O   UNL     1       3.700   1.978  17.764  0.00  0.00    +0.000 OA
ENDROOT
BRANCH   1  15
ATOM     11  C   UNL     1       2.682   6.768  18.255  0.00  0.00    +0.000 A 
ATOM     12  C   UNL     1       1.654   6.138  17.544  0.00  0.00    +0.000 A 
ATOM     13  C   UNL     1       1.259   4.852  17.897  0.00  0.00    +0.000 A 
ATOM     14  C   UNL     1       1.951   4.154  18.892  0.00  0.00    +0.000 A 
ATOM     15  C   UNL     1       3.221   4.631  19.283  0.00  0.00    +0.000 A 
ATOM     16  C   UNL     1       3.515   5.985  19.062  0.00  0.00    +0.000 A 
BRANCH  14  17
ATOM     17  C   UNL     1       1.206   3.067  19.624  0.00  0.00    +0.000 C 
ATOM     18  F   UNL     1       0.490   2.255  18.797  0.00  0.00    +0.000 F 
ENDBRANCH  14  17
BRANCH  11  19
ATOM     19  C   UNL     1       2.831   8.267  18.168  0.00  0.00    +0.000 C 
BRANCH  19  25
ATOM     20  C   UNL     1       1.552   8.418  21.005  0.00  0.00    +0.000 C 
ATOM     21  N   UNL     1       1.073   9.060  19.813  0.00  0.00    +0.000 N 
ATOM     22  C   UNL     1      -0.093   9.756  19.697  0.00  0.00    +0.000 A 
ATOM     23  N   UNL     1      -0.227  10.185  18.466  0.00  0.00    +0.000 NA
ATOM     24  N   UNL     1       0.860   9.745  17.751  0.00  0.00    +0.000 NA
ATOM     25  C   UNL     1       1.638   9.055  18.562  0.00  0.00    +0.000 A 
ENDBRANCH  19  25
ENDBRANCH  11  19
ENDBRANCH   1  15
BRANCH   8  26
ATOM     26  C   UNL     1       7.090   6.911  17.599  0.00  0.00    +0.000 C 
ATOM     27  F   UNL     1       6.107   7.823  17.835  0.00  0.00    +0.000 F 
ATOM     28  F   UNL     1       7.708   6.723  18.798  0.00  0.00    +0.000 F 
ATOM     29  F   UNL     1       7.997   7.538  16.801  0.00  0.00    +0.000 F 
ENDBRANCH   8  26
BRANCH   6  30
ATOM     30  C   UNL     1       5.865   4.312  13.456  0.00  0.00    +0.000 C 
BRANCH  30  31
ATOM     31  N   UNL     1       6.263   3.014  12.923  0.00  0.00    +0.000 NA
ATOM     32  H   UNL     1       5.523   2.658  12.316  0.00  0.00    +0.000 HD
ATOM     33  H   UNL     1       6.354   2.347  13.687  0.00  0.00    +0.000 HD
ENDBRANCH  30  31
ENDBRANCH   6  30
TORSDOF 7
ENDMDL
MODEL 2
REMARK VINA RESULT:      -7.6      0.850      1.385
REMARK  Name = 
REMARK  8 active torsions:
REMARK  status: ('A' for Active; 'I' for Inactive)
REMARK    1  A    between atoms: C_1  and  N_2
REMARK    2  A    between atoms: C_6  and  C_7
REMARK    3  A    between atoms: C_7  and  C_8
REMARK    4  A    between atoms: C_11  and  C_12
REMARK    5  A    between atoms: C_14  and  N_15
REMARK    6  A    between atoms: C_20  and  C_21
REMARK    7  A    between atoms: C_21  and  N_22
REMARK    8  A    between atoms: C_24  and  C_25
REMARK                            x       y       z     vdW  Elec       q    Type
REMARK                         _______ _______ _______ _____ _____    ______ ____
ROOT
ATOM      1  N   UNL     1       4.533   3.716  19.279  0.00  0.00    +0.000 N 
ATOM      2  C   UNL     1       5.767   4.542  19.212  0.00  0.00    +0.000 C 
ATOM      3  C   UNL     1       6.052   4.599  17.745  0.00  0.00    +0.000 A 
ATOM      4  C   UNL     1       5.475   3.471  17.160  0.00  0.00    +0.000 A 
ATOM      5  C   UNL     1       5.404   3.279  15.792  0.00  0.00    +0.000 A 
ATOM      6  C   UNL     1       5.899   4.297  14.966  0.00  0.00    +0.000 A 
ATOM      7  C   UNL     1       6.484   5.445  15.555  0.00  0.00    +0.000 A 
ATOM      8  C   UNL     1       6.567   5.622  16.953  0.00  0.00    +0.000 A 
ATOM      9  C   UNL     1       4.569   2.859  18.159  0.00  0.00    +0.000 C 
ATOM     10  O   UNL     1       3.849   1.900  17.930  0.00  0.00    +0.000 OA
ENDROOT
BRANCH   1  15
ATOM     11  C   UNL     1       2.637   6.601  18.314  0.00  0.00    +0.000 A 
ATOM     12  C   UNL     1       1.577   5.884  17.747  0.00  0.00    +0.000 A 
ATOM     13  C   UNL     1       1.272   4.613  18.220  0.00  0.00    +0.000 A 
ATOM     14  C   UNL     1       2.081   4.013  19.190  0.00  0.00    +0.000 A 
ATOM     15  C   UNL     1       3.360   4.563  19.428  0.00  0.00    +0.000 A 
ATOM     16  C   UNL     1       3.573   5.908  19.091  0.00  0.00    +0.000 A 
BRANCH  14  17
ATOM     17  C   UNL     1       1.454   2.954  20.059  0.00  0.00    +0.000 C 
ATOM     18  F   UNL     1       1.592   3.200  21.393  0.00  0.00    +0.000 F 
ENDBRANCH  14  17
BRANCH  11  19
ATOM     19  C   UNL     1       2.711   8.094  18.114  0.00  0.00    +0.000 C 
BRANCH  19  25
ATOM     20  C   UNL     1       2.125  11.143  17.846  0.00  0.00    +0.000 C 
ATOM     21  N   UNL     1       1.618  10.257  18.856  0.00  0.00    +0.000 N 
ATOM     22  C   UNL     1       0.881  10.627  19.941  0.00  0.00    +0.000 A 
ATOM     23  N   UNL     1       0.609   9.570  20.667  0.00  0.00    +0.000 NA
ATOM     24  N   UNL     1       1.195   8.486  20.060  0.00  0.00    +0.000 NA
ATOM     25  C   UNL     1       1.815   8.904  18.975  0.00  0.00    +0.000 A 
ENDBRANCH  19  25
ENDBRANCH  11  19
ENDBRANCH   1  15
BRANCH   8  26
ATOM     26  C   UNL     1       7.048   6.944  17.498  0.00  0.00    +0.000 C 
ATOM     27  F   UNL     1       7.939   7.582  16.691  0.00  0.00    +0.000 F 
ATOM     28  F   UNL     1       6.027   7.827  17.683  0.00  0.00    +0.000 F 
ATOM     29  F   UNL     1       7.662   6.819  18.706  0.00  0.00    +0.000 F 
ENDBRANCH   8  26
BRANCH   6  30
ATOM     30  C   UNL     1       5.695   4.227  13.472  0.00  0.00    +0.000 C 
BRANCH  30  31
ATOM     31  N   UNL     1       6.348   3.054  12.902  0.00  0.00    +0.000 NA
ATOM     32  H   UNL     1       7.324   3.031  13.204  0.00  0.00    +0.000 HD
ATOM     33  H   UNL     1       6.365   3.135  11.886  0.00  0.00    +0.000 HD
ENDBRANCH  30  31
ENDBRANCH   6  30
TORSDOF 7
ENDMDL
MODEL 3
REMARK VINA RESULT:      -6.9      1.000      1.285
REMARK  Name = 
REMARK  8 active torsions:
REMARK  status: ('A' for Active; 'I' for Inactive)
REMARK    1  A    between atoms: C_1  and  N_2
REMARK    2  A    between atoms: C_6  and  C_7
REMARK    3  A    between atoms: C_7  and  C_8
REMARK    4  A    between atoms: C_11  and  C_12
REMARK    5  A    between atoms: C_14  and  N_15
REMARK    6  A    between atoms: C_20  and  C_21
REMARK    7  A    between atoms: C_21  and  N_22
REMARK    8  A    between atoms: C_24  and  C_25
REMARK                            x       y       z     vdW  Elec       q    Type
REMARK                         _______ _______ _______ _____ _____    ______ ____
ROOT
ATOM      1  N   UNL     1       4.030   3.142  18.984  0.00  0.00    +0.000 N 
ATOM      2  C   UNL     1       5.374   3.639  19.380  0.00  0.00    +0.000 C 
ATOM      3  C   UNL     1       6.004   3.981  18.067  0.00  0.00    +0.000 A 
ATOM      4  C   UNL     1       5.386   3.203  17.089  0.00  0.00    +0.000 A 
ATOM      5  C   UNL     1       5.608   3.371  15.734  0.00  0.00    +0.000 A 
ATOM      6  C   UNL     1       6.461   4.411  15.339  0.00  0.00    +0.000 A 
ATOM      7  C   UNL     1       7.089   5.206  16.329  0.00  0.00    +0.000 A 
ATOM      8  C   UNL     1       6.869   5.012  17.710  0.00  0.00    +0.000 A 
ATOM      9  C   UNL     1       4.173   2.601  17.690  0.00  0.00    +0.000 C 
ATOM     10  O   UNL     1       3.366   1.928  17.069  0.00  0.00    +0.000 OA
ENDROOT
BRANCH   1  15
ATOM     11  C   UNL     1       2.787   6.420  18.235  0.00  0.00    +0.000 A 
ATOM     12  C   UNL     1       1.655   5.981  17.537  0.00  0.00    +0.000 A 
ATOM     13  C   UNL     1       1.083   4.754  17.854  0.00  0.00    +0.000 A 
ATOM     14  C   UNL     1       1.691   3.919  18.796  0.00  0.00    +0.000 A 
ATOM     15  C   UNL     1       3.030   4.184  19.161  0.00  0.00    +0.000 A 
ATOM     16  C   UNL     1       3.516   5.488  18.981  0.00  0.00    +0.000 A 
BRANCH  14  17
ATOM     17  C   UNL     1       0.814   2.923  19.511  0.00  0.00    +0.000 C 
ATOM     18  F   UNL     1       0.672   3.188  20.840  0.00  0.00    +0.000 F 
ENDBRANCH  14  17
BRANCH  11  19
ATOM     19  C   UNL     1       3.155   7.883  18.200  0.00  0.00    +0.000 C 
BRANCH  19  25
ATOM     20  C   UNL     1       1.499   8.099  20.832  0.00  0.00    +0.000 C 
ATOM     21  N   UNL     1       1.309   8.866  19.633  0.00  0.00    +0.000 N 
ATOM     22  C   UNL     1       0.292   9.743  19.403  0.00  0.00    +0.000 A 
ATOM     23  N   UNL     1       0.411  10.247  18.199  0.00  0.00    +0.000 NA
ATOM     24  N   UNL     1       1.516   9.675  17.615  0.00  0.00    +0.000 NA
ATOM     25  C   UNL     1       2.049   8.831  18.477  0.00  0.00    +0.000 A 
ENDBRANCH  19  25
ENDBRANCH  11  19
ENDBRANCH   1  15
BRANCH   8  26
ATOM     26  C   UNL     1       7.441   6.007  18.690  0.00  0.00    +0.000 C 
ATOM     27  F   UNL     1       8.583   5.588  19.299  0.00  0.00    +0.000 F 
ATOM     28  F   UNL     1       7.758   7.191  18.095  0.00  0.00    +0.000 F 
ATOM     29  F   UNL     1       6.572   6.310  19.693  0.00  0.00    +0.000 F 
ENDBRANCH   8  26
BRANCH   6  30
ATOM     30  C   UNL     1       6.608   4.757  13.877  0.00  0.00    +0.000 C 
BRANCH  30  31
ATOM     31  N   UNL     1       7.836   5.505  13.630  0.00  0.00    +0.000 NA
ATOM     32  H   UNL     1       8.459   5.405  14.434  0.00  0.00    +0.000 HD
ATOM     33  H   UNL     1       7.620   6.497  13.556  0.00  0.00    +0.000 HD
ENDBRANCH  30  31
ENDBRANCH   6  30
TORSDOF 7
ENDMDL
MODEL 4
REMARK VINA RESULT:      -6.8      4.257      8.757
REMARK  Name = 
REMARK  8 active torsions:
REMARK  status: ('A' for Active; 'I' for Inactive)
REMARK    1  A    between atoms: C_1  and  N_2
REMARK    2  A    between atoms: C_6  and  C_7
REMARK    3  A    between atoms: C_7  and  C_8
REMARK    4  A    between atoms: C_11  and  C_12
REMARK    5  A    between atoms: C_14  and  N_15
REMARK    6  A    between atoms: C_20  and  C_21
REMARK    7  A    between atoms: C_21  and  N_22
REMARK    8  A    between atoms: C_24  and  C_25
REMARK                            x       y       z     vdW  Elec       q    Type
REMARK                         _______ _______ _______ _____ _____    ______ ____
ROOT
ATOM      1  N   UNL     1       0.073   9.046  20.996  0.00  0.00    +0.000 N 
ATOM      2  C   UNL     1      -1.058   9.058  20.031  0.00  0.00    +0.000 C 
ATOM      3  C   UNL     1      -1.317  10.519  19.840  0.00  0.00    +0.000 A 
ATOM      4  C   UNL     1      -0.865  11.179  20.983  0.00  0.00    +0.000 A 
ATOM      5  C   UNL     1      -0.801  12.557  21.087  0.00  0.00    +0.000 A 
ATOM      6  C   UNL     1      -1.167  13.312  19.963  0.00  0.00    +0.000 A 
ATOM      7  C   UNL     1      -1.624  12.645  18.800  0.00  0.00    +0.000 A 
ATOM      8  C   UNL     1      -1.703  11.238  18.713  0.00  0.00    +0.000 A 
ATOM      9  C   UNL     1      -0.047  10.222  21.763  0.00  0.00    +0.000 C 
ATOM     10  O   UNL     1       0.561  10.516  22.779  0.00  0.00    +0.000 OA
ENDROOT
BRANCH   1  15
ATOM     11  C   UNL     1       2.451   6.835  19.476  0.00  0.00    +0.000 A 
ATOM     12  C   UNL     1       2.244   7.290  18.168  0.00  0.00    +0.000 A 
ATOM     13  C   UNL     1       1.830   8.599  17.951  0.00  0.00    +0.000 A 
ATOM     14  C   UNL     1       1.528   9.429  19.035  0.00  0.00    +0.000 A 
ATOM     15  C   UNL     1       1.333   8.832  20.300  0.00  0.00    +0.000 A 
ATOM     16  C   UNL     1       1.916   7.578  20.535  0.00  0.00    +0.000 A 
BRANCH  14  17
ATOM     17  C   UNL     1       1.638  10.917  18.824  0.00  0.00    +0.000 C 
ATOM     18  F   UNL     1       2.490  11.256  17.816  0.00  0.00    +0.000 F 
ENDBRANCH  14  17
BRANCH  11  19
ATOM     19  C   UNL     1       3.279   5.595  19.705  0.00  0.00    +0.000 C 
BRANCH  19  25
ATOM     20  C   UNL     1       2.139   3.431  17.774  0.00  0.00    +0.000 C 
ATOM     21  N   UNL     1       1.993   3.469  19.202  0.00  0.00    +0.000 N 
ATOM     22  C   UNL     1       1.229   2.621  19.946  0.00  0.00    +0.000 A 
ATOM     23  N   UNL     1       1.305   2.957  21.210  0.00  0.00    +0.000 NA
ATOM     24  N   UNL     1       2.118   4.061  21.299  0.00  0.00    +0.000 NA
ATOM     25  C   UNL     1       2.522   4.377  20.084  0.00  0.00    +0.000 A 
ENDBRANCH  19  25
ENDBRANCH  11  19
ENDBRANCH   1  15
BRANCH   8  26
ATOM     26  C   UNL     1      -2.037  10.604  17.385  0.00  0.00    +0.000 C 
ATOM     27  F   UNL     1      -3.180   9.864  17.399  0.00  0.00    +0.000 F 
ATOM     28  F   UNL     1      -2.215  11.530  16.402  0.00  0.00    +0.000 F 
ATOM     29  F   UNL     1      -1.058   9.769  16.943  0.00  0.00    +0.000 F 
ENDBRANCH   8  26
BRANCH   6  30
ATOM     30  C   UNL     1      -0.955  14.806  19.952  0.00  0.00    +0.000 C 
BRANCH  30  31
ATOM     31  N   UNL     1      -0.580  15.279  18.624  0.00  0.00    +0.000 NA
ATOM     32  H   UNL     1       0.401  15.566  18.634  0.00  0.00    +0.000 HD
ATOM     33  H   UNL     1      -1.120  16.112  18.395  0.00  0.00    +0.000 HD
ENDBRANCH  30  31
ENDBRANCH   6  30
TORSDOF 7
ENDMDL
MODEL 5
REMARK VINA RESULT:      -6.8      4.206      8.795
REMARK  Name = 
REMARK  8 active torsions:
REMARK  status: ('A' for Active; 'I' for Inactive)
REMARK    1  A    between atoms: C_1  and  N_2
REMARK    2  A    between atoms: C_6  and  C_7
REMARK    3  A    between atoms: C_7  and  C_8
REMARK    4  A    between atoms: C_11  and  C_12
REMARK    5  A    between atoms: C_14  and  N_15
REMARK    6  A    between atoms: C_20  and  C_21
REMARK    7  A    between atoms: C_21  and  N_22
REMARK    8  A    between atoms: C_24  and  C_25
REMARK                            x       y       z     vdW  Elec       q    Type
REMARK                         _______ _______ _______ _____ _____    ______ ____
ROOT
ATOM      1  N   UNL     1       0.159   9.043  20.960  0.00  0.00    +0.000 N 
ATOM      2  C   UNL     1      -0.995   9.028  20.022  0.00  0.00    +0.000 C 
ATOM      3  C   UNL     1      -1.274  10.483  19.813  0.00  0.00    +0.000 A 
ATOM      4  C   UNL     1      -0.803  11.166  20.934  0.00  0.00    +0.000 A 
ATOM      5  C   UNL     1      -0.752  12.546  21.014  0.00  0.00    +0.000 A 
ATOM      6  C   UNL     1      -1.152  13.279  19.888  0.00  0.00    +0.000 A 
ATOM      7  C   UNL     1      -1.629  12.588  18.746  0.00  0.00    +0.000 A 
ATOM      8  C   UNL     1      -1.694  11.179  18.683  0.00  0.00    +0.000 A 
ATOM      9  C   UNL     1       0.044  10.231  21.710  0.00  0.00    +0.000 C 
ATOM     10  O   UNL     1       0.672  10.547  22.707  0.00  0.00    +0.000 OA
ENDROOT
BRANCH   1  15
ATOM     11  C   UNL     1       2.427   6.862  19.243  0.00  0.00    +0.000 A 
ATOM     12  C   UNL     1       2.235   7.432  17.979  0.00  0.00    +0.000 A 
ATOM     13  C   UNL     1       1.880   8.772  17.874  0.00  0.00    +0.000 A 
ATOM     14  C   UNL     1       1.621   9.522  19.025  0.00  0.00    +0.000 A 
ATOM     15  C   UNL     1       1.405   8.832  20.238  0.00  0.00    +0.000 A 
ATOM     16  C   UNL     1       1.932   7.537  20.364  0.00  0.00    +0.000 A 
BRANCH  14  17
ATOM     17  C   UNL     1       1.797  11.016  18.936  0.00  0.00    +0.000 C 
ATOM     18  F   UNL     1       2.410  11.418  17.787  0.00  0.00    +0.000 F 
ENDBRANCH  14  17
BRANCH  11  19
ATOM     19  C   UNL     1       3.199   5.571  19.362  0.00  0.00    +0.000 C 
BRANCH  19  25
ATOM     20  C   UNL     1       1.174   3.628  20.717  0.00  0.00    +0.000 C 
ATOM     21  N   UNL     1       1.710   3.519  19.390  0.00  0.00    +0.000 N 
ATOM     22  C   UNL     1       1.510   2.478  18.534  0.00  0.00    +0.000 A 
ATOM     23  N   UNL     1       2.165   2.695  17.419  0.00  0.00    +0.000 NA
ATOM     24  N   UNL     1       2.827   3.891  17.551  0.00  0.00    +0.000 NA
ATOM     25  C   UNL     1       2.562   4.381  18.746  0.00  0.00    +0.000 A 
ENDBRANCH  19  25
ENDBRANCH  11  19
ENDBRANCH   1  15
BRANCH   8  26
ATOM     26  C   UNL     1      -2.052  10.520  17.375  0.00  0.00    +0.000 C 
ATOM     27  F   UNL     1      -2.303  11.397  16.365  0.00  0.00    +0.000 F 
ATOM     28  F   UNL     1      -1.056   9.712  16.916  0.00  0.00    +0.000 F 
ATOM     29  F   UNL     1      -3.159   9.735  17.471  0.00  0.00    +0.000 F 
ENDBRANCH   8  26
BRANCH   6  30
ATOM     30  C   UNL     1      -0.957  14.775  19.848  0.00  0.00    +0.000 C 
BRANCH  30  31
ATOM     31  N   UNL     1      -2.187  15.479  20.190  0.00  0.00    +0.000 NA
ATOM     32  H   UNL     1      -1.959  16.304  20.748  0.00  0.00    +0.000 HD
ATOM     33  H   UNL     1      -2.766  14.885  20.782  0.00  0.00    +0.000 HD
ENDBRANCH  30  31
ENDBRANCH   6  30
TORSDOF 7
ENDMDL
MODEL 6
REMARK VINA RESULT:      -6.5      3.752      8.524
REMARK  Name = 
REMARK  8 active torsions:
REMARK  status: ('A' for Active; 'I' for Inactive)
REMARK    1  A    between atoms: C_1  and  N_2
REMARK    2  A    between atoms: C_6  and  C_7
REMARK    3  A    between atoms: C_7  and  C_8
REMARK    4  A    between atoms: C_11  and  C_12
REMARK    5  A    between atoms: C_14  and  N_15
REMARK    6  A    between atoms: C_20  and  C_21
REMARK    7  A    between atoms: C_21  and  N_22
REMARK    8  A    between atoms: C_24  and  C_25
REMARK                            x       y       z     vdW  Elec       q    Type
REMARK                         _______ _______ _______ _____ _____    ______ ____
ROOT
ATOM      1  N   UNL     1       0.744   8.357  21.114  0.00  0.00    +0.000 N 
ATOM      2  C   UNL     1      -0.504   8.531  20.325  0.00  0.00    +0.000 C 
ATOM      3  C   UNL     1      -0.662  10.017  20.273  0.00  0.00    +0.000 A 
ATOM      4  C   UNL     1      -0.003  10.549  21.382  0.00  0.00    +0.000 A 
ATOM      5  C   UNL     1       0.191  11.906  21.569  0.00  0.00    +0.000 A 
ATOM      6  C   UNL     1      -0.260  12.772  20.564  0.00  0.00    +0.000 A 
ATOM      7  C   UNL     1      -0.928  12.236  19.435  0.00  0.00    +0.000 A 
ATOM      8  C   UNL     1      -1.137  10.850  19.264  0.00  0.00    +0.000 A 
ATOM      9  C   UNL     1       0.831   9.475  21.969  0.00  0.00    +0.000 C 
ATOM     10  O   UNL     1       1.596   9.641  22.905  0.00  0.00    +0.000 OA
ENDROOT
BRANCH   1  15
ATOM     11  C   UNL     1       2.771   6.081  19.226  0.00  0.00    +0.000 A 
ATOM     12  C   UNL     1       2.386   6.566  17.970  0.00  0.00    +0.000 A 
ATOM     13  C   UNL     1       1.998   7.894  17.832  0.00  0.00    +0.000 A 
ATOM     14  C   UNL     1       1.898   8.716  18.959  0.00  0.00    +0.000 A 
ATOM     15  C   UNL     1       1.874   8.106  20.232  0.00  0.00    +0.000 A 
ATOM     16  C   UNL     1       2.434   6.827  20.362  0.00  0.00    +0.000 A 
BRANCH  14  17
ATOM     17  C   UNL     1       2.036  10.202  18.748  0.00  0.00    +0.000 C 
ATOM     18  F   UNL     1       2.257  10.544  17.448  0.00  0.00    +0.000 F 
ENDBRANCH  14  17
BRANCH  11  19
ATOM     19  C   UNL     1       3.572   4.807  19.313  0.00  0.00    +0.000 C 
BRANCH  19  25
ATOM     20  C   UNL     1       4.742   4.113  16.509  0.00  0.00    +0.000 C 
ATOM     21  N   UNL     1       5.479   4.549  17.662  0.00  0.00    +0.000 N 
ATOM     22  C   UNL     1       6.836   4.623  17.758  0.00  0.00    +0.000 A 
ATOM     23  N   UNL     1       7.169   5.036  18.956  0.00  0.00    +0.000 NA
ATOM     24  N   UNL     1       6.010   5.216  19.672  0.00  0.00    +0.000 NA
ATOM     25  C   UNL     1       4.992   4.909  18.894  0.00  0.00    +0.000 A 
ENDBRANCH  19  25
ENDBRANCH  11  19
ENDBRANCH   1  15
BRANCH   8  26
ATOM     26  C   UNL     1      -1.703  10.350  17.958  0.00  0.00    +0.000 C 
ATOM     27  F   UNL     1      -0.827   9.612  17.223  0.00  0.00    +0.000 F 
ATOM     28  F   UNL     1      -2.790   9.549  18.142  0.00  0.00    +0.000 F 
ATOM     29  F   UNL     1      -2.113  11.361  17.146  0.00  0.00    +0.000 F 
ENDBRANCH   8  26
BRANCH   6  30
ATOM     30  C   UNL     1       0.074  14.243  20.624  0.00  0.00    +0.000 C 
BRANCH  30  31
ATOM     31  N   UNL     1       0.402  14.657  21.983  0.00  0.00    +0.000 NA
ATOM     32  H   UNL     1      -0.451  14.959  22.459  0.00  0.00    +0.000 HD
ATOM     33  H   UNL     1       1.015  15.471  21.952  0.00  0.00    +0.000 HD
ENDBRANCH  30  31
ENDBRANCH   6  30
TORSDOF 7
ENDMDL
MODEL 7
REMARK VINA RESULT:      -6.5      1.527      2.027
REMARK  Name = 
REMARK  8 active torsions:
REMARK  status: ('A' for Active; 'I' for Inactive)
REMARK    1  A    between atoms: C_1  and  N_2
REMARK    2  A    between atoms: C_6  and  C_7
REMARK    3  A    between atoms: C_7  and  C_8
REMARK    4  A    between atoms: C_11  and  C_12
REMARK    5  A    between atoms: C_14  and  N_15
REMARK    6  A    between atoms: C_20  and  C_21
REMARK    7  A    between atoms: C_21  and  N_22
REMARK    8  A    between atoms: C_24  and  C_25
REMARK                            x       y       z     vdW  Elec       q    Type
REMARK                         _______ _______ _______ _____ _____    ______ ____
ROOT
ATOM      1  N   UNL     1       4.147   2.979  19.481  0.00  0.00    +0.000 N 
ATOM      2  C   UNL     1       5.595   3.282  19.632  0.00  0.00    +0.000 C 
ATOM      3  C   UNL     1       5.932   3.951  18.337  0.00  0.00    +0.000 A 
ATOM      4  C   UNL     1       5.016   3.509  17.383  0.00  0.00    +0.000 A 
ATOM      5  C   UNL     1       4.930   4.042  16.110  0.00  0.00    +0.000 A 
ATOM      6  C   UNL     1       5.780   5.111  15.794  0.00  0.00    +0.000 A 
ATOM      7  C   UNL     1       6.711   5.565  16.760  0.00  0.00    +0.000 A 
ATOM      8  C   UNL     1       6.802   5.000  18.051  0.00  0.00    +0.000 A 
ATOM      9  C   UNL     1       3.918   2.818  18.099  0.00  0.00    +0.000 C 
ATOM     10  O   UNL     1       2.916   2.385  17.555  0.00  0.00    +0.000 OA
ENDROOT
BRANCH   1  15
ATOM     11  C   UNL     1       2.286   6.043  19.458  0.00  0.00    +0.000 A 
ATOM     12  C   UNL     1       1.037   5.446  19.661  0.00  0.00    +0.000 A 
ATOM     13  C   UNL     1       0.952   4.241  20.351  0.00  0.00    +0.000 A 
ATOM     14  C   UNL     1       2.117   3.581  20.754  0.00  0.00    +0.000 A 
ATOM     15  C   UNL     1       3.344   3.973  20.176  0.00  0.00    +0.000 A 
ATOM     16  C   UNL     1       3.437   5.267  19.641  0.00  0.00    +0.000 A 
BRANCH  14  17
ATOM     17  C   UNL     1       2.011   2.642  21.929  0.00  0.00    +0.000 C 
ATOM     18  F   UNL     1       0.731   2.454  22.355  0.00  0.00    +0.000 F 
ENDBRANCH  14  17
BRANCH  11  19
ATOM     19  C   UNL     1       2.356   7.506  19.098  0.00  0.00    +0.000 C 
BRANCH  19  25
ATOM     20  C   UNL     1       0.772  10.047  18.234  0.00  0.00    +0.000 C 
ATOM     21  N   UNL     1       0.951   9.562  19.574  0.00  0.00    +0.000 N 
ATOM     22  C   UNL     1       0.552  10.199  20.710  0.00  0.00    +0.000 A 
ATOM     23  N   UNL     1       0.896   9.487  21.756  0.00  0.00    +0.000 NA
ATOM     24  N   UNL     1       1.555   8.371  21.301  0.00  0.00    +0.000 NA
ATOM     25  C   UNL     1       1.599   8.424  19.985  0.00  0.00    +0.000 A 
ENDBRANCH  19  25
ENDBRANCH  11  19
ENDBRANCH   1  15
BRANCH   8  26
ATOM     26  C   UNL     1       7.699   5.651  19.074  0.00  0.00    +0.000 C 
ATOM     27  F   UNL     1       7.095   5.880  20.272  0.00  0.00    +0.000 F 
ATOM     28  F   UNL     1       8.794   4.890  19.357  0.00  0.00    +0.000 F 
ATOM     29  F   UNL     1       8.176   6.856  18.660  0.00  0.00    +0.000 F 
ENDBRANCH   8  26
BRANCH   6  30
ATOM     30  C   UNL     1       5.617   5.848  14.487  0.00  0.00    +0.000 C 
BRANCH  30  31
ATOM     31  N   UNL     1       6.737   5.589  13.588  0.00  0.00    +0.000 NA
ATOM     32  H   UNL     1       6.853   6.384  12.957  0.00  0.00    +0.000 HD
ATOM     33  H   UNL     1       6.521   4.786  13.000  0.00  0.00    +0.000 HD
ENDBRANCH  30  31
ENDBRANCH   6  30
TORSDOF 7
ENDMDL
MODEL 8
REMARK VINA RESULT:      -6.5      3.974      8.673
REMARK  Name = 
REMARK  8 active torsions:
REMARK  status: ('A' for Active; 'I' for Inactive)
REMARK    1  A    between atoms: C_1  and  N_2
REMARK    2  A    between atoms: C_6  and  C_7
REMARK    3  A    between atoms: C_7  and  C_8
REMARK    4  A    between atoms: C_11  and  C_12
REMARK    5  A    between atoms: C_14  and  N_15
REMARK    6  A    between atoms: C_20  and  C_21
REMARK    7  A    between atoms: C_21  and  N_22
REMARK    8  A    between atoms: C_24  and  C_25
REMARK                            x       y       z     vdW  Elec       q    Type
REMARK                         _______ _______ _______ _____ _____    ______ ____
ROOT
ATOM      1  N   UNL     1       0.157   9.093  20.924  0.00  0.00    +0.000 N 
ATOM      2  C   UNL     1      -0.985   9.045  19.974  0.00  0.00    +0.000 C 
ATOM      3  C   UNL     1      -1.193  10.485  19.628  0.00  0.00    +0.000 A 
ATOM      4  C   UNL     1      -0.702  11.247  20.688  0.00  0.00    +0.000 A 
ATOM      5  C   UNL     1      -0.586  12.625  20.641  0.00  0.00    +0.000 A 
ATOM      6  C   UNL     1      -0.938  13.267  19.446  0.00  0.00    +0.000 A 
ATOM      7  C   UNL     1      -1.435  12.496  18.366  0.00  0.00    +0.000 A 
ATOM      8  C   UNL     1      -1.566  11.092  18.432  0.00  0.00    +0.000 A 
ATOM      9  C   UNL     1       0.091  10.350  21.560  0.00  0.00    +0.000 C 
ATOM     10  O   UNL     1       0.722  10.728  22.533  0.00  0.00    +0.000 OA
ENDROOT
BRANCH   1  15
ATOM     11  C   UNL     1       2.373   6.650  19.520  0.00  0.00    +0.000 A 
ATOM     12  C   UNL     1       2.201   7.057  18.191  0.00  0.00    +0.000 A 
ATOM     13  C   UNL     1       1.881   8.380  17.911  0.00  0.00    +0.000 A 
ATOM     14  C   UNL     1       1.638   9.279  18.954  0.00  0.00    +0.000 A 
ATOM     15  C   UNL     1       1.400   8.758  20.245  0.00  0.00    +0.000 A 
ATOM     16  C   UNL     1       1.892   7.478  20.540  0.00  0.00    +0.000 A 
BRANCH  14  17
ATOM     17  C   UNL     1       1.854  10.744  18.673  0.00  0.00    +0.000 C 
ATOM     18  F   UNL     1       2.445  10.980  17.468  0.00  0.00    +0.000 F 
ENDBRANCH  14  17
BRANCH  11  19
ATOM     19  C   UNL     1       3.111   5.367  19.810  0.00  0.00    +0.000 C 
BRANCH  19  25
ATOM     20  C   UNL     1       4.644   4.009  17.461  0.00  0.00    +0.000 C 
ATOM     21  N   UNL     1       3.353   3.640  17.970  0.00  0.00    +0.000 N 
ATOM     22  C   UNL     1       2.525   2.700  17.433  0.00  0.00    +0.000 A 
ATOM     23  N   UNL     1       1.420   2.637  18.134  0.00  0.00    +0.000 NA
ATOM     24  N   UNL     1       1.511   3.569  19.139  0.00  0.00    +0.000 NA
ATOM     25  C   UNL     1       2.672   4.182  19.031  0.00  0.00    +0.000 A 
ENDBRANCH  19  25
ENDBRANCH  11  19
ENDBRANCH   1  15
BRANCH   8  26
ATOM     26  C   UNL     1      -1.941  10.331  17.185  0.00  0.00    +0.000 C 
ATOM     27  F   UNL     1      -0.964   9.500  16.731  0.00  0.00    +0.000 F 
ATOM     28  F   UNL     1      -3.034   9.540  17.373  0.00  0.00    +0.000 F 
ATOM     29  F   UNL     1      -2.246  11.153  16.144  0.00  0.00    +0.000 F 
ENDBRANCH   8  26
BRANCH   6  30
ATOM     30  C   UNL     1      -0.672  14.742  19.271  0.00  0.00    +0.000 C 
BRANCH  30  31
ATOM     31  N   UNL     1       0.197  15.253  20.325  0.00  0.00    +0.000 NA
ATOM     32  H   UNL     1      -0.216  15.039  21.235  0.00  0.00    +0.000 HD
ATOM     33  H   UNL     1       0.243  16.269  20.264  0.00  0.00    +0.000 HD
ENDBRANCH  30  31
ENDBRANCH   6  30
TORSDOF 7
ENDMDL
MODEL 9
REMARK VINA RESULT:      -6.5      4.403      9.067
REMARK  Name = 
REMARK  8 active torsions:
REMARK  status: ('A' for Active; 'I' for Inactive)
REMARK    1  A    between atoms: C_1  and  N_2
REMARK    2  A    between atoms: C_6  and  C_7
REMARK    3  A    between atoms: C_7  and  C_8
REMARK    4  A    between atoms: C_11  and  C_12
REMARK    5  A    between atoms: C_14  and  N_15
REMARK    6  A    between atoms: C_20  and  C_21
REMARK    7  A    between atoms: C_21  and  N_22
REMARK    8  A    between atoms: C_24  and  C_25
REMARK                            x       y       z     vdW  Elec       q    Type
REMARK                         _______ _______ _______ _____ _____    ______ ____
ROOT
ATOM      1  N   UNL     1       0.003   9.039  21.187  0.00  0.00    +0.000 N 
ATOM      2  C   UNL     1      -1.086   9.425  20.251  0.00  0.00    +0.000 C 
ATOM      3  C   UNL     1      -1.233  10.892  20.497  0.00  0.00    +0.000 A 
ATOM      4  C   UNL     1      -0.781  11.149  21.792  0.00  0.00    +0.000 A 
ATOM      5  C   UNL     1      -0.624  12.426  22.301  0.00  0.00    +0.000 A 
ATOM      6  C   UNL     1      -0.891  13.504  21.446  0.00  0.00    +0.000 A 
ATOM      7  C   UNL     1      -1.348  13.248  20.130  0.00  0.00    +0.000 A 
ATOM      8  C   UNL     1      -1.522  11.940  19.628  0.00  0.00    +0.000 A 
ATOM      9  C   UNL     1      -0.063   9.943  22.266  0.00  0.00    +0.000 C 
ATOM     10  O   UNL     1       0.523   9.875  23.334  0.00  0.00    +0.000 OA
ENDROOT
BRANCH   1  15
ATOM     11  C   UNL     1       2.381   7.115  19.318  0.00  0.00    +0.000 A 
ATOM     12  C   UNL     1       2.199   7.805  18.113  0.00  0.00    +0.000 A 
ATOM     13  C   UNL     1       1.802   9.137  18.135  0.00  0.00    +0.000 A 
ATOM     14  C   UNL     1       1.492   9.757  19.350  0.00  0.00    +0.000 A 
ATOM     15  C   UNL     1       1.272   8.941  20.481  0.00  0.00    +0.000 A 
ATOM     16  C   UNL     1       1.838   7.657  20.488  0.00  0.00    +0.000 A 
BRANCH  14  17
ATOM     17  C   UNL     1       1.620  11.257  19.417  0.00  0.00    +0.000 C 
ATOM     18  F   UNL     1       1.522  11.861  18.199  0.00  0.00    +0.000 F 
ENDBRANCH  14  17
BRANCH  11  19
ATOM     19  C   UNL     1       3.193   5.843  19.325  0.00  0.00    +0.000 C 
BRANCH  19  25
ATOM     20  C   UNL     1       1.085   3.888  20.527  0.00  0.00    +0.000 C 
ATOM     21  N   UNL     1       1.681   3.811  19.223  0.00  0.00    +0.000 N 
ATOM     22  C   UNL     1       1.509   2.797  18.328  0.00  0.00    +0.000 A 
ATOM     23  N   UNL     1       2.218   3.038  17.253  0.00  0.00    +0.000 NA
ATOM     24  N   UNL     1       2.887   4.221  17.450  0.00  0.00    +0.000 NA
ATOM     25  C   UNL     1       2.572   4.680  18.645  0.00  0.00    +0.000 A 
ENDBRANCH  19  25
ENDBRANCH  11  19
ENDBRANCH   1  15
BRANCH   8  26
ATOM     26  C   UNL     1      -1.848  11.754  18.166  0.00  0.00    +0.000 C 
ATOM     27  F   UNL     1      -1.502  10.533  17.675  0.00  0.00    +0.000 F 
ATOM     28  F   UNL     1      -3.181  11.884  17.916  0.00  0.00    +0.000 F 
ATOM     29  F   UNL     1      -1.225  12.666  17.372  0.00  0.00    +0.000 F 
ENDBRANCH   8  26
BRANCH   6  30
ATOM     30  C   UNL     1      -0.574  14.914  21.883  0.00  0.00    +0.000 C 
BRANCH  30  31
ATOM     31  N   UNL     1      -1.713  15.801  21.679  0.00  0.00    +0.000 NA
ATOM     32  H   UNL     1      -1.459  16.528  21.008  0.00  0.00    +0.000 HD
ATOM     33  H   UNL     1      -1.930  16.280  22.551  0.00  0.00    +0.000 HD
ENDBRANCH  30  31
ENDBRANCH   6  30
TORSDOF 7
ENDMDL
