MODEL 1
REMARK VINA RESULT:      -8.5      0.000      0.000
REMARK  Name = 
REMARK  7 active torsions:
REMARK  status: ('A' for Active; 'I' for Inactive)
REMARK    1  A    between atoms: C_1  and  O_2
REMARK    2  A    between atoms: O_2  and  C_3
REMARK    3  A    between atoms: C_6  and  C_7
REMARK    4  A    between atoms: C_7  and  N_8
REMARK    5  A    between atoms: C_7  and  C_21
REMARK    6  A    between atoms: C_9  and  C_11
REMARK    7  A    between atoms: N_25  and  C_26
REMARK                            x       y       z     vdW  Elec       q    Type
REMARK                         _______ _______ _______ _____ _____    ______ ____
ROOT
ATOM      1  C   UNL     1       0.586  10.358  19.249  0.00  0.00    +0.000 C 
ENDROOT
BRANCH   1   5
ATOM      2  C   UNL     1      -3.240  10.930  17.277  0.00  0.00    +0.000 A 
ATOM      3  C   UNL     1      -2.942  11.636  18.444  0.00  0.00    +0.000 A 
ATOM      4  C   UNL     1      -1.718  11.434  19.098  0.00  0.00    +0.000 A 
ATOM      5  C   UNL     1      -0.773  10.537  18.584  0.00  0.00    +0.000 A 
ATOM      6  C   UNL     1      -1.103   9.809  17.424  0.00  0.00    +0.000 A 
ATOM      7  C   UNL     1      -2.326  10.000  16.787  0.00  0.00    +0.000 A 
BRANCH   2   9
ATOM      8  C   UNL     1      -5.356  11.953  17.083  0.00  0.00    +0.000 C 
ATOM      9  O   UNL     1      -4.396  11.044  16.557  0.00  0.00    +0.000 OA
ENDBRANCH   2   9
ENDBRANCH   1   5
BRANCH   1  10
ATOM     10  C   UNL     1       1.449  11.587  19.073  0.00  0.00    +0.000 A 
ATOM     11  N   UNL     1       2.243  11.829  18.027  0.00  0.00    +0.000 NA
ATOM     12  C   UNL     1       2.753  13.088  18.251  0.00  0.00    +0.000 A 
ATOM     13  C   UNL     1       2.294  13.606  19.440  0.00  0.00    +0.000 A 
ATOM     14  N   UNL     1       1.480  12.639  19.960  0.00  0.00    +0.000 N 
ATOM     15  C   UNL     1       0.764  12.751  21.210  0.00  0.00    +0.000 C 
ENDBRANCH   1  10
BRANCH   1  16
ATOM     16  N   UNL     1       1.290   9.234  18.646  0.00  0.00    +0.000 N 
ATOM     17  C   UNL     1       1.814   8.196  19.374  0.00  0.00    +0.000 C 
ATOM     18  O   UNL     1       1.623   8.108  20.580  0.00  0.00    +0.000 OA
ATOM     19  H   UNL     1       1.518   9.368  17.669  0.00  0.00    +0.000 HD
BRANCH  17  20
ATOM     20  C   UNL     1       2.567   7.146  18.640  0.00  0.00    +0.000 A 
ATOM     21  C   UNL     1       2.162   5.829  18.856  0.00  0.00    +0.000 A 
ATOM     22  C   UNL     1       2.860   4.766  18.275  0.00  0.00    +0.000 A 
ATOM     23  C   UNL     1       3.910   5.009  17.389  0.00  0.00    +0.000 A 
ATOM     24  C   UNL     1       4.575   3.944  16.774  0.00  0.00    +0.000 A 
ATOM     25  C   UNL     1       5.366   4.173  15.654  0.00  0.00    +0.000 A 
ATOM     26  C   UNL     1       5.622   5.477  15.241  0.00  0.00    +0.000 A 
ATOM     27  C   UNL     1       5.144   6.552  15.988  0.00  0.00    +0.000 A 
ATOM     28  C   UNL     1       4.246   6.340  17.051  0.00  0.00    +0.000 A 
ATOM     29  C   UNL     1       3.618   7.395  17.751  0.00  0.00    +0.000 A 
ENDBRANCH  17  20
ENDBRANCH   1  16
TORSDOF 5
ENDMDL
MODEL 2
REMARK VINA RESULT:      -8.4      3.456      8.780
REMARK  Name = 
REMARK  7 active torsions:
REMARK  status: ('A' for Active; 'I' for Inactive)
REMARK    1  A    between atoms: C_1  and  O_2
REMARK    2  A    between atoms: O_2  and  C_3
REMARK    3  A    between atoms: C_6  and  C_7
REMARK    4  A    between atoms: C_7  and  N_8
REMARK    5  A    between atoms: C_7  and  C_21
REMARK    6  A    between atoms: C_9  and  C_11
REMARK    7  A    between atoms: N_25  and  C_26
REMARK                            x       y       z     vdW  Elec       q    Type
REMARK                         _______ _______ _______ _____ _____    ______ ____
ROOT
ATOM      1  C   UNL     1       3.647   5.086  18.966  0.00  0.00    +0.000 C 
ENDROOT
BRANCH   1   5
ATOM      2  C   UNL     1       5.778   5.331  15.192  0.00  0.00    +0.000 A 
ATOM      3  C   UNL     1       5.306   6.493  15.806  0.00  0.00    +0.000 A 
ATOM      4  C   UNL     1       4.595   6.416  17.012  0.00  0.00    +0.000 A 
ATOM      5  C   UNL     1       4.361   5.178  17.624  0.00  0.00    +0.000 A 
ATOM      6  C   UNL     1       4.815   4.014  16.975  0.00  0.00    +0.000 A 
ATOM      7  C   UNL     1       5.508   4.093  15.769  0.00  0.00    +0.000 A 
BRANCH   2   9
ATOM      8  C   UNL     1       6.540   4.011  13.392  0.00  0.00    +0.000 C 
ATOM      9  O   UNL     1       6.481   5.286  14.020  0.00  0.00    +0.000 OA
ENDBRANCH   2   9
ENDBRANCH   1   5
BRANCH   1  10
ATOM     10  C   UNL     1       2.591   4.004  18.954  0.00  0.00    +0.000 A 
ATOM     11  N   UNL     1       1.453   4.045  18.258  0.00  0.00    +0.000 NA
ATOM     12  C   UNL     1       0.858   2.823  18.476  0.00  0.00    +0.000 A 
ATOM     13  C   UNL     1       1.615   2.045  19.321  0.00  0.00    +0.000 A 
ATOM     14  N   UNL     1       2.705   2.811  19.629  0.00  0.00    +0.000 N 
ATOM     15  C   UNL     1       3.786   2.393  20.492  0.00  0.00    +0.000 C 
ENDBRANCH   1  10
BRANCH   1  16
ATOM     16  N   UNL     1       2.982   6.349  19.262  0.00  0.00    +0.000 N 
ATOM     17  C   UNL     1       2.214   6.551  20.381  0.00  0.00    +0.000 C 
ATOM     18  O   UNL     1       2.131   5.698  21.255  0.00  0.00    +0.000 OA
ATOM     19  H   UNL     1       2.984   7.005  18.492  0.00  0.00    +0.000 HD
BRANCH  17  20
ATOM     20  C   UNL     1       1.537   7.865  20.528  0.00  0.00    +0.000 A 
ATOM     21  C   UNL     1       1.407   8.628  19.368  0.00  0.00    +0.000 A 
ATOM     22  C   UNL     1       0.859   9.913  19.420  0.00  0.00    +0.000 A 
ATOM     23  C   UNL     1       0.339  10.413  20.614  0.00  0.00    +0.000 A 
ATOM     24  C   UNL     1      -0.251  11.680  20.650  0.00  0.00    +0.000 A 
ATOM     25  C   UNL     1      -1.064  12.037  21.720  0.00  0.00    +0.000 A 
ATOM     26  C   UNL     1      -1.163  11.197  22.826  0.00  0.00    +0.000 A 
ATOM     27  C   UNL     1      -0.396  10.035  22.891  0.00  0.00    +0.000 A 
ATOM     28  C   UNL     1       0.338   9.601  21.771  0.00  0.00    +0.000 A 
ATOM     29  C   UNL     1       1.016   8.362  21.728  0.00  0.00    +0.000 A 
ENDBRANCH  17  20
ENDBRANCH   1  16
TORSDOF 5
ENDMDL
MODEL 3
REMARK VINA RESULT:      -8.3      3.472      8.927
REMARK  Name = 
REMARK  7 active torsions:
REMARK  status: ('A' for Active; 'I' for Inactive)
REMARK    1  A    between atoms: C_1  and  O_2
REMARK    2  A    between atoms: O_2  and  C_3
REMARK    3  A    between atoms: C_6  and  C_7
REMARK    4  A    between atoms: C_7  and  N_8
REMARK    5  A    between atoms: C_7  and  C_21
REMARK    6  A    between atoms: C_9  and  C_11
REMARK    7  A    between atoms: N_25  and  C_26
REMARK                            x       y       z     vdW  Elec       q    Type
REMARK                         _______ _______ _______ _____ _____    ______ ____
ROOT
ATOM      1  C   UNL     1       4.017   5.104  19.312  0.00  0.00    +0.000 C 
ENDROOT
BRANCH   1   5
ATOM      2  C   UNL     1       6.798   5.326  15.985  0.00  0.00    +0.000 A 
ATOM      3  C   UNL     1       7.196   4.750  17.193  0.00  0.00    +0.000 A 
ATOM      4  C   UNL     1       6.310   4.701  18.278  0.00  0.00    +0.000 A 
ATOM      5  C   UNL     1       5.010   5.212  18.162  0.00  0.00    +0.000 A 
ATOM      6  C   UNL     1       4.636   5.818  16.948  0.00  0.00    +0.000 A 
ATOM      7  C   UNL     1       5.525   5.880  15.878  0.00  0.00    +0.000 A 
BRANCH   2   9
ATOM      8  C   UNL     1       7.059   4.789  13.704  0.00  0.00    +0.000 C 
ATOM      9  O   UNL     1       7.574   5.429  14.865  0.00  0.00    +0.000 OA
ENDBRANCH   2   9
ENDBRANCH   1   5
BRANCH   1  10
ATOM     10  C   UNL     1       2.978   4.041  19.042  0.00  0.00    +0.000 A 
ATOM     11  N   UNL     1       1.892   4.198  18.282  0.00  0.00    +0.000 NA
ATOM     12  C   UNL     1       1.297   2.957  18.249  0.00  0.00    +0.000 A 
ATOM     13  C   UNL     1       2.000   2.049  19.005  0.00  0.00    +0.000 A 
ATOM     14  N   UNL     1       3.055   2.751  19.516  0.00  0.00    +0.000 N 
ATOM     15  C   UNL     1       4.076   2.194  20.375  0.00  0.00    +0.000 C 
ENDBRANCH   1  10
BRANCH   1  16
ATOM     16  N   UNL     1       3.318   6.371  19.485  0.00  0.00    +0.000 N 
ATOM     17  C   UNL     1       2.319   6.560  20.405  0.00  0.00    +0.000 C 
ATOM     18  O   UNL     1       2.029   5.688  21.213  0.00  0.00    +0.000 OA
ATOM     19  H   UNL     1       3.504   7.046  18.754  0.00  0.00    +0.000 HD
BRANCH  17  20
ATOM     20  C   UNL     1       1.643   7.883  20.432  0.00  0.00    +0.000 A 
ATOM     21  C   UNL     1       1.562   8.562  19.216  0.00  0.00    +0.000 A 
ATOM     22  C   UNL     1       1.018   9.848  19.154  0.00  0.00    +0.000 A 
ATOM     23  C   UNL     1       0.453  10.433  20.288  0.00  0.00    +0.000 A 
ATOM     24  C   UNL     1      -0.132  11.700  20.211  0.00  0.00    +0.000 A 
ATOM     25  C   UNL     1      -0.984  12.134  21.220  0.00  0.00    +0.000 A 
ATOM     26  C   UNL     1      -1.131  11.375  22.378  0.00  0.00    +0.000 A 
ATOM     27  C   UNL     1      -0.372  10.219  22.555  0.00  0.00    +0.000 A 
ATOM     28  C   UNL     1       0.403   9.705  21.499  0.00  0.00    +0.000 A 
ATOM     29  C   UNL     1       1.076   8.465  21.572  0.00  0.00    +0.000 A 
ENDBRANCH  17  20
ENDBRANCH   1  16
TORSDOF 5
ENDMDL
MODEL 4
REMARK VINA RESULT:      -8.2      3.230      8.810
REMARK  Name = 
REMARK  7 active torsions:
REMARK  status: ('A' for Active; 'I' for Inactive)
REMARK    1  A    between atoms: C_1  and  O_2
REMARK    2  A    between atoms: O_2  and  C_3
REMARK    3  A    between atoms: C_6  and  C_7
REMARK    4  A    between atoms: C_7  and  N_8
REMARK    5  A    between atoms: C_7  and  C_21
REMARK    6  A    between atoms: C_9  and  C_11
REMARK    7  A    between atoms: N_25  and  C_26
REMARK                            x       y       z     vdW  Elec       q    Type
REMARK                         _______ _______ _______ _____ _____    ______ ____
ROOT
ATOM      1  C   UNL     1       3.893   5.000  18.529  0.00  0.00    +0.000 C 
ENDROOT
BRANCH   1   5
ATOM      2  C   UNL     1       6.002   4.595  14.755  0.00  0.00    +0.000 A 
ATOM      3  C   UNL     1       5.796   3.477  15.566  0.00  0.00    +0.000 A 
ATOM      4  C   UNL     1       5.139   3.608  16.797  0.00  0.00    +0.000 A 
ATOM      5  C   UNL     1       4.666   4.856  17.224  0.00  0.00    +0.000 A 
ATOM      6  C   UNL     1       4.911   5.979  16.410  0.00  0.00    +0.000 A 
ATOM      7  C   UNL     1       5.578   5.846  15.195  0.00  0.00    +0.000 A 
BRANCH   2   9
ATOM      8  C   UNL     1       6.229   3.546  12.655  0.00  0.00    +0.000 C 
ATOM      9  O   UNL     1       6.627   4.586  13.540  0.00  0.00    +0.000 OA
ENDBRANCH   2   9
ENDBRANCH   1   5
BRANCH   1  10
ATOM     10  C   UNL     1       2.817   3.946  18.648  0.00  0.00    +0.000 A 
ATOM     11  N   UNL     1       1.663   3.940  17.977  0.00  0.00    +0.000 NA
ATOM     12  C   UNL     1       1.050   2.760  18.330  0.00  0.00    +0.000 A 
ATOM     13  C   UNL     1       1.812   2.055  19.233  0.00  0.00    +0.000 A 
ATOM     14  N   UNL     1       2.923   2.824  19.439  0.00  0.00    +0.000 N 
ATOM     15  C   UNL     1       4.017   2.472  20.316  0.00  0.00    +0.000 C 
ENDBRANCH   1  10
BRANCH   1  16
ATOM     16  N   UNL     1       3.242   6.303  18.580  0.00  0.00    +0.000 N 
ATOM     17  C   UNL     1       2.485   6.725  19.642  0.00  0.00    +0.000 C 
ATOM     18  O   UNL     1       2.400   6.057  20.665  0.00  0.00    +0.000 OA
ATOM     19  H   UNL     1       3.245   6.799  17.697  0.00  0.00    +0.000 HD
BRANCH  17  20
ATOM     20  C   UNL     1       1.822   8.051  19.538  0.00  0.00    +0.000 A 
ATOM     21  C   UNL     1       1.883   8.676  18.292  0.00  0.00    +0.000 A 
ATOM     22  C   UNL     1       1.360   9.961  18.116  0.00  0.00    +0.000 A 
ATOM     23  C   UNL     1       0.678  10.596  19.155  0.00  0.00    +0.000 A 
ATOM     24  C   UNL     1       0.117  11.862  18.959  0.00  0.00    +0.000 A 
ATOM     25  C   UNL     1      -0.839  12.342  19.847  0.00  0.00    +0.000 A 
ATOM     26  C   UNL     1      -1.121  11.634  21.012  0.00  0.00    +0.000 A 
ATOM     27  C   UNL     1      -0.396  10.483  21.322  0.00  0.00    +0.000 A 
ATOM     28  C   UNL     1       0.487   9.921  20.382  0.00  0.00    +0.000 A 
ATOM     29  C   UNL     1       1.137   8.683  20.581  0.00  0.00    +0.000 A 
ENDBRANCH  17  20
ENDBRANCH   1  16
TORSDOF 5
ENDMDL
MODEL 5
REMARK VINA RESULT:      -8.1      3.339      8.710
REMARK  Name = 
REMARK  7 active torsions:
REMARK  status: ('A' for Active; 'I' for Inactive)
REMARK    1  A    between atoms: C_1  and  O_2
REMARK    2  A    between atoms: O_2  and  C_3
REMARK    3  A    between atoms: C_6  and  C_7
REMARK    4  A    between atoms: C_7  and  N_8
REMARK    5  A    between atoms: C_7  and  C_21
REMARK    6  A    between atoms: C_9  and  C_11
REMARK    7  A    between atoms: N_25  and  C_26
REMARK                            x       y       z     vdW  Elec       q    Type
REMARK                         _______ _______ _______ _____ _____    ______ ____
ROOT
ATOM      1  C   UNL     1       3.987   5.098  19.312  0.00  0.00    +0.000 C 
ENDROOT
BRANCH   1   5
ATOM      2  C   UNL     1       6.791   5.350  16.007  0.00  0.00    +0.000 A 
ATOM      3  C   UNL     1       7.169   4.730  17.200  0.00  0.00    +0.000 A 
ATOM      4  C   UNL     1       6.275   4.670  18.279  0.00  0.00    +0.000 A 
ATOM      5  C   UNL     1       4.989   5.215  18.171  0.00  0.00    +0.000 A 
ATOM      6  C   UNL     1       4.635   5.864  16.973  0.00  0.00    +0.000 A 
ATOM      7  C   UNL     1       5.532   5.936  15.909  0.00  0.00    +0.000 A 
BRANCH   2   9
ATOM      8  C   UNL     1       7.096   4.796  13.735  0.00  0.00    +0.000 C 
ATOM      9  O   UNL     1       7.575   5.467  14.894  0.00  0.00    +0.000 OA
ENDBRANCH   2   9
ENDBRANCH   1   5
BRANCH   1  10
ATOM     10  C   UNL     1       2.996   3.984  19.061  0.00  0.00    +0.000 A 
ATOM     11  N   UNL     1       1.884   4.090  18.331  0.00  0.00    +0.000 NA
ATOM     12  C   UNL     1       1.353   2.821  18.304  0.00  0.00    +0.000 A 
ATOM     13  C   UNL     1       2.121   1.945  19.034  0.00  0.00    +0.000 A 
ATOM     14  N   UNL     1       3.153   2.697  19.522  0.00  0.00    +0.000 N 
ATOM     15  C   UNL     1       4.224   2.187  20.348  0.00  0.00    +0.000 C 
ENDBRANCH   1  10
BRANCH   1  16
ATOM     16  N   UNL     1       3.233   6.339  19.441  0.00  0.00    +0.000 N 
ATOM     17  C   UNL     1       2.249   6.527  20.377  0.00  0.00    +0.000 C 
ATOM     18  O   UNL     1       2.019   5.684  21.234  0.00  0.00    +0.000 OA
ATOM     19  H   UNL     1       3.370   6.984  18.673  0.00  0.00    +0.000 HD
BRANCH  17  20
ATOM     20  C   UNL     1       1.512   7.818  20.356  0.00  0.00    +0.000 A 
ATOM     21  C   UNL     1       0.678   8.071  21.446  0.00  0.00    +0.000 A 
ATOM     22  C   UNL     1      -0.118   9.220  21.479  0.00  0.00    +0.000 A 
ATOM     23  C   UNL     1      -0.017  10.181  20.472  0.00  0.00    +0.000 A 
ATOM     24  C   UNL     1      -0.781  11.350  20.534  0.00  0.00    +0.000 A 
ATOM     25  C   UNL     1      -0.442  12.444  19.745  0.00  0.00    +0.000 A 
ATOM     26  C   UNL     1       0.558  12.322  18.784  0.00  0.00    +0.000 A 
ATOM     27  C   UNL     1       1.168  11.088  18.565  0.00  0.00    +0.000 A 
ATOM     28  C   UNL     1       0.923  10.006  19.431  0.00  0.00    +0.000 A 
ATOM     29  C   UNL     1       1.618   8.779  19.346  0.00  0.00    +0.000 A 
ENDBRANCH  17  20
ENDBRANCH   1  16
TORSDOF 5
ENDMDL
MODEL 6
REMARK VINA RESULT:      -8.1      3.265      8.569
REMARK  Name = 
REMARK  7 active torsions:
REMARK  status: ('A' for Active; 'I' for Inactive)
REMARK    1  A    between atoms: C_1  and  O_2
REMARK    2  A    between atoms: O_2  and  C_3
REMARK    3  A    between atoms: C_6  and  C_7
REMARK    4  A    between atoms: C_7  and  N_8
REMARK    5  A    between atoms: C_7  and  C_21
REMARK    6  A    between atoms: C_9  and  C_11
REMARK    7  A    between atoms: N_25  and  C_26
REMARK                            x       y       z     vdW  Elec       q    Type
REMARK                         _______ _______ _______ _____ _____    ______ ____
ROOT
ATOM      1  C   UNL     1       3.661   5.092  18.922  0.00  0.00    +0.000 C 
ENDROOT
BRANCH   1   5
ATOM      2  C   UNL     1       5.911   5.213  15.211  0.00  0.00    +0.000 A 
ATOM      3  C   UNL     1       5.333   6.379  15.717  0.00  0.00    +0.000 A 
ATOM      4  C   UNL     1       4.583   6.339  16.902  0.00  0.00    +0.000 A 
ATOM      5  C   UNL     1       4.417   5.136  17.600  0.00  0.00    +0.000 A 
ATOM      6  C   UNL     1       4.979   3.965  17.059  0.00  0.00    +0.000 A 
ATOM      7  C   UNL     1       5.709   4.006  15.873  0.00  0.00    +0.000 A 
BRANCH   2   9
ATOM      8  C   UNL     1       6.454   3.965  13.285  0.00  0.00    +0.000 C 
ATOM      9  O   UNL     1       6.660   5.133  14.070  0.00  0.00    +0.000 OA
ENDBRANCH   2   9
ENDBRANCH   1   5
BRANCH   1  10
ATOM     10  C   UNL     1       2.639   3.978  18.932  0.00  0.00    +0.000 A 
ATOM     11  N   UNL     1       1.495   3.973  18.244  0.00  0.00    +0.000 NA
ATOM     12  C   UNL     1       0.940   2.737  18.484  0.00  0.00    +0.000 A 
ATOM     13  C   UNL     1       1.726   1.995  19.334  0.00  0.00    +0.000 A 
ATOM     14  N   UNL     1       2.793   2.799  19.624  0.00  0.00    +0.000 N 
ATOM     15  C   UNL     1       3.893   2.427  20.485  0.00  0.00    +0.000 C 
ENDBRANCH   1  10
BRANCH   1  16
ATOM     16  N   UNL     1       2.948   6.347  19.129  0.00  0.00    +0.000 N 
ATOM     17  C   UNL     1       2.184   6.604  20.238  0.00  0.00    +0.000 C 
ATOM     18  O   UNL     1       2.144   5.819  21.176  0.00  0.00    +0.000 OA
ATOM     19  H   UNL     1       2.917   6.942  18.310  0.00  0.00    +0.000 HD
BRANCH  17  20
ATOM     20  C   UNL     1       1.456   7.899  20.293  0.00  0.00    +0.000 A 
ATOM     21  C   UNL     1       0.675   8.122  21.427  0.00  0.00    +0.000 A 
ATOM     22  C   UNL     1      -0.111   9.273  21.533  0.00  0.00    +0.000 A 
ATOM     23  C   UNL     1      -0.048  10.265  20.555  0.00  0.00    +0.000 A 
ATOM     24  C   UNL     1      -0.801  11.436  20.689  0.00  0.00    +0.000 A 
ATOM     25  C   UNL     1      -0.490  12.553  19.921  0.00  0.00    +0.000 A 
ATOM     26  C   UNL     1       0.464  12.457  18.912  0.00  0.00    +0.000 A 
ATOM     27  C   UNL     1       1.055  11.227  18.625  0.00  0.00    +0.000 A 
ATOM     28  C   UNL     1       0.841  10.119  19.466  0.00  0.00    +0.000 A 
ATOM     29  C   UNL     1       1.523   8.892  19.310  0.00  0.00    +0.000 A 
ENDBRANCH  17  20
ENDBRANCH   1  16
TORSDOF 5
ENDMDL
MODEL 7
REMARK VINA RESULT:      -8.1      0.885      1.235
REMARK  Name = 
REMARK  7 active torsions:
REMARK  status: ('A' for Active; 'I' for Inactive)
REMARK    1  A    between atoms: C_1  and  O_2
REMARK    2  A    between atoms: O_2  and  C_3
REMARK    3  A    between atoms: C_6  and  C_7
REMARK    4  A    between atoms: C_7  and  N_8
REMARK    5  A    between atoms: C_7  and  C_21
REMARK    6  A    between atoms: C_9  and  C_11
REMARK    7  A    between atoms: N_25  and  C_26
REMARK                            x       y       z     vdW  Elec       q    Type
REMARK                         _______ _______ _______ _____ _____    ______ ____
ROOT
ATOM      1  C   UNL     1       0.281  10.658  19.724  0.00  0.00    +0.000 C 
ENDROOT
BRANCH   1   5
ATOM      2  C   UNL     1      -3.410  11.181  17.498  0.00  0.00    +0.000 A 
ATOM      3  C   UNL     1      -3.208  11.875  18.692  0.00  0.00    +0.000 A 
ATOM      4  C   UNL     1      -2.029  11.689  19.427  0.00  0.00    +0.000 A 
ATOM      5  C   UNL     1      -1.032  10.819  18.968  0.00  0.00    +0.000 A 
ATOM      6  C   UNL     1      -1.265  10.102  17.779  0.00  0.00    +0.000 A 
ATOM      7  C   UNL     1      -2.445  10.277  17.060  0.00  0.00    +0.000 A 
BRANCH   2   9
ATOM      8  C   UNL     1      -5.561  12.102  17.209  0.00  0.00    +0.000 C 
ATOM      9  O   UNL     1      -4.516  11.282  16.701  0.00  0.00    +0.000 OA
ENDBRANCH   2   9
ENDBRANCH   1   5
BRANCH   1  10
ATOM     10  C   UNL     1       1.274  11.728  19.332  0.00  0.00    +0.000 A 
ATOM     11  N   UNL     1       2.074  11.685  18.264  0.00  0.00    +0.000 NA
ATOM     12  C   UNL     1       2.726  12.897  18.258  0.00  0.00    +0.000 A 
ATOM     13  C   UNL     1       2.348  13.670  19.331  0.00  0.00    +0.000 A 
ATOM     14  N   UNL     1       1.438  12.912  20.014  0.00  0.00    +0.000 N 
ATOM     15  C   UNL     1       0.760  13.329  21.220  0.00  0.00    +0.000 C 
ENDBRANCH   1  10
BRANCH   1  16
ATOM     16  N   UNL     1       0.879   9.366  19.412  0.00  0.00    +0.000 N 
ATOM     17  C   UNL     1       1.407   8.532  20.364  0.00  0.00    +0.000 C 
ATOM     18  O   UNL     1       1.310   8.790  21.557  0.00  0.00    +0.000 OA
ATOM     19  H   UNL     1       1.033   9.212  18.424  0.00  0.00    +0.000 HD
BRANCH  17  20
ATOM     20  C   UNL     1       2.046   7.272  19.904  0.00  0.00    +0.000 A 
ATOM     21  C   UNL     1       1.713   6.116  20.609  0.00  0.00    +0.000 A 
ATOM     22  C   UNL     1       2.325   4.896  20.304  0.00  0.00    +0.000 A 
ATOM     23  C   UNL     1       3.201   4.794  19.224  0.00  0.00    +0.000 A 
ATOM     24  C   UNL     1       3.774   3.562  18.894  0.00  0.00    +0.000 A 
ATOM     25  C   UNL     1       4.357   3.380  17.645  0.00  0.00    +0.000 A 
ATOM     26  C   UNL     1       4.509   4.464  16.786  0.00  0.00    +0.000 A 
ATOM     27  C   UNL     1       4.143   5.743  17.204  0.00  0.00    +0.000 A 
ATOM     28  C   UNL     1       3.446   5.926  18.413  0.00  0.00    +0.000 A 
ATOM     29  C   UNL     1       2.924   7.175  18.818  0.00  0.00    +0.000 A 
ENDBRANCH  17  20
ENDBRANCH   1  16
TORSDOF 5
ENDMDL
MODEL 8
REMARK VINA RESULT:      -8.1      1.570      2.679
REMARK  Name = 
REMARK  7 active torsions:
REMARK  status: ('A' for Active; 'I' for Inactive)
REMARK    1  A    between atoms: C_1  and  O_2
REMARK    2  A    between atoms: O_2  and  C_3
REMARK    3  A    between atoms: C_6  and  C_7
REMARK    4  A    between atoms: C_7  and  N_8
REMARK    5  A    between atoms: C_7  and  C_21
REMARK    6  A    between atoms: C_9  and  C_11
REMARK    7  A    between atoms: N_25  and  C_26
REMARK                            x       y       z     vdW  Elec       q    Type
REMARK                         _______ _______ _______ _____ _____    ______ ____
ROOT
ATOM      1  C   UNL     1       0.032  10.595  19.684  0.00  0.00    +0.000 C 
ENDROOT
BRANCH   1   5
ATOM      2  C   UNL     1      -3.558  10.982  17.274  0.00  0.00    +0.000 A 
ATOM      3  C   UNL     1      -2.551  10.094  16.891  0.00  0.00    +0.000 A 
ATOM      4  C   UNL     1      -1.378   9.985  17.652  0.00  0.00    +0.000 A 
ATOM      5  C   UNL     1      -1.208  10.752  18.813  0.00  0.00    +0.000 A 
ATOM      6  C   UNL     1      -2.219  11.665  19.166  0.00  0.00    +0.000 A 
ATOM      7  C   UNL     1      -3.375  11.782  18.398  0.00  0.00    +0.000 A 
BRANCH   2   9
ATOM      8  C   UNL     1      -5.556  12.225  17.107  0.00  0.00    +0.000 C 
ATOM      9  O   UNL     1      -4.739  11.171  16.611  0.00  0.00    +0.000 OA
ENDBRANCH   2   9
ENDBRANCH   1   5
BRANCH   1  10
ATOM     10  C   UNL     1       1.099  11.597  19.305  0.00  0.00    +0.000 A 
ATOM     11  N   UNL     1       1.919  11.493  18.257  0.00  0.00    +0.000 NA
ATOM     12  C   UNL     1       2.645  12.661  18.254  0.00  0.00    +0.000 A 
ATOM     13  C   UNL     1       2.291  13.469  19.310  0.00  0.00    +0.000 A 
ATOM     14  N   UNL     1       1.320  12.777  19.978  0.00  0.00    +0.000 N 
ATOM     15  C   UNL     1       0.641  13.249  21.163  0.00  0.00    +0.000 C 
ENDBRANCH   1  10
BRANCH   1  16
ATOM     16  N   UNL     1       0.597   9.263  19.510  0.00  0.00    +0.000 N 
ATOM     17  C   UNL     1       1.228   8.576  20.515  0.00  0.00    +0.000 C 
ATOM     18  O   UNL     1       1.260   9.013  21.658  0.00  0.00    +0.000 OA
ATOM     19  H   UNL     1       0.643   8.958  18.546  0.00  0.00    +0.000 HD
BRANCH  17  20
ATOM     20  C   UNL     1       1.817   7.252  20.186  0.00  0.00    +0.000 A 
ATOM     21  C   UNL     1       2.688   7.216  19.096  0.00  0.00    +0.000 A 
ATOM     22  C   UNL     1       3.228   6.003  18.658  0.00  0.00    +0.000 A 
ATOM     23  C   UNL     1       2.988   4.825  19.365  0.00  0.00    +0.000 A 
ATOM     24  C   UNL     1       3.568   3.622  18.950  0.00  0.00    +0.000 A 
ATOM     25  C   UNL     1       3.620   2.540  19.821  0.00  0.00    +0.000 A 
ATOM     26  C   UNL     1       2.958   2.601  21.044  0.00  0.00    +0.000 A 
ATOM     27  C   UNL     1       2.187   3.717  21.365  0.00  0.00    +0.000 A 
ATOM     28  C   UNL     1       2.219   4.865  20.551  0.00  0.00    +0.000 A 
ATOM     29  C   UNL     1       1.575   6.073  20.899  0.00  0.00    +0.000 A 
ENDBRANCH  17  20
ENDBRANCH   1  16
TORSDOF 5
ENDMDL
MODEL 9
REMARK VINA RESULT:      -8.1      1.342      2.237
REMARK  Name = 
REMARK  7 active torsions:
REMARK  status: ('A' for Active; 'I' for Inactive)
REMARK    1  A    between atoms: C_1  and  O_2
REMARK    2  A    between atoms: O_2  and  C_3
REMARK    3  A    between atoms: C_6  and  C_7
REMARK    4  A    between atoms: C_7  and  N_8
REMARK    5  A    between atoms: C_7  and  C_21
REMARK    6  A    between atoms: C_9  and  C_11
REMARK    7  A    between atoms: N_25  and  C_26
REMARK                            x       y       z     vdW  Elec       q    Type
REMARK                         _______ _______ _______ _____ _____    ______ ____
ROOT
ATOM      1  C   UNL     1       0.339  10.661  19.696  0.00  0.00    +0.000 C 
ENDROOT
BRANCH   1   5
ATOM      2  C   UNL     1      -3.382  11.220  17.530  0.00  0.00    +0.000 A 
ATOM      3  C   UNL     1      -3.149  11.923  18.714  0.00  0.00    +0.000 A 
ATOM      4  C   UNL     1      -1.959  11.726  19.430  0.00  0.00    +0.000 A 
ATOM      5  C   UNL     1      -0.984  10.835  18.962  0.00  0.00    +0.000 A 
ATOM      6  C   UNL     1      -1.250  10.110  17.785  0.00  0.00    +0.000 A 
ATOM      7  C   UNL     1      -2.440  10.297  17.085  0.00  0.00    +0.000 A 
BRANCH   2   9
ATOM      8  C   UNL     1      -5.557  12.105  17.308  0.00  0.00    +0.000 C 
ATOM      9  O   UNL     1      -4.500  11.332  16.752  0.00  0.00    +0.000 OA
ENDBRANCH   2   9
ENDBRANCH   1   5
BRANCH   1  10
ATOM     10  C   UNL     1       1.341  11.712  19.278  0.00  0.00    +0.000 A 
ATOM     11  N   UNL     1       2.120  11.650  18.195  0.00  0.00    +0.000 NA
ATOM     12  C   UNL     1       2.791  12.851  18.168  0.00  0.00    +0.000 A 
ATOM     13  C   UNL     1       2.445  13.637  19.242  0.00  0.00    +0.000 A 
ATOM     14  N   UNL     1       1.537  12.899  19.947  0.00  0.00    +0.000 N 
ATOM     15  C   UNL     1       0.888  13.334  21.163  0.00  0.00    +0.000 C 
ENDBRANCH   1  10
BRANCH   1  16
ATOM     16  N   UNL     1       0.912   9.357  19.386  0.00  0.00    +0.000 N 
ATOM     17  C   UNL     1       1.317   8.465  20.346  0.00  0.00    +0.000 C 
ATOM     18  O   UNL     1       1.121   8.681  21.535  0.00  0.00    +0.000 OA
ATOM     19  H   UNL     1       1.151   9.235  18.410  0.00  0.00    +0.000 HD
BRANCH  17  20
ATOM     20  C   UNL     1       1.946   7.198  19.893  0.00  0.00    +0.000 A 
ATOM     21  C   UNL     1       2.713   7.269  18.730  0.00  0.00    +0.000 A 
ATOM     22  C   UNL     1       3.277   6.114  18.179  0.00  0.00    +0.000 A 
ATOM     23  C   UNL     1       3.168   4.889  18.839  0.00  0.00    +0.000 A 
ATOM     24  C   UNL     1       3.774   3.746  18.308  0.00  0.00    +0.000 A 
ATOM     25  C   UNL     1       3.966   2.626  19.109  0.00  0.00    +0.000 A 
ATOM     26  C   UNL     1       3.416   2.586  20.387  0.00  0.00    +0.000 A 
ATOM     27  C   UNL     1       2.617   3.636  20.836  0.00  0.00    +0.000 A 
ATOM     28  C   UNL     1       2.511   4.824  20.088  0.00  0.00    +0.000 A 
ATOM     29  C   UNL     1       1.835   5.972  20.559  0.00  0.00    +0.000 A 
ENDBRANCH  17  20
ENDBRANCH   1  16
TORSDOF 5
ENDMDL
