MODEL 1
REMARK VINA RESULT:      -8.4      0.000      0.000
REMARK  Name = 
REMARK  3 active torsions:
REMARK  status: ('A' for Active; 'I' for Inactive)
REMARK    1  A    between atoms: C_2  and  C_3
REMARK    2  A    between atoms: C_3  and  C_4
REMARK    3  A    between atoms: C_4  and  C_5
REMARK                            x       y       z     vdW  Elec       q    Type
REMARK                         _______ _______ _______ _____ _____    ______ ____
ROOT
ATOM      1  O   UNL     1       6.932   5.475  19.901  0.00  0.00    +0.000 OA
ATOM      2  C   UNL     1       6.814   6.100  18.848  0.00  0.00    +0.000 C 
ATOM      3  N   UNL     1       5.657   6.158  18.103  0.00  0.00    +0.000 N 
ATOM      4  C   UNL     1       4.524   5.493  18.494  0.00  0.00    +0.000 A 
ATOM      5  N   UNL     1       3.677   4.961  17.650  0.00  0.00    +0.000 NA
ATOM      6  C   UNL     1       2.741   4.334  18.431  0.00  0.00    +0.000 A 
ATOM      7  C   UNL     1       1.677   3.505  18.053  0.00  0.00    +0.000 A 
ATOM      8  C   UNL     1       0.824   3.011  19.046  0.00  0.00    +0.000 A 
ATOM      9  C   UNL     1       1.018   3.352  20.388  0.00  0.00    +0.000 A 
ATOM     10  C   UNL     1       2.085   4.168  20.788  0.00  0.00    +0.000 A 
ATOM     11  C   UNL     1       2.946   4.611  19.780  0.00  0.00    +0.000 A 
ATOM     12  N   UNL     1       4.116   5.327  19.795  0.00  0.00    +0.000 N 
ATOM     13  H   UNL     1       5.711   6.330  17.108  0.00  0.00    +0.000 HD
ATOM     14  H   UNL     1       4.606   5.675  20.607  0.00  0.00    +0.000 HD
ENDROOT
BRANCH   2  15
ATOM     15  C   UNL     1       7.990   6.833  18.227  0.00  0.00    +0.000 C 
BRANCH  15  16
ATOM     16  C   UNL     1       7.556   8.123  17.533  0.00  0.00    +0.000 C 
BRANCH  16  17
ATOM     17  C   UNL     1       8.257   9.343  18.071  0.00  0.00    +0.000 A 
ATOM     18  C   UNL     1       9.017   9.255  19.262  0.00  0.00    +0.000 A 
ATOM     19  C   UNL     1       9.645  10.382  19.801  0.00  0.00    +0.000 A 
ATOM     20  C   UNL     1       9.503  11.577  19.129  0.00  0.00    +0.000 A 
ATOM     21  C   UNL     1       8.788  11.669  17.962  0.00  0.00    +0.000 A 
ATOM     22  C   UNL     1       8.153  10.581  17.406  0.00  0.00    +0.000 A 
ATOM     23  O   UNL     1       8.758  12.936  17.468  0.00  0.00    +0.000 OA
ATOM     24  C   UNL     1       9.524  13.635  18.472  0.00  0.00    +0.000 C 
ATOM     25  O   UNL     1      10.022  12.772  19.515  0.00  0.00    +0.000 OA
ENDBRANCH  16  17
ENDBRANCH  15  16
ENDBRANCH   2  15
TORSDOF 3
ENDMDL
MODEL 2
REMARK VINA RESULT:      -8.4      4.449      6.678
REMARK  Name = 
REMARK  3 active torsions:
REMARK  status: ('A' for Active; 'I' for Inactive)
REMARK    1  A    between atoms: C_2  and  C_3
REMARK    2  A    between atoms: C_3  and  C_4
REMARK    3  A    between atoms: C_4  and  C_5
REMARK                            x       y       z     vdW  Elec       q    Type
REMARK                         _______ _______ _______ _____ _____    ______ ____
ROOT
ATOM      1  O   UNL     1       1.421   5.107  20.762  0.00  0.00    +0.000 OA
ATOM      2  C   UNL     1       2.217   5.518  19.921  0.00  0.00    +0.000 C 
ATOM      3  N   UNL     1       2.425   6.849  19.631  0.00  0.00    +0.000 N 
ATOM      4  C   UNL     1       1.727   7.836  20.276  0.00  0.00    +0.000 A 
ATOM      5  N   UNL     1       1.364   8.953  19.699  0.00  0.00    +0.000 NA
ATOM      6  C   UNL     1       0.633   9.623  20.646  0.00  0.00    +0.000 A 
ATOM      7  C   UNL     1      -0.097  10.813  20.529  0.00  0.00    +0.000 A 
ATOM      8  C   UNL     1      -0.735  11.324  21.664  0.00  0.00    +0.000 A 
ATOM      9  C   UNL     1      -0.631  10.671  22.896  0.00  0.00    +0.000 A 
ATOM     10  C   UNL     1       0.083   9.472  23.030  0.00  0.00    +0.000 A 
ATOM     11  C   UNL     1       0.672   8.963  21.870  0.00  0.00    +0.000 A 
ATOM     12  N   UNL     1       1.352   7.802  21.597  0.00  0.00    +0.000 N 
ATOM     13  H   UNL     1       2.762   7.115  18.715  0.00  0.00    +0.000 HD
ATOM     14  H   UNL     1       1.546   7.046  22.237  0.00  0.00    +0.000 HD
ENDROOT
BRANCH   2  15
ATOM     15  C   UNL     1       3.020   4.562  19.057  0.00  0.00    +0.000 C 
BRANCH  15  16
ATOM     16  C   UNL     1       4.509   4.598  19.399  0.00  0.00    +0.000 C 
BRANCH  16  17
ATOM     17  C   UNL     1       5.381   4.841  18.196  0.00  0.00    +0.000 A 
ATOM     18  C   UNL     1       6.440   5.779  18.267  0.00  0.00    +0.000 A 
ATOM     19  C   UNL     1       7.239   6.050  17.152  0.00  0.00    +0.000 A 
ATOM     20  C   UNL     1       6.965   5.368  15.987  0.00  0.00    +0.000 A 
ATOM     21  C   UNL     1       5.957   4.440  15.913  0.00  0.00    +0.000 A 
ATOM     22  C   UNL     1       5.148   4.152  16.989  0.00  0.00    +0.000 A 
ATOM     23  O   UNL     1       5.843   3.893  14.673  0.00  0.00    +0.000 OA
ATOM     24  C   UNL     1       6.886   4.600  13.969  0.00  0.00    +0.000 C 
ATOM     25  O   UNL     1       7.620   5.518  14.805  0.00  0.00    +0.000 OA
ENDBRANCH  16  17
ENDBRANCH  15  16
ENDBRANCH   2  15
TORSDOF 3
ENDMDL
MODEL 3
REMARK VINA RESULT:      -8.3      1.745      2.372
REMARK  Name = 
REMARK  3 active torsions:
REMARK  status: ('A' for Active; 'I' for Inactive)
REMARK    1  A    between atoms: C_2  and  C_3
REMARK    2  A    between atoms: C_3  and  C_4
REMARK    3  A    between atoms: C_4  and  C_5
REMARK                            x       y       z     vdW  Elec       q    Type
REMARK                         _______ _______ _______ _____ _____    ______ ____
ROOT
ATOM      1  O   UNL     1       6.540   7.527  17.056  0.00  0.00    +0.000 OA
ATOM      2  C   UNL     1       7.373   7.272  17.924  0.00  0.00    +0.000 C 
ATOM      3  N   UNL     1       7.332   6.163  18.740  0.00  0.00    +0.000 N 
ATOM      4  C   UNL     1       6.321   5.244  18.644  0.00  0.00    +0.000 A 
ATOM      5  N   UNL     1       5.838   4.597  19.673  0.00  0.00    +0.000 NA
ATOM      6  C   UNL     1       4.807   3.845  19.172  0.00  0.00    +0.000 A 
ATOM      7  C   UNL     1       3.867   3.058  19.850  0.00  0.00    +0.000 A 
ATOM      8  C   UNL     1       2.923   2.345  19.102  0.00  0.00    +0.000 A 
ATOM      9  C   UNL     1       2.928   2.403  17.705  0.00  0.00    +0.000 A 
ATOM     10  C   UNL     1       3.850   3.196  17.010  0.00  0.00    +0.000 A 
ATOM     11  C   UNL     1       4.752   3.931  17.784  0.00  0.00    +0.000 A 
ATOM     12  N   UNL     1       5.713   4.861  17.473  0.00  0.00    +0.000 N 
ATOM     13  H   UNL     1       7.774   6.195  19.650  0.00  0.00    +0.000 HD
ATOM     14  H   UNL     1       5.941   5.216  16.556  0.00  0.00    +0.000 HD
ENDROOT
BRANCH   2  15
ATOM     15  C   UNL     1       8.521   8.221  18.221  0.00  0.00    +0.000 C 
BRANCH  15  16
ATOM     16  C   UNL     1       8.194   9.656  17.813  0.00  0.00    +0.000 C 
BRANCH  16  17
ATOM     17  C   UNL     1       9.067  10.674  18.499  0.00  0.00    +0.000 A 
ATOM     18  C   UNL     1       9.399  10.516  19.866  0.00  0.00    +0.000 A 
ATOM     19  C   UNL     1      10.176  11.468  20.534  0.00  0.00    +0.000 A 
ATOM     20  C   UNL     1      10.612  12.558  19.813  0.00  0.00    +0.000 A 
ATOM     21  C   UNL     1      10.316  12.710  18.482  0.00  0.00    +0.000 A 
ATOM     22  C   UNL     1       9.550  11.795  17.795  0.00  0.00    +0.000 A 
ATOM     23  O   UNL     1      10.827  13.859  17.963  0.00  0.00    +0.000 OA
ATOM     24  C   UNL     1      11.464  14.422  19.129  0.00  0.00    +0.000 C 
ATOM     25  O   UNL     1      11.354  13.588  20.301  0.00  0.00    +0.000 OA
ENDBRANCH  16  17
ENDBRANCH  15  16
ENDBRANCH   2  15
TORSDOF 3
ENDMDL
MODEL 4
REMARK VINA RESULT:      -8.2      4.960      6.763
REMARK  Name = 
REMARK  3 active torsions:
REMARK  status: ('A' for Active; 'I' for Inactive)
REMARK    1  A    between atoms: C_2  and  C_3
REMARK    2  A    between atoms: C_3  and  C_4
REMARK    3  A    between atoms: C_4  and  C_5
REMARK                            x       y       z     vdW  Elec       q    Type
REMARK                         _______ _______ _______ _____ _____    ______ ____
ROOT
ATOM      1  O   UNL     1       1.440   4.885  20.962  0.00  0.00    +0.000 OA
ATOM      2  C   UNL     1       2.471   5.058  20.315  0.00  0.00    +0.000 C 
ATOM      3  N   UNL     1       2.872   6.272  19.800  0.00  0.00    +0.000 N 
ATOM      4  C   UNL     1       2.118   7.402  19.971  0.00  0.00    +0.000 A 
ATOM      5  N   UNL     1       2.032   8.350  19.073  0.00  0.00    +0.000 NA
ATOM      6  C   UNL     1       1.134   9.250  19.587  0.00  0.00    +0.000 A 
ATOM      7  C   UNL     1       0.577  10.390  18.994  0.00  0.00    +0.000 A 
ATOM      8  C   UNL     1      -0.298  11.179  19.748  0.00  0.00    +0.000 A 
ATOM      9  C   UNL     1      -0.598  10.848  21.073  0.00  0.00    +0.000 A 
ATOM     10  C   UNL     1      -0.062   9.704  21.679  0.00  0.00    +0.000 A 
ATOM     11  C   UNL     1       0.774   8.911  20.888  0.00  0.00    +0.000 A 
ATOM     12  N   UNL     1       1.393   7.704  21.097  0.00  0.00    +0.000 N 
ATOM     13  H   UNL     1       3.471   6.295  18.985  0.00  0.00    +0.000 HD
ATOM     14  H   UNL     1       1.333   7.125  21.923  0.00  0.00    +0.000 HD
ENDROOT
BRANCH   2  15
ATOM     15  C   UNL     1       3.389   3.900  19.965  0.00  0.00    +0.000 C 
BRANCH  15  16
ATOM     16  C   UNL     1       3.267   3.501  18.495  0.00  0.00    +0.000 C 
BRANCH  16  17
ATOM     17  C   UNL     1       4.477   3.880  17.682  0.00  0.00    +0.000 A 
ATOM     18  C   UNL     1       5.655   4.323  18.330  0.00  0.00    +0.000 A 
ATOM     19  C   UNL     1       6.778   4.716  17.594  0.00  0.00    +0.000 A 
ATOM     20  C   UNL     1       6.698   4.652  16.221  0.00  0.00    +0.000 A 
ATOM     21  C   UNL     1       5.569   4.203  15.582  0.00  0.00    +0.000 A 
ATOM     22  C   UNL     1       4.445   3.812  16.275  0.00  0.00    +0.000 A 
ATOM     23  O   UNL     1       5.691   4.231  14.228  0.00  0.00    +0.000 OA
ATOM     24  C   UNL     1       7.023   4.769  14.088  0.00  0.00    +0.000 C 
ATOM     25  O   UNL     1       7.678   5.012  15.350  0.00  0.00    +0.000 OA
ENDBRANCH  16  17
ENDBRANCH  15  16
ENDBRANCH   2  15
TORSDOF 3
ENDMDL
MODEL 5
REMARK VINA RESULT:      -8.2      1.616      2.236
REMARK  Name = 
REMARK  3 active torsions:
REMARK  status: ('A' for Active; 'I' for Inactive)
REMARK    1  A    between atoms: C_2  and  C_3
REMARK    2  A    between atoms: C_3  and  C_4
REMARK    3  A    between atoms: C_4  and  C_5
REMARK                            x       y       z     vdW  Elec       q    Type
REMARK                         _______ _______ _______ _____ _____    ______ ____
ROOT
ATOM      1  O   UNL     1       8.027   6.357  18.669  0.00  0.00    +0.000 OA
ATOM      2  C   UNL     1       7.399   7.223  18.063  0.00  0.00    +0.000 C 
ATOM      3  N   UNL     1       6.097   7.085  17.634  0.00  0.00    +0.000 N 
ATOM      4  C   UNL     1       5.394   5.930  17.854  0.00  0.00    +0.000 A 
ATOM      5  N   UNL     1       4.508   5.458  17.014  0.00  0.00    +0.000 NA
ATOM      6  C   UNL     1       4.098   4.268  17.558  0.00  0.00    +0.000 A 
ATOM      7  C   UNL     1       3.254   3.288  17.022  0.00  0.00    +0.000 A 
ATOM      8  C   UNL     1       2.949   2.165  17.798  0.00  0.00    +0.000 A 
ATOM      9  C   UNL     1       3.463   2.031  19.092  0.00  0.00    +0.000 A 
ATOM     10  C   UNL     1       4.321   2.993  19.641  0.00  0.00    +0.000 A 
ATOM     11  C   UNL     1       4.642   4.082  18.826  0.00  0.00    +0.000 A 
ATOM     12  N   UNL     1       5.496   5.146  18.977  0.00  0.00    +0.000 N 
ATOM     13  H   UNL     1       5.773   7.620  16.839  0.00  0.00    +0.000 HD
ATOM     14  H   UNL     1       6.102   5.332  19.763  0.00  0.00    +0.000 HD
ENDROOT
BRANCH   2  15
ATOM     15  C   UNL     1       8.047   8.539  17.666  0.00  0.00    +0.000 C 
BRANCH  15  16
ATOM     16  C   UNL     1       8.874   9.133  18.806  0.00  0.00    +0.000 C 
BRANCH  16  17
ATOM     17  C   UNL     1       9.199  10.588  18.597  0.00  0.00    +0.000 A 
ATOM     18  C   UNL     1       8.374  11.387  17.769  0.00  0.00    +0.000 A 
ATOM     19  C   UNL     1       8.677  12.731  17.530  0.00  0.00    +0.000 A 
ATOM     20  C   UNL     1       9.801  13.250  18.133  0.00  0.00    +0.000 A 
ATOM     21  C   UNL     1      10.596  12.492  18.956  0.00  0.00    +0.000 A 
ATOM     22  C   UNL     1      10.330  11.165  19.209  0.00  0.00    +0.000 A 
ATOM     23  O   UNL     1      11.661  13.188  19.437  0.00  0.00    +0.000 OA
ATOM     24  C   UNL     1      11.454  14.469  18.805  0.00  0.00    +0.000 C 
ATOM     25  O   UNL     1      10.260  14.523  17.998  0.00  0.00    +0.000 OA
ENDBRANCH  16  17
ENDBRANCH  15  16
ENDBRANCH   2  15
TORSDOF 3
ENDMDL
MODEL 6
REMARK VINA RESULT:      -8.1      1.060      1.408
REMARK  Name = 
REMARK  3 active torsions:
REMARK  status: ('A' for Active; 'I' for Inactive)
REMARK    1  A    between atoms: C_2  and  C_3
REMARK    2  A    between atoms: C_3  and  C_4
REMARK    3  A    between atoms: C_4  and  C_5
REMARK                            x       y       z     vdW  Elec       q    Type
REMARK                         _______ _______ _______ _____ _____    ______ ____
ROOT
ATOM      1  O   UNL     1       6.741   5.323  17.032  0.00  0.00    +0.000 OA
ATOM      2  C   UNL     1       6.881   5.960  18.075  0.00  0.00    +0.000 C 
ATOM      3  N   UNL     1       6.050   5.855  19.168  0.00  0.00    +0.000 N 
ATOM      4  C   UNL     1       4.970   5.013  19.164  0.00  0.00    +0.000 A 
ATOM      5  N   UNL     1       3.847   5.282  19.780  0.00  0.00    +0.000 NA
ATOM      6  C   UNL     1       3.011   4.241  19.471  0.00  0.00    +0.000 A 
ATOM      7  C   UNL     1       1.651   4.075  19.760  0.00  0.00    +0.000 A 
ATOM      8  C   UNL     1       1.019   2.890  19.367  0.00  0.00    +0.000 A 
ATOM      9  C   UNL     1       1.735   1.883  18.713  0.00  0.00    +0.000 A 
ATOM     10  C   UNL     1       3.093   2.036  18.401  0.00  0.00    +0.000 A 
ATOM     11  C   UNL     1       3.686   3.247  18.767  0.00  0.00    +0.000 A 
ATOM     12  N   UNL     1       4.931   3.783  18.554  0.00  0.00    +0.000 N 
ATOM     13  H   UNL     1       5.961   6.636  19.806  0.00  0.00    +0.000 HD
ATOM     14  H   UNL     1       5.693   3.364  18.040  0.00  0.00    +0.000 HD
ENDROOT
BRANCH   2  15
ATOM     15  C   UNL     1       7.981   6.996  18.227  0.00  0.00    +0.000 C 
BRANCH  15  16
ATOM     16  C   UNL     1       7.637   8.302  17.512  0.00  0.00    +0.000 C 
BRANCH  16  17
ATOM     17  C   UNL     1       8.337   9.496  18.105  0.00  0.00    +0.000 A 
ATOM     18  C   UNL     1       9.014   9.379  19.343  0.00  0.00    +0.000 A 
ATOM     19  C   UNL     1       9.637  10.483  19.932  0.00  0.00    +0.000 A 
ATOM     20  C   UNL     1       9.575  11.685  19.262  0.00  0.00    +0.000 A 
ATOM     21  C   UNL     1       8.942  11.806  18.051  0.00  0.00    +0.000 A 
ATOM     22  C   UNL     1       8.314  10.741  17.445  0.00  0.00    +0.000 A 
ATOM     23  O   UNL     1       8.982  13.077  17.566  0.00  0.00    +0.000 OA
ATOM     24  C   UNL     1       9.700  13.746  18.624  0.00  0.00    +0.000 C 
ATOM     25  O   UNL     1      10.103  12.863  19.691  0.00  0.00    +0.000 OA
ENDBRANCH  16  17
ENDBRANCH  15  16
ENDBRANCH   2  15
TORSDOF 3
ENDMDL
MODEL 7
REMARK VINA RESULT:      -8.0      6.406      8.154
REMARK  Name = 
REMARK  3 active torsions:
REMARK  status: ('A' for Active; 'I' for Inactive)
REMARK    1  A    between atoms: C_2  and  C_3
REMARK    2  A    between atoms: C_3  and  C_4
REMARK    3  A    between atoms: C_4  and  C_5
REMARK                            x       y       z     vdW  Elec       q    Type
REMARK                         _______ _______ _______ _____ _____    ______ ____
ROOT
ATOM      1  O   UNL     1       1.186   9.256  19.752  0.00  0.00    +0.000 OA
ATOM      2  C   UNL     1       1.275   9.223  18.526  0.00  0.00    +0.000 C 
ATOM      3  N   UNL     1       0.373   9.808  17.664  0.00  0.00    +0.000 N 
ATOM      4  C   UNL     1      -0.725  10.481  18.132  0.00  0.00    +0.000 A 
ATOM      5  N   UNL     1      -1.878  10.491  17.513  0.00  0.00    +0.000 NA
ATOM      6  C   UNL     1      -2.718  11.200  18.333  0.00  0.00    +0.000 A 
ATOM      7  C   UNL     1      -4.098  11.415  18.223  0.00  0.00    +0.000 A 
ATOM      8  C   UNL     1      -4.731  12.218  19.178  0.00  0.00    +0.000 A 
ATOM      9  C   UNL     1      -3.999  12.809  20.212  0.00  0.00    +0.000 A 
ATOM     10  C   UNL     1      -2.620  12.594  20.348  0.00  0.00    +0.000 A 
ATOM     11  C   UNL     1      -2.023  11.753  19.405  0.00  0.00    +0.000 A 
ATOM     12  N   UNL     1      -0.754  11.248  19.271  0.00  0.00    +0.000 N 
ATOM     13  H   UNL     1       0.262   9.438  16.729  0.00  0.00    +0.000 HD
ATOM     14  H   UNL     1       0.029  11.399  19.891  0.00  0.00    +0.000 HD
ENDROOT
BRANCH   2  15
ATOM     15  C   UNL     1       2.387   8.455  17.833  0.00  0.00    +0.000 C 
BRANCH  15  16
ATOM     16  C   UNL     1       2.749   7.175  18.583  0.00  0.00    +0.000 C 
BRANCH  16  17
ATOM     17  C   UNL     1       3.561   6.218  17.752  0.00  0.00    +0.000 A 
ATOM     18  C   UNL     1       3.230   4.841  17.730  0.00  0.00    +0.000 A 
ATOM     19  C   UNL     1       3.993   3.927  16.997  0.00  0.00    +0.000 A 
ATOM     20  C   UNL     1       5.072   4.414  16.293  0.00  0.00    +0.000 A 
ATOM     21  C   UNL     1       5.390   5.749  16.288  0.00  0.00    +0.000 A 
ATOM     22  C   UNL     1       4.663   6.675  17.002  0.00  0.00    +0.000 A 
ATOM     23  O   UNL     1       6.496   6.019  15.544  0.00  0.00    +0.000 OA
ATOM     24  C   UNL     1       6.850   4.693  15.097  0.00  0.00    +0.000 C 
ATOM     25  O   UNL     1       5.934   3.674  15.546  0.00  0.00    +0.000 OA
ENDBRANCH  16  17
ENDBRANCH  15  16
ENDBRANCH   2  15
TORSDOF 3
ENDMDL
MODEL 8
REMARK VINA RESULT:      -8.0      2.962      4.334
REMARK  Name = 
REMARK  3 active torsions:
REMARK  status: ('A' for Active; 'I' for Inactive)
REMARK    1  A    between atoms: C_2  and  C_3
REMARK    2  A    between atoms: C_3  and  C_4
REMARK    3  A    between atoms: C_4  and  C_5
REMARK                            x       y       z     vdW  Elec       q    Type
REMARK                         _______ _______ _______ _____ _____    ______ ____
ROOT
ATOM      1  O   UNL     1       7.858   9.722  17.494  0.00  0.00    +0.000 OA
ATOM      2  C   UNL     1       8.529   9.283  18.426  0.00  0.00    +0.000 C 
ATOM      3  N   UNL     1       8.548   7.962  18.816  0.00  0.00    +0.000 N 
ATOM      4  C   UNL     1       7.788   7.019  18.176  0.00  0.00    +0.000 A 
ATOM      5  N   UNL     1       7.246   5.997  18.788  0.00  0.00    +0.000 NA
ATOM      6  C   UNL     1       6.515   5.350  17.826  0.00  0.00    +0.000 A 
ATOM      7  C   UNL     1       5.637   4.266  17.954  0.00  0.00    +0.000 A 
ATOM      8  C   UNL     1       5.032   3.752  16.801  0.00  0.00    +0.000 A 
ATOM      9  C   UNL     1       5.312   4.297  15.545  0.00  0.00    +0.000 A 
ATOM     10  C   UNL     1       6.176   5.390  15.398  0.00  0.00    +0.000 A 
ATOM     11  C   UNL     1       6.730   5.911  16.570  0.00  0.00    +0.000 A 
ATOM     12  N   UNL     1       7.524   7.000  16.828  0.00  0.00    +0.000 N 
ATOM     13  H   UNL     1       8.777   7.726  19.773  0.00  0.00    +0.000 HD
ATOM     14  H   UNL     1       7.859   7.680  16.161  0.00  0.00    +0.000 HD
ENDROOT
BRANCH   2  15
ATOM     15  C   UNL     1       9.374  10.199  19.294  0.00  0.00    +0.000 C 
BRANCH  15  16
ATOM     16  C   UNL     1      10.426  10.947  18.478  0.00  0.00    +0.000 C 
BRANCH  16  17
ATOM     17  C   UNL     1      10.138  12.421  18.359  0.00  0.00    +0.000 A 
ATOM     18  C   UNL     1       9.030  12.983  19.038  0.00  0.00    +0.000 A 
ATOM     19  C   UNL     1       8.720  14.341  18.912  0.00  0.00    +0.000 A 
ATOM     20  C   UNL     1       9.534  15.111  18.111  0.00  0.00    +0.000 A 
ATOM     21  C   UNL     1      10.623  14.582  17.466  0.00  0.00    +0.000 A 
ATOM     22  C   UNL     1      10.955  13.250  17.564  0.00  0.00    +0.000 A 
ATOM     23  O   UNL     1      11.284  15.506  16.717  0.00  0.00    +0.000 OA
ATOM     24  C   UNL     1      10.470  16.675  16.950  0.00  0.00    +0.000 C 
ATOM     25  O   UNL     1       9.373  16.437  17.856  0.00  0.00    +0.000 OA
ENDBRANCH  16  17
ENDBRANCH  15  16
ENDBRANCH   2  15
TORSDOF 3
ENDMDL
MODEL 9
REMARK VINA RESULT:      -8.0      2.860      4.264
REMARK  Name = 
REMARK  3 active torsions:
REMARK  status: ('A' for Active; 'I' for Inactive)
REMARK    1  A    between atoms: C_2  and  C_3
REMARK    2  A    between atoms: C_3  and  C_4
REMARK    3  A    between atoms: C_4  and  C_5
REMARK                            x       y       z     vdW  Elec       q    Type
REMARK                         _______ _______ _______ _____ _____    ______ ____
ROOT
ATOM      1  O   UNL     1       7.903   9.683  17.540  0.00  0.00    +0.000 OA
ATOM      2  C   UNL     1       8.603   9.213  18.435  0.00  0.00    +0.000 C 
ATOM      3  N   UNL     1       8.599   7.888  18.812  0.00  0.00    +0.000 N 
ATOM      4  C   UNL     1       7.780   6.976  18.200  0.00  0.00    +0.000 A 
ATOM      5  N   UNL     1       7.236   5.965  18.828  0.00  0.00    +0.000 NA
ATOM      6  C   UNL     1       6.441   5.351  17.895  0.00  0.00    +0.000 A 
ATOM      7  C   UNL     1       5.536   4.293  18.054  0.00  0.00    +0.000 A 
ATOM      8  C   UNL     1       4.864   3.809  16.926  0.00  0.00    +0.000 A 
ATOM      9  C   UNL     1       5.102   4.359  15.663  0.00  0.00    +0.000 A 
ATOM     10  C   UNL     1       5.992   5.427  15.486  0.00  0.00    +0.000 A 
ATOM     11  C   UNL     1       6.616   5.917  16.636  0.00  0.00    +0.000 A 
ATOM     12  N   UNL     1       7.454   6.979  16.866  0.00  0.00    +0.000 N 
ATOM     13  H   UNL     1       8.865   7.635  19.755  0.00  0.00    +0.000 HD
ATOM     14  H   UNL     1       7.779   7.655  16.190  0.00  0.00    +0.000 HD
ENDROOT
BRANCH   2  15
ATOM     15  C   UNL     1       9.515  10.094  19.272  0.00  0.00    +0.000 C 
BRANCH  15  16
ATOM     16  C   UNL     1       8.942  11.499  19.452  0.00  0.00    +0.000 C 
BRANCH  16  17
ATOM     17  C   UNL     1       9.673  12.539  18.645  0.00  0.00    +0.000 A 
ATOM     18  C   UNL     1      10.835  12.183  17.918  0.00  0.00    +0.000 A 
ATOM     19  C   UNL     1      11.553  13.139  17.193  0.00  0.00    +0.000 A 
ATOM     20  C   UNL     1      11.087  14.435  17.206  0.00  0.00    +0.000 A 
ATOM     21  C   UNL     1       9.950  14.787  17.888  0.00  0.00    +0.000 A 
ATOM     22  C   UNL     1       9.221  13.873  18.615  0.00  0.00    +0.000 A 
ATOM     23  O   UNL     1       9.671  16.115  17.785  0.00  0.00    +0.000 OA
ATOM     24  C   UNL     1      10.777  16.561  16.973  0.00  0.00    +0.000 C 
ATOM     25  O   UNL     1      11.665  15.494  16.579  0.00  0.00    +0.000 OA
ENDBRANCH  16  17
ENDBRANCH  15  16
ENDBRANCH   2  15
TORSDOF 3
ENDMDL
