MODEL 1
REMARK VINA RESULT:      -8.7      0.000      0.000
REMARK  Name = 
REMARK  4 active torsions:
REMARK  status: ('A' for Active; 'I' for Inactive)
REMARK    1  A    between atoms: N_7  and  C_8
REMARK    2  A    between atoms: C_11  and  C_12
REMARK    3  A    between atoms: C_12  and  N_13
REMARK    4  A    between atoms: N_13  and  C_14
REMARK                            x       y       z     vdW  Elec       q    Type
REMARK                         _______ _______ _______ _____ _____    ______ ____
ROOT
ATOM      1  C   UNL     1       3.017   5.713  18.770  0.00  0.00    +0.000 A 
ATOM      2  C   UNL     1       3.332   6.466  17.642  0.00  0.00    +0.000 A 
ATOM      3  C   UNL     1       2.941   7.819  17.516  0.00  0.00    +0.000 A 
ATOM      4  C   UNL     1       2.208   8.468  18.506  0.00  0.00    +0.000 A 
ATOM      5  C   UNL     1       1.918   7.711  19.668  0.00  0.00    +0.000 A 
ATOM      6  C   UNL     1       2.321   6.352  19.792  0.00  0.00    +0.000 A 
ATOM      7  F   UNL     1       2.029   5.683  20.924  0.00  0.00    +0.000 F 
ENDROOT
BRANCH   1  14
ATOM      8  O   UNL     1       0.855   3.633  18.773  0.00  0.00    +0.000 OA
ATOM      9  S   UNL     1       2.173   3.150  18.432  0.00  0.00    +0.000 S 
ATOM     10  O   UNL     1       2.481   2.570  17.146  0.00  0.00    +0.000 OA
ATOM     11  C   UNL     1       2.751   2.025  19.687  0.00  0.00    +0.000 C 
ATOM     12  C   UNL     1       4.178   2.452  20.041  0.00  0.00    +0.000 C 
ATOM     13  C   UNL     1       4.585   3.694  19.223  0.00  0.00    +0.000 C 
ATOM     14  N   UNL     1       3.342   4.316  18.769  0.00  0.00    +0.000 N 
ENDBRANCH   1  14
BRANCH   4  15
ATOM     15  C   UNL     1       1.868   9.965  18.312  0.00  0.00    +0.000 C 
BRANCH  15  16
ATOM     16  N   UNL     1       0.488  10.330  17.848  0.00  0.00    +0.000 N 
ATOM     17  H   UNL     1       0.201   9.644  17.164  0.00  0.00    +0.000 HD
BRANCH  16  18
ATOM     18  C   UNL     1      -0.686  10.790  18.498  0.00  0.00    +0.000 A 
ATOM     19  N   UNL     1      -0.625  11.397  19.718  0.00  0.00    +0.000 NA
ATOM     20  C   UNL     1      -1.746  12.007  20.193  0.00  0.00    +0.000 A 
ATOM     21  N   UNL     1      -2.928  12.061  19.603  0.00  0.00    +0.000 NA
ATOM     22  C   UNL     1      -3.001  11.514  18.405  0.00  0.00    +0.000 A 
ATOM     23  C   UNL     1      -4.224  11.722  17.839  0.00  0.00    +0.000 A 
ATOM     24  C   UNL     1      -4.536  11.194  16.607  0.00  0.00    +0.000 A 
ATOM     25  C   UNL     1      -3.550  10.461  15.948  0.00  0.00    +0.000 A 
ATOM     26  F   UNL     1      -3.844   9.919  14.762  0.00  0.00    +0.000 F 
ATOM     27  C   UNL     1      -2.264  10.300  16.484  0.00  0.00    +0.000 A 
ATOM     28  C   UNL     1      -1.937  10.836  17.768  0.00  0.00    +0.000 A 
ENDBRANCH  16  18
ENDBRANCH  15  16
ENDBRANCH   4  15
TORSDOF 4
ENDMDL
MODEL 2
REMARK VINA RESULT:      -8.6      2.701      3.156
REMARK  Name = 
REMARK  4 active torsions:
REMARK  status: ('A' for Active; 'I' for Inactive)
REMARK    1  A    between atoms: N_7  and  C_8
REMARK    2  A    between atoms: C_11  and  C_12
REMARK    3  A    between atoms: C_12  and  N_13
REMARK    4  A    between atoms: N_13  and  C_14
REMARK                            x       y       z     vdW  Elec       q    Type
REMARK                         _______ _______ _______ _____ _____    ______ ____
ROOT
ATOM      1  C   UNL     1       4.531   5.797  17.657  0.00  0.00    +0.000 A 
ATOM      2  C   UNL     1       4.029   6.998  17.162  0.00  0.00    +0.000 A 
ATOM      3  C   UNL     1       3.090   7.767  17.887  0.00  0.00    +0.000 A 
ATOM      4  C   UNL     1       2.606   7.360  19.128  0.00  0.00    +0.000 A 
ATOM      5  C   UNL     1       3.144   6.156  19.645  0.00  0.00    +0.000 A 
ATOM      6  C   UNL     1       4.094   5.390  18.915  0.00  0.00    +0.000 A 
ATOM      7  F   UNL     1       4.582   4.259  19.459  0.00  0.00    +0.000 F 
ENDROOT
BRANCH   1  14
ATOM      8  O   UNL     1       7.176   6.869  16.730  0.00  0.00    +0.000 OA
ATOM      9  S   UNL     1       6.995   5.446  16.560  0.00  0.00    +0.000 S 
ATOM     10  O   UNL     1       7.826   4.470  17.224  0.00  0.00    +0.000 OA
ATOM     11  C   UNL     1       6.965   5.042  14.824  0.00  0.00    +0.000 C 
ATOM     12  C   UNL     1       5.754   4.131  14.603  0.00  0.00    +0.000 C 
ATOM     13  C   UNL     1       4.994   3.917  15.927  0.00  0.00    +0.000 C 
ATOM     14  N   UNL     1       5.385   5.015  16.810  0.00  0.00    +0.000 N 
ENDBRANCH   1  14
BRANCH   4  15
ATOM     15  C   UNL     1       1.621   8.289  19.878  0.00  0.00    +0.000 C 
BRANCH  15  16
ATOM     16  N   UNL     1       0.796   9.252  19.076  0.00  0.00    +0.000 N 
ATOM     17  H   UNL     1       0.621   8.831  18.174  0.00  0.00    +0.000 HD
BRANCH  16  18
ATOM     18  C   UNL     1      -0.308  10.092  19.368  0.00  0.00    +0.000 A 
ATOM     19  N   UNL     1      -0.325  10.872  20.488  0.00  0.00    +0.000 NA
ATOM     20  C   UNL     1      -1.304  11.810  20.606  0.00  0.00    +0.000 A 
ATOM     21  N   UNL     1      -2.283  12.047  19.750  0.00  0.00    +0.000 NA
ATOM     22  C   UNL     1      -2.265  11.332  18.641  0.00  0.00    +0.000 A 
ATOM     23  C   UNL     1      -3.244  11.728  17.779  0.00  0.00    +0.000 A 
ATOM     24  C   UNL     1      -3.440  11.085  16.579  0.00  0.00    +0.000 A 
ATOM     25  C   UNL     1      -2.585  10.028  16.265  0.00  0.00    +0.000 A 
ATOM     26  F   UNL     1      -2.776   9.373  15.116  0.00  0.00    +0.000 F 
ATOM     27  C   UNL     1      -1.528   9.655  17.108  0.00  0.00    +0.000 A 
ATOM     28  C   UNL     1      -1.327  10.313  18.360  0.00  0.00    +0.000 A 
ENDBRANCH  16  18
ENDBRANCH  15  16
ENDBRANCH   4  15
TORSDOF 4
ENDMDL
MODEL 3
REMARK VINA RESULT:      -8.6      1.398      1.603
REMARK  Name = 
REMARK  4 active torsions:
REMARK  status: ('A' for Active; 'I' for Inactive)
REMARK    1  A    between atoms: N_7  and  C_8
REMARK    2  A    between atoms: C_11  and  C_12
REMARK    3  A    between atoms: C_12  and  N_13
REMARK    4  A    between atoms: N_13  and  C_14
REMARK                            x       y       z     vdW  Elec       q    Type
REMARK                         _______ _______ _______ _____ _____    ______ ____
ROOT
ATOM      1  C   UNL     1       2.573   5.186  19.110  0.00  0.00    +0.000 A 
ATOM      2  C   UNL     1       2.900   5.733  17.873  0.00  0.00    +0.000 A 
ATOM      3  C   UNL     1       2.770   7.117  17.613  0.00  0.00    +0.000 A 
ATOM      4  C   UNL     1       2.295   8.005  18.573  0.00  0.00    +0.000 A 
ATOM      5  C   UNL     1       1.995   7.453  19.843  0.00  0.00    +0.000 A 
ATOM      6  C   UNL     1       2.135   6.061  20.101  0.00  0.00    +0.000 A 
ATOM      7  F   UNL     1       1.847   5.590  21.330  0.00  0.00    +0.000 F 
ENDROOT
BRANCH   1  14
ATOM      8  O   UNL     1       5.188   3.751  19.432  0.00  0.00    +0.000 OA
ATOM      9  S   UNL     1       4.016   2.979  19.773  0.00  0.00    +0.000 S 
ATOM     10  O   UNL     1       3.779   2.471  21.104  0.00  0.00    +0.000 OA
ATOM     11  C   UNL     1       3.830   1.622  18.633  0.00  0.00    +0.000 C 
ATOM     12  C   UNL     1       2.369   1.624  18.176  0.00  0.00    +0.000 C 
ATOM     13  C   UNL     1       1.604   2.794  18.830  0.00  0.00    +0.000 C 
ATOM     14  N   UNL     1       2.615   3.760  19.258  0.00  0.00    +0.000 N 
ENDBRANCH   1  14
BRANCH   4  15
ATOM     15  C   UNL     1       2.236   9.512  18.223  0.00  0.00    +0.000 C 
BRANCH  15  16
ATOM     16  N   UNL     1       0.913  10.102  17.831  0.00  0.00    +0.000 N 
ATOM     17  H   UNL     1       0.538   9.545  17.076  0.00  0.00    +0.000 HD
BRANCH  16  18
ATOM     18  C   UNL     1      -0.189  10.627  18.553  0.00  0.00    +0.000 A 
ATOM     19  N   UNL     1      -0.007  11.309  19.722  0.00  0.00    +0.000 NA
ATOM     20  C   UNL     1      -1.070  11.971  20.255  0.00  0.00    +0.000 A 
ATOM     21  N   UNL     1      -2.300  12.014  19.772  0.00  0.00    +0.000 NA
ATOM     22  C   UNL     1      -2.490  11.395  18.623  0.00  0.00    +0.000 A 
ATOM     23  C   UNL     1      -3.757  11.593  18.157  0.00  0.00    +0.000 A 
ATOM     24  C   UNL     1      -4.189  10.997  16.995  0.00  0.00    +0.000 A 
ATOM     25  C   UNL     1      -3.279  10.202  16.298  0.00  0.00    +0.000 A 
ATOM     26  F   UNL     1      -3.688   9.593  15.180  0.00  0.00    +0.000 F 
ATOM     27  C   UNL     1      -1.952  10.047  16.726  0.00  0.00    +0.000 A 
ATOM     28  C   UNL     1      -1.501  10.655  17.937  0.00  0.00    +0.000 A 
ENDBRANCH  16  18
ENDBRANCH  15  16
ENDBRANCH   4  15
TORSDOF 4
ENDMDL
MODEL 4
REMARK VINA RESULT:      -8.6      2.903      3.520
REMARK  Name = 
REMARK  4 active torsions:
REMARK  status: ('A' for Active; 'I' for Inactive)
REMARK    1  A    between atoms: N_7  and  C_8
REMARK    2  A    between atoms: C_11  and  C_12
REMARK    3  A    between atoms: C_12  and  N_13
REMARK    4  A    between atoms: N_13  and  C_14
REMARK                            x       y       z     vdW  Elec       q    Type
REMARK                         _______ _______ _______ _____ _____    ______ ____
ROOT
ATOM      1  C   UNL     1       4.620   5.490  17.816  0.00  0.00    +0.000 A 
ATOM      2  C   UNL     1       3.957   6.629  17.367  0.00  0.00    +0.000 A 
ATOM      3  C   UNL     1       2.982   7.282  18.155  0.00  0.00    +0.000 A 
ATOM      4  C   UNL     1       2.620   6.815  19.415  0.00  0.00    +0.000 A 
ATOM      5  C   UNL     1       3.320   5.676  19.885  0.00  0.00    +0.000 A 
ATOM      6  C   UNL     1       4.306   5.027  19.091  0.00  0.00    +0.000 A 
ATOM      7  F   UNL     1       4.949   3.955  19.592  0.00  0.00    +0.000 F 
ENDROOT
BRANCH   1  14
ATOM      8  O   UNL     1       7.162   6.793  16.896  0.00  0.00    +0.000 OA
ATOM      9  S   UNL     1       7.075   5.372  16.652  0.00  0.00    +0.000 S 
ATOM     10  O   UNL     1       7.987   4.423  17.246  0.00  0.00    +0.000 OA
ATOM     11  C   UNL     1       7.032   5.058  14.899  0.00  0.00    +0.000 C 
ATOM     12  C   UNL     1       5.883   4.076  14.653  0.00  0.00    +0.000 C 
ATOM     13  C   UNL     1       5.171   3.740  15.979  0.00  0.00    +0.000 C 
ATOM     14  N   UNL     1       5.506   4.815  16.911  0.00  0.00    +0.000 N 
ENDBRANCH   1  14
BRANCH   4  15
ATOM     15  C   UNL     1       1.582   7.621  20.233  0.00  0.00    +0.000 C 
BRANCH  15  16
ATOM     16  N   UNL     1       1.573   9.115  20.098  0.00  0.00    +0.000 N 
ATOM     17  H   UNL     1       1.976   9.347  19.200  0.00  0.00    +0.000 HD
BRANCH  16  18
ATOM     18  C   UNL     1       0.633  10.131  20.410  0.00  0.00    +0.000 A 
ATOM     19  N   UNL     1       0.803  10.940  21.496  0.00  0.00    +0.000 NA
ATOM     20  C   UNL     1      -0.006  12.027  21.624  0.00  0.00    +0.000 A 
ATOM     21  N   UNL     1      -0.981  12.390  20.808  0.00  0.00    +0.000 NA
ATOM     22  C   UNL     1      -1.138  11.646  19.730  0.00  0.00    +0.000 A 
ATOM     23  C   UNL     1      -2.088  12.167  18.902  0.00  0.00    +0.000 A 
ATOM     24  C   UNL     1      -2.450  11.524  17.740  0.00  0.00    +0.000 A 
ATOM     25  C   UNL     1      -1.793  10.334  17.428  0.00  0.00    +0.000 A 
ATOM     26  F   UNL     1      -2.148   9.681  16.317  0.00  0.00    +0.000 F 
ATOM     27  C   UNL     1      -0.763   9.823  18.232  0.00  0.00    +0.000 A 
ATOM     28  C   UNL     1      -0.391  10.480  19.445  0.00  0.00    +0.000 A 
ENDBRANCH  16  18
ENDBRANCH  15  16
ENDBRANCH   4  15
TORSDOF 4
ENDMDL
MODEL 5
REMARK VINA RESULT:      -8.6      4.038      8.828
REMARK  Name = 
REMARK  4 active torsions:
REMARK  status: ('A' for Active; 'I' for Inactive)
REMARK    1  A    between atoms: N_7  and  C_8
REMARK    2  A    between atoms: C_11  and  C_12
REMARK    3  A    between atoms: C_12  and  N_13
REMARK    4  A    between atoms: N_13  and  C_14
REMARK                            x       y       z     vdW  Elec       q    Type
REMARK                         _______ _______ _______ _____ _____    ______ ____
ROOT
ATOM      1  C   UNL     1       1.246   9.557  19.607  0.00  0.00    +0.000 A 
ATOM      2  C   UNL     1       1.135   8.796  20.768  0.00  0.00    +0.000 A 
ATOM      3  C   UNL     1       1.555   7.447  20.816  0.00  0.00    +0.000 A 
ATOM      4  C   UNL     1       2.089   6.802  19.704  0.00  0.00    +0.000 A 
ATOM      5  C   UNL     1       2.233   7.587  18.534  0.00  0.00    +0.000 A 
ATOM      6  C   UNL     1       1.816   8.946  18.493  0.00  0.00    +0.000 A 
ATOM      7  F   UNL     1       1.987   9.651  17.358  0.00  0.00    +0.000 F 
ENDROOT
BRANCH   1  14
ATOM      8  O   UNL     1      -1.570  10.029  18.685  0.00  0.00    +0.000 OA
ATOM      9  S   UNL     1      -0.971  11.121  19.417  0.00  0.00    +0.000 S 
ATOM     10  O   UNL     1      -1.494  11.594  20.678  0.00  0.00    +0.000 OA
ATOM     11  C   UNL     1      -0.773  12.532  18.348  0.00  0.00    +0.000 C 
ATOM     12  C   UNL     1       0.658  13.039  18.544  0.00  0.00    +0.000 C 
ATOM     13  C   UNL     1       1.410  12.148  19.553  0.00  0.00    +0.000 C 
ATOM     14  N   UNL     1       0.686  10.878  19.602  0.00  0.00    +0.000 N 
ENDBRANCH   1  14
BRANCH   4  15
ATOM     15  C   UNL     1       2.573   5.340  19.859  0.00  0.00    +0.000 C 
BRANCH  15  16
ATOM     16  N   UNL     1       3.591   4.818  18.887  0.00  0.00    +0.000 N 
ATOM     17  H   UNL     1       3.124   4.665  18.004  0.00  0.00    +0.000 HD
BRANCH  16  18
ATOM     18  C   UNL     1       4.940   5.144  18.597  0.00  0.00    +0.000 A 
ATOM     19  N   UNL     1       5.823   5.446  19.593  0.00  0.00    +0.000 NA
ATOM     20  C   UNL     1       7.145   5.538  19.279  0.00  0.00    +0.000 A 
ATOM     21  N   UNL     1       7.687   5.386  18.083  0.00  0.00    +0.000 NA
ATOM     22  C   UNL     1       6.858   5.055  17.111  0.00  0.00    +0.000 A 
ATOM     23  C   UNL     1       7.528   4.813  15.948  0.00  0.00    +0.000 A 
ATOM     24  C   UNL     1       6.855   4.499  14.791  0.00  0.00    +0.000 A 
ATOM     25  C   UNL     1       5.464   4.413  14.854  0.00  0.00    +0.000 A 
ATOM     26  F   UNL     1       4.790   4.134  13.734  0.00  0.00    +0.000 F 
ATOM     27  C   UNL     1       4.765   4.587  16.058  0.00  0.00    +0.000 A 
ATOM     28  C   UNL     1       5.459   4.925  17.261  0.00  0.00    +0.000 A 
ENDBRANCH  16  18
ENDBRANCH  15  16
ENDBRANCH   4  15
TORSDOF 4
ENDMDL
MODEL 6
REMARK VINA RESULT:      -8.6      7.708     10.602
REMARK  Name = 
REMARK  4 active torsions:
REMARK  status: ('A' for Active; 'I' for Inactive)
REMARK    1  A    between atoms: N_7  and  C_8
REMARK    2  A    between atoms: C_11  and  C_12
REMARK    3  A    between atoms: C_12  and  N_13
REMARK    4  A    between atoms: N_13  and  C_14
REMARK                            x       y       z     vdW  Elec       q    Type
REMARK                         _______ _______ _______ _____ _____    ______ ____
ROOT
ATOM      1  C   UNL     1       9.394  12.273  18.900  0.00  0.00    +0.000 A 
ATOM      2  C   UNL     1       8.701  11.820  17.780  0.00  0.00    +0.000 A 
ATOM      3  C   UNL     1       8.353  10.460  17.620  0.00  0.00    +0.000 A 
ATOM      4  C   UNL     1       8.696   9.496  18.565  0.00  0.00    +0.000 A 
ATOM      5  C   UNL     1       9.370   9.964  19.719  0.00  0.00    +0.000 A 
ATOM      6  C   UNL     1       9.711  11.336  19.879  0.00  0.00    +0.000 A 
ATOM      7  F   UNL     1      10.342  11.728  21.002  0.00  0.00    +0.000 F 
ENDROOT
BRANCH   1  14
ATOM      8  O   UNL     1      12.148  13.052  17.999  0.00  0.00    +0.000 OA
ATOM      9  S   UNL     1      11.210  14.144  18.126  0.00  0.00    +0.000 S 
ATOM     10  O   UNL     1      10.807  14.959  17.004  0.00  0.00    +0.000 OA
ATOM     11  C   UNL     1      11.726  15.238  19.435  0.00  0.00    +0.000 C 
ATOM     12  C   UNL     1      10.493  15.502  20.303  0.00  0.00    +0.000 C 
ATOM     13  C   UNL     1       9.278  14.719  19.763  0.00  0.00    +0.000 C 
ATOM     14  N   UNL     1       9.817  13.644  18.932  0.00  0.00    +0.000 N 
ENDBRANCH   1  14
BRANCH   4  15
ATOM     15  C   UNL     1       8.229   8.038  18.337  0.00  0.00    +0.000 C 
BRANCH  15  16
ATOM     16  N   UNL     1       7.221   7.772  17.257  0.00  0.00    +0.000 N 
ATOM     17  H   UNL     1       7.394   8.425  16.506  0.00  0.00    +0.000 HD
BRANCH  16  18
ATOM     18  C   UNL     1       6.682   6.597  16.675  0.00  0.00    +0.000 A 
ATOM     19  N   UNL     1       7.450   5.775  15.902  0.00  0.00    +0.000 NA
ATOM     20  C   UNL     1       6.945   4.561  15.551  0.00  0.00    +0.000 A 
ATOM     21  N   UNL     1       5.754   4.078  15.860  0.00  0.00    +0.000 NA
ATOM     22  C   UNL     1       5.008   4.838  16.640  0.00  0.00    +0.000 A 
ATOM     23  C   UNL     1       3.852   4.205  16.991  0.00  0.00    +0.000 A 
ATOM     24  C   UNL     1       2.902   4.835  17.762  0.00  0.00    +0.000 A 
ATOM     25  C   UNL     1       3.174   6.133  18.191  0.00  0.00    +0.000 A 
ATOM     26  F   UNL     1       2.252   6.771  18.920  0.00  0.00    +0.000 F 
ATOM     27  C   UNL     1       4.389   6.771  17.900  0.00  0.00    +0.000 A 
ATOM     28  C   UNL     1       5.375   6.127  17.090  0.00  0.00    +0.000 A 
ENDBRANCH  16  18
ENDBRANCH  15  16
ENDBRANCH   4  15
TORSDOF 4
ENDMDL
MODEL 7
REMARK VINA RESULT:      -8.5      1.388      1.698
REMARK  Name = 
REMARK  4 active torsions:
REMARK  status: ('A' for Active; 'I' for Inactive)
REMARK    1  A    between atoms: N_7  and  C_8
REMARK    2  A    between atoms: C_11  and  C_12
REMARK    3  A    between atoms: C_12  and  N_13
REMARK    4  A    between atoms: N_13  and  C_14
REMARK                            x       y       z     vdW  Elec       q    Type
REMARK                         _______ _______ _______ _____ _____    ______ ____
ROOT
ATOM      1  C   UNL     1       2.914   6.072  18.914  0.00  0.00    +0.000 A 
ATOM      2  C   UNL     1       2.187   6.154  20.099  0.00  0.00    +0.000 A 
ATOM      3  C   UNL     1       1.551   7.350  20.501  0.00  0.00    +0.000 A 
ATOM      4  C   UNL     1       1.628   8.516  19.743  0.00  0.00    +0.000 A 
ATOM      5  C   UNL     1       2.339   8.421  18.521  0.00  0.00    +0.000 A 
ATOM      6  C   UNL     1       2.971   7.212  18.118  0.00  0.00    +0.000 A 
ATOM      7  F   UNL     1       3.624   7.175  16.941  0.00  0.00    +0.000 F 
ENDROOT
BRANCH   1  14
ATOM      8  O   UNL     1       1.673   3.897  17.261  0.00  0.00    +0.000 OA
ATOM      9  S   UNL     1       3.101   3.788  17.449  0.00  0.00    +0.000 S 
ATOM     10  O   UNL     1       4.038   3.842  16.352  0.00  0.00    +0.000 OA
ATOM     11  C   UNL     1       3.478   2.337  18.413  0.00  0.00    +0.000 C 
ATOM     12  C   UNL     1       4.455   2.774  19.508  0.00  0.00    +0.000 C 
ATOM     13  C   UNL     1       4.735   4.287  19.405  0.00  0.00    +0.000 C 
ATOM     14  N   UNL     1       3.631   4.860  18.637  0.00  0.00    +0.000 N 
ENDBRANCH   1  14
BRANCH   4  15
ATOM     15  C   UNL     1       0.857   9.767  20.229  0.00  0.00    +0.000 C 
BRANCH  15  16
ATOM     16  N   UNL     1      -0.010  10.497  19.246  0.00  0.00    +0.000 N 
ATOM     17  H   UNL     1       0.146  10.090  18.335  0.00  0.00    +0.000 HD
BRANCH  16  18
ATOM     18  C   UNL     1      -1.345  10.976  19.269  0.00  0.00    +0.000 A 
ATOM     19  N   UNL     1      -1.787  11.788  20.273  0.00  0.00    +0.000 NA
ATOM     20  C   UNL     1      -3.001  12.387  20.131  0.00  0.00    +0.000 A 
ATOM     21  N   UNL     1      -3.837  12.253  19.116  0.00  0.00    +0.000 NA
ATOM     22  C   UNL     1      -3.415  11.504  18.116  0.00  0.00    +0.000 A 
ATOM     23  C   UNL     1      -4.297  11.521  17.076  0.00  0.00    +0.000 A 
ATOM     24  C   UNL     1      -4.080  10.768  15.945  0.00  0.00    +0.000 A 
ATOM     25  C   UNL     1      -2.914  10.006  15.890  0.00  0.00    +0.000 A 
ATOM     26  F   UNL     1      -2.698   9.247  14.811  0.00  0.00    +0.000 F 
ATOM     27  C   UNL     1      -1.961  10.033  16.920  0.00  0.00    +0.000 A 
ATOM     28  C   UNL     1      -2.187  10.805  18.101  0.00  0.00    +0.000 A 
ENDBRANCH  16  18
ENDBRANCH  15  16
ENDBRANCH   4  15
TORSDOF 4
ENDMDL
MODEL 8
REMARK VINA RESULT:      -8.4      2.867      3.539
REMARK  Name = 
REMARK  4 active torsions:
REMARK  status: ('A' for Active; 'I' for Inactive)
REMARK    1  A    between atoms: N_7  and  C_8
REMARK    2  A    between atoms: C_11  and  C_12
REMARK    3  A    between atoms: C_12  and  N_13
REMARK    4  A    between atoms: N_13  and  C_14
REMARK                            x       y       z     vdW  Elec       q    Type
REMARK                         _______ _______ _______ _____ _____    ______ ____
ROOT
ATOM      1  C   UNL     1       4.103   5.580  18.214  0.00  0.00    +0.000 A 
ATOM      2  C   UNL     1       3.677   5.060  19.433  0.00  0.00    +0.000 A 
ATOM      3  C   UNL     1       2.772   5.759  20.265  0.00  0.00    +0.000 A 
ATOM      4  C   UNL     1       2.269   7.010  19.918  0.00  0.00    +0.000 A 
ATOM      5  C   UNL     1       2.676   7.522  18.661  0.00  0.00    +0.000 A 
ATOM      6  C   UNL     1       3.581   6.811  17.825  0.00  0.00    +0.000 A 
ATOM      7  F   UNL     1       3.926   7.338  16.635  0.00  0.00    +0.000 F 
ENDROOT
BRANCH   1  14
ATOM      8  O   UNL     1       6.819   6.781  17.787  0.00  0.00    +0.000 OA
ATOM      9  S   UNL     1       6.725   5.364  17.525  0.00  0.00    +0.000 S 
ATOM     10  O   UNL     1       7.474   4.381  18.273  0.00  0.00    +0.000 OA
ATOM     11  C   UNL     1       6.996   5.047  15.792  0.00  0.00    +0.000 C 
ATOM     12  C   UNL     1       5.875   4.111  15.333  0.00  0.00    +0.000 C 
ATOM     13  C   UNL     1       4.917   3.805  16.502  0.00  0.00    +0.000 C 
ATOM     14  N   UNL     1       5.115   4.869  17.486  0.00  0.00    +0.000 N 
ENDBRANCH   1  14
BRANCH   4  15
ATOM     15  C   UNL     1       1.240   7.681  20.860  0.00  0.00    +0.000 C 
BRANCH  15  16
ATOM     16  N   UNL     1       1.227   9.178  20.952  0.00  0.00    +0.000 N 
ATOM     17  H   UNL     1       1.852   9.537  20.243  0.00  0.00    +0.000 HD
BRANCH  16  18
ATOM     18  C   UNL     1       0.211  10.149  21.143  0.00  0.00    +0.000 A 
ATOM     19  N   UNL     1       0.146  10.886  22.290  0.00  0.00    +0.000 NA
ATOM     20  C   UNL     1      -0.711  11.943  22.330  0.00  0.00    +0.000 A 
ATOM     21  N   UNL     1      -1.528  12.339  21.369  0.00  0.00    +0.000 NA
ATOM     22  C   UNL     1      -1.455  11.665  20.237  0.00  0.00    +0.000 A 
ATOM     23  C   UNL     1      -2.251  12.219  19.278  0.00  0.00    +0.000 A 
ATOM     24  C   UNL     1      -2.366  11.648  18.032  0.00  0.00    +0.000 A 
ATOM     25  C   UNL     1      -1.621  10.497  17.776  0.00  0.00    +0.000 A 
ATOM     26  F   UNL     1      -1.740   9.913  16.579  0.00  0.00    +0.000 F 
ATOM     27  C   UNL     1      -0.742   9.957  18.726  0.00  0.00    +0.000 A 
ATOM     28  C   UNL     1      -0.627  10.539  20.026  0.00  0.00    +0.000 A 
ENDBRANCH  16  18
ENDBRANCH  15  16
ENDBRANCH   4  15
TORSDOF 4
ENDMDL
MODEL 9
REMARK VINA RESULT:      -8.4      1.727      1.986
REMARK  Name = 
REMARK  4 active torsions:
REMARK  status: ('A' for Active; 'I' for Inactive)
REMARK    1  A    between atoms: N_7  and  C_8
REMARK    2  A    between atoms: C_11  and  C_12
REMARK    3  A    between atoms: C_12  and  N_13
REMARK    4  A    between atoms: N_13  and  C_14
REMARK                            x       y       z     vdW  Elec       q    Type
REMARK                         _______ _______ _______ _____ _____    ______ ____
ROOT
ATOM      1  C   UNL     1       2.591   5.998  19.179  0.00  0.00    +0.000 A 
ATOM      2  C   UNL     1       2.610   7.108  18.337  0.00  0.00    +0.000 A 
ATOM      3  C   UNL     1       2.062   8.350  18.731  0.00  0.00    +0.000 A 
ATOM      4  C   UNL     1       1.462   8.529  19.974  0.00  0.00    +0.000 A 
ATOM      5  C   UNL     1       1.474   7.410  20.842  0.00  0.00    +0.000 A 
ATOM      6  C   UNL     1       2.033   6.164  20.444  0.00  0.00    +0.000 A 
ATOM      7  F   UNL     1       2.028   5.135  21.313  0.00  0.00    +0.000 F 
ENDROOT
BRANCH   1  14
ATOM      8  O   UNL     1       5.521   5.487  18.786  0.00  0.00    +0.000 OA
ATOM      9  S   UNL     1       4.681   4.312  18.752  0.00  0.00    +0.000 S 
ATOM     10  O   UNL     1       4.805   3.238  19.710  0.00  0.00    +0.000 OA
ATOM     11  C   UNL     1       4.711   3.591  17.123  0.00  0.00    +0.000 C 
ATOM     12  C   UNL     1       3.255   3.320  16.732  0.00  0.00    +0.000 C 
ATOM     13  C   UNL     1       2.303   3.785  17.853  0.00  0.00    +0.000 C 
ATOM     14  N   UNL     1       3.055   4.742  18.662  0.00  0.00    +0.000 N 
ENDBRANCH   1  14
BRANCH   4  15
ATOM     15  C   UNL     1       0.936   9.937  20.346  0.00  0.00    +0.000 C 
BRANCH  15  16
ATOM     16  N   UNL     1       0.045  10.647  19.369  0.00  0.00    +0.000 N 
ATOM     17  H   UNL     1       0.222  10.260  18.452  0.00  0.00    +0.000 HD
BRANCH  16  18
ATOM     18  C   UNL     1      -1.308  11.071  19.392  0.00  0.00    +0.000 A 
ATOM     19  N   UNL     1      -1.781  11.868  20.394  0.00  0.00    +0.000 NA
ATOM     20  C   UNL     1      -3.019  12.416  20.252  0.00  0.00    +0.000 A 
ATOM     21  N   UNL     1      -3.850  12.246  19.238  0.00  0.00    +0.000 NA
ATOM     22  C   UNL     1      -3.399  11.511  18.240  0.00  0.00    +0.000 A 
ATOM     23  C   UNL     1      -4.283  11.489  17.201  0.00  0.00    +0.000 A 
ATOM     24  C   UNL     1      -4.036  10.742  16.073  0.00  0.00    +0.000 A 
ATOM     25  C   UNL     1      -2.840  10.027  16.019  0.00  0.00    +0.000 A 
ATOM     26  F   UNL     1      -2.594   9.274  14.941  0.00  0.00    +0.000 F 
ATOM     27  C   UNL     1      -1.888  10.097  17.047  0.00  0.00    +0.000 A 
ATOM     28  C   UNL     1      -2.144  10.862  18.226  0.00  0.00    +0.000 A 
ENDBRANCH  16  18
ENDBRANCH  15  16
ENDBRANCH   4  15
TORSDOF 4
ENDMDL
