MODEL 1
REMARK VINA RESULT:      -8.6      0.000      0.000
REMARK  Name = 
REMARK  7 active torsions:
REMARK  status: ('A' for Active; 'I' for Inactive)
REMARK    1  A    between atoms: C_2  and  C_3
REMARK    2  A    between atoms: C_3  and  N_4
REMARK    3  A    between atoms: N_14  and  C_15
REMARK    4  A    between atoms: C_19  and  S_20
REMARK    5  A    between atoms: S_20  and  N_23
REMARK    6  A    between atoms: N_23  and  C_24
REMARK    7  A    between atoms: C_24  and  C_25
REMARK                            x       y       z     vdW  Elec       q    Type
REMARK                         _______ _______ _______ _____ _____    ______ ____
ROOT
ATOM      1  C   UNL     1       2.580   7.405  18.990  0.00  0.00    +0.000 A 
ATOM      2  C   UNL     1       2.464   8.300  17.921  0.00  0.00    +0.000 A 
ATOM      3  C   UNL     1       1.656   9.436  18.010  0.00  0.00    +0.000 A 
ATOM      4  C   UNL     1       0.941   9.691  19.173  0.00  0.00    +0.000 A 
ATOM      5  C   UNL     1       1.031   8.800  20.246  0.00  0.00    +0.000 A 
ATOM      6  C   UNL     1       1.846   7.658  20.159  0.00  0.00    +0.000 A 
ENDROOT
BRANCH   1   9
ATOM      7  O   UNL     1       1.957   4.627  18.161  0.00  0.00    +0.000 OA
ATOM      8  C   UNL     1       3.068   4.985  18.551  0.00  0.00    +0.000 C 
ATOM      9  N   UNL     1       3.425   6.265  18.957  0.00  0.00    +0.000 N 
ATOM     10  H   UNL     1       4.397   6.406  19.219  0.00  0.00    +0.000 HD
BRANCH   8  11
ATOM     11  C   UNL     1       4.186   3.953  18.658  0.00  0.00    +0.000 C 
BRANCH  11  12
ATOM     12  N   UNL     1       5.400   4.386  18.021  0.00  0.00    +0.000 N 
ATOM     13  C   UNL     1       6.479   4.959  18.654  0.00  0.00    +0.000 A 
ATOM     14  O   UNL     1       6.525   5.240  19.844  0.00  0.00    +0.000 OA
ATOM     15  O   UNL     1       7.513   5.226  17.751  0.00  0.00    +0.000 OA
ATOM     16  C   UNL     1       6.948   4.865  16.538  0.00  0.00    +0.000 A 
ATOM     17  C   UNL     1       7.542   5.017  15.304  0.00  0.00    +0.000 A 
ATOM     18  C   UNL     1       6.784   4.671  14.181  0.00  0.00    +0.000 A 
ATOM     19  C   UNL     1       5.473   4.171  14.322  0.00  0.00    +0.000 A 
ATOM     20  C   UNL     1       4.901   3.998  15.587  0.00  0.00    +0.000 A 
ATOM     21  C   UNL     1       5.667   4.363  16.673  0.00  0.00    +0.000 A 
ENDBRANCH  11  12
ENDBRANCH   8  11
ENDBRANCH   1   9
BRANCH   5  22
ATOM     22  S   UNL     1       0.221   9.240  21.773  0.00  0.00    +0.000 S 
ATOM     23  O   UNL     1      -0.753   8.207  22.044  0.00  0.00    +0.000 OA
ATOM     24  O   UNL     1       1.255   9.583  22.722  0.00  0.00    +0.000 OA
BRANCH  22  25
ATOM     25  N   UNL     1      -0.587  10.680  21.421  0.00  0.00    +0.000 NA
ATOM     26  H   UNL     1      -1.429  10.542  20.862  0.00  0.00    +0.000 HD
BRANCH  25  27
ATOM     27  C   UNL     1      -0.786  11.565  22.574  0.00  0.00    +0.000 C 
BRANCH  27  28
ATOM     28  C   UNL     1      -2.149  12.147  22.543  0.00  0.00    +0.000 A 
ATOM     29  C   UNL     1      -3.143  12.276  23.491  0.00  0.00    +0.000 A 
ATOM     30  C   UNL     1      -4.282  12.767  22.809  0.00  0.00    +0.000 A 
ATOM     31  C   UNL     1      -3.900  12.938  21.499  0.00  0.00    +0.000 A 
ATOM     32  O   UNL     1      -2.601  12.578  21.330  0.00  0.00    +0.000 OA
ENDBRANCH  27  28
ENDBRANCH  25  27
ENDBRANCH  22  25
ENDBRANCH   5  22
TORSDOF 7
ENDMDL
MODEL 2
REMARK VINA RESULT:      -8.4      1.129      1.449
REMARK  Name = 
REMARK  7 active torsions:
REMARK  status: ('A' for Active; 'I' for Inactive)
REMARK    1  A    between atoms: C_2  and  C_3
REMARK    2  A    between atoms: C_3  and  N_4
REMARK    3  A    between atoms: N_14  and  C_15
REMARK    4  A    between atoms: C_19  and  S_20
REMARK    5  A    between atoms: S_20  and  N_23
REMARK    6  A    between atoms: N_23  and  C_24
REMARK    7  A    between atoms: C_24  and  C_25
REMARK                            x       y       z     vdW  Elec       q    Type
REMARK                         _______ _______ _______ _____ _____    ______ ____
ROOT
ATOM      1  C   UNL     1       2.636   7.415  18.973  0.00  0.00    +0.000 A 
ATOM      2  C   UNL     1       2.485   8.284  17.887  0.00  0.00    +0.000 A 
ATOM      3  C   UNL     1       1.654   9.404  17.965  0.00  0.00    +0.000 A 
ATOM      4  C   UNL     1       0.951   9.669  19.132  0.00  0.00    +0.000 A 
ATOM      5  C   UNL     1       1.076   8.804  20.223  0.00  0.00    +0.000 A 
ATOM      6  C   UNL     1       1.915   7.678  20.149  0.00  0.00    +0.000 A 
ENDROOT
BRANCH   1   9
ATOM      7  O   UNL     1       2.027   4.578  18.364  0.00  0.00    +0.000 OA
ATOM      8  C   UNL     1       3.153   4.983  18.653  0.00  0.00    +0.000 C 
ATOM      9  N   UNL     1       3.505   6.293  18.952  0.00  0.00    +0.000 N 
ATOM     10  H   UNL     1       4.489   6.470  19.136  0.00  0.00    +0.000 HD
BRANCH   8  11
ATOM     11  C   UNL     1       4.301   3.983  18.745  0.00  0.00    +0.000 C 
BRANCH  11  12
ATOM     12  N   UNL     1       5.484   4.435  18.065  0.00  0.00    +0.000 N 
ATOM     13  C   UNL     1       6.567   5.043  18.657  0.00  0.00    +0.000 A 
ATOM     14  O   UNL     1       6.642   5.343  19.841  0.00  0.00    +0.000 OA
ATOM     15  O   UNL     1       7.566   5.323  17.719  0.00  0.00    +0.000 OA
ATOM     16  C   UNL     1       6.974   4.931  16.529  0.00  0.00    +0.000 A 
ATOM     17  C   UNL     1       7.526   5.080  15.276  0.00  0.00    +0.000 A 
ATOM     18  C   UNL     1       6.744   4.699  14.182  0.00  0.00    +0.000 A 
ATOM     19  C   UNL     1       5.450   4.170  14.369  0.00  0.00    +0.000 A 
ATOM     20  C   UNL     1       4.922   4.001  15.653  0.00  0.00    +0.000 A 
ATOM     21  C   UNL     1       5.711   4.400  16.710  0.00  0.00    +0.000 A 
ENDBRANCH  11  12
ENDBRANCH   8  11
ENDBRANCH   1   9
BRANCH   5  22
ATOM     22  S   UNL     1       0.281   9.261  21.753  0.00  0.00    +0.000 S 
ATOM     23  O   UNL     1      -0.780   8.303  21.976  0.00  0.00    +0.000 OA
ATOM     24  O   UNL     1       1.323   9.487  22.726  0.00  0.00    +0.000 OA
BRANCH  22  25
ATOM     25  N   UNL     1      -0.401  10.773  21.437  0.00  0.00    +0.000 NA
ATOM     26  H   UNL     1      -0.960  10.791  20.584  0.00  0.00    +0.000 HD
BRANCH  25  27
ATOM     27  C   UNL     1      -1.066  11.394  22.588  0.00  0.00    +0.000 C 
BRANCH  27  28
ATOM     28  C   UNL     1      -0.851  12.861  22.573  0.00  0.00    +0.000 A 
ATOM     29  C   UNL     1      -0.165  13.707  21.726  0.00  0.00    +0.000 A 
ATOM     30  C   UNL     1      -0.187  14.984  22.335  0.00  0.00    +0.000 A 
ATOM     31  C   UNL     1      -0.912  14.843  23.495  0.00  0.00    +0.000 A 
ATOM     32  O   UNL     1      -1.333  13.560  23.641  0.00  0.00    +0.000 OA
ENDBRANCH  27  28
ENDBRANCH  25  27
ENDBRANCH  22  25
ENDBRANCH   5  22
TORSDOF 7
ENDMDL
MODEL 3
REMARK VINA RESULT:      -8.2      1.669      1.952
REMARK  Name = 
REMARK  7 active torsions:
REMARK  status: ('A' for Active; 'I' for Inactive)
REMARK    1  A    between atoms: C_2  and  C_3
REMARK    2  A    between atoms: C_3  and  N_4
REMARK    3  A    between atoms: N_14  and  C_15
REMARK    4  A    between atoms: C_19  and  S_20
REMARK    5  A    between atoms: S_20  and  N_23
REMARK    6  A    between atoms: N_23  and  C_24
REMARK    7  A    between atoms: C_24  and  C_25
REMARK                            x       y       z     vdW  Elec       q    Type
REMARK                         _______ _______ _______ _____ _____    ______ ____
ROOT
ATOM      1  C   UNL     1       2.444   7.473  18.967  0.00  0.00    +0.000 A 
ATOM      2  C   UNL     1       2.129   8.205  17.817  0.00  0.00    +0.000 A 
ATOM      3  C   UNL     1       1.350   9.363  17.885  0.00  0.00    +0.000 A 
ATOM      4  C   UNL     1       0.865   9.804  19.109  0.00  0.00    +0.000 A 
ATOM      5  C   UNL     1       1.154   9.077  20.267  0.00  0.00    +0.000 A 
ATOM      6  C   UNL     1       1.941   7.913  20.202  0.00  0.00    +0.000 A 
ENDROOT
BRANCH   1   9
ATOM      7  O   UNL     1       1.893   4.787  17.840  0.00  0.00    +0.000 OA
ATOM      8  C   UNL     1       2.949   5.085  18.396  0.00  0.00    +0.000 C 
ATOM      9  N   UNL     1       3.269   6.319  18.948  0.00  0.00    +0.000 N 
ATOM     10  H   UNL     1       4.202   6.414  19.343  0.00  0.00    +0.000 HD
BRANCH   8  11
ATOM     11  C   UNL     1       4.029   4.019  18.559  0.00  0.00    +0.000 C 
BRANCH  11  12
ATOM     12  N   UNL     1       5.283   4.410  17.974  0.00  0.00    +0.000 N 
ATOM     13  C   UNL     1       6.357   4.935  18.655  0.00  0.00    +0.000 A 
ATOM     14  O   UNL     1       6.367   5.205  19.849  0.00  0.00    +0.000 OA
ATOM     15  O   UNL     1       7.435   5.171  17.796  0.00  0.00    +0.000 OA
ATOM     16  C   UNL     1       6.905   4.842  16.558  0.00  0.00    +0.000 A 
ATOM     17  C   UNL     1       7.552   4.982  15.350  0.00  0.00    +0.000 A 
ATOM     18  C   UNL     1       6.827   4.674  14.195  0.00  0.00    +0.000 A 
ATOM     19  C   UNL     1       5.494   4.225  14.279  0.00  0.00    +0.000 A 
ATOM     20  C   UNL     1       4.866   4.063  15.519  0.00  0.00    +0.000 A 
ATOM     21  C   UNL     1       5.602   4.389  16.637  0.00  0.00    +0.000 A 
ENDBRANCH  11  12
ENDBRANCH   8  11
ENDBRANCH   1   9
BRANCH   5  22
ATOM     22  S   UNL     1       0.644   9.757  21.835  0.00  0.00    +0.000 S 
ATOM     23  O   UNL     1      -0.782   9.541  21.941  0.00  0.00    +0.000 OA
ATOM     24  O   UNL     1       1.566   9.269  22.834  0.00  0.00    +0.000 OA
BRANCH  22  25
ATOM     25  N   UNL     1       0.942  11.412  21.693  0.00  0.00    +0.000 NA
ATOM     26  H   UNL     1       1.595  11.640  20.943  0.00  0.00    +0.000 HD
BRANCH  25  27
ATOM     27  C   UNL     1      -0.262  12.252  21.698  0.00  0.00    +0.000 C 
BRANCH  27  28
ATOM     28  C   UNL     1      -0.313  13.080  20.470  0.00  0.00    +0.000 A 
ATOM     29  C   UNL     1      -0.871  12.887  19.223  0.00  0.00    +0.000 A 
ATOM     30  C   UNL     1      -0.437  13.970  18.421  0.00  0.00    +0.000 A 
ATOM     31  C   UNL     1       0.327  14.770  19.238  0.00  0.00    +0.000 A 
ATOM     32  O   UNL     1       0.397  14.245  20.489  0.00  0.00    +0.000 OA
ENDBRANCH  27  28
ENDBRANCH  25  27
ENDBRANCH  22  25
ENDBRANCH   5  22
TORSDOF 7
ENDMDL
MODEL 4
REMARK VINA RESULT:      -8.1      2.652      9.356
REMARK  Name = 
REMARK  7 active torsions:
REMARK  status: ('A' for Active; 'I' for Inactive)
REMARK    1  A    between atoms: C_2  and  C_3
REMARK    2  A    between atoms: C_3  and  N_4
REMARK    3  A    between atoms: N_14  and  C_15
REMARK    4  A    between atoms: C_19  and  S_20
REMARK    5  A    between atoms: S_20  and  N_23
REMARK    6  A    between atoms: N_23  and  C_24
REMARK    7  A    between atoms: C_24  and  C_25
REMARK                            x       y       z     vdW  Elec       q    Type
REMARK                         _______ _______ _______ _____ _____    ______ ____
ROOT
ATOM      1  C   UNL     1       2.203   6.222  19.795  0.00  0.00    +0.000 A 
ATOM      2  C   UNL     1       2.018   5.704  21.081  0.00  0.00    +0.000 A 
ATOM      3  C   UNL     1       2.146   4.337  21.337  0.00  0.00    +0.000 A 
ATOM      4  C   UNL     1       2.455   3.461  20.305  0.00  0.00    +0.000 A 
ATOM      5  C   UNL     1       2.627   3.957  19.010  0.00  0.00    +0.000 A 
ATOM      6  C   UNL     1       2.502   5.333  18.750  0.00  0.00    +0.000 A 
ENDROOT
BRANCH   1   9
ATOM      7  O   UNL     1       0.521   8.320  21.045  0.00  0.00    +0.000 OA
ATOM      8  C   UNL     1       1.315   8.542  20.132  0.00  0.00    +0.000 C 
ATOM      9  N   UNL     1       2.127   7.608  19.500  0.00  0.00    +0.000 N 
ATOM     10  H   UNL     1       2.756   7.961  18.784  0.00  0.00    +0.000 HD
BRANCH   8  11
ATOM     11  C   UNL     1       1.427   9.958  19.573  0.00  0.00    +0.000 C 
BRANCH  11  12
ATOM     12  N   UNL     1       0.191  10.687  19.665  0.00  0.00    +0.000 N 
ATOM     13  C   UNL     1      -0.180  11.510  20.703  0.00  0.00    +0.000 A 
ATOM     14  O   UNL     1       0.466  11.682  21.727  0.00  0.00    +0.000 OA
ATOM     15  O   UNL     1      -1.427  12.098  20.462  0.00  0.00    +0.000 OA
ATOM     16  C   UNL     1      -1.808  11.504  19.269  0.00  0.00    +0.000 A 
ATOM     17  C   UNL     1      -3.019  11.688  18.638  0.00  0.00    +0.000 A 
ATOM     18  C   UNL     1      -3.260  10.940  17.482  0.00  0.00    +0.000 A 
ATOM     19  C   UNL     1      -2.287  10.049  16.984  0.00  0.00    +0.000 A 
ATOM     20  C   UNL     1      -1.053   9.899  17.627  0.00  0.00    +0.000 A 
ATOM     21  C   UNL     1      -0.853  10.639  18.772  0.00  0.00    +0.000 A 
ENDBRANCH  11  12
ENDBRANCH   8  11
ENDBRANCH   1   9
BRANCH   5  22
ATOM     22  S   UNL     1       3.172   2.827  17.742  0.00  0.00    +0.000 S 
ATOM     23  O   UNL     1       2.947   1.490  18.248  0.00  0.00    +0.000 OA
ATOM     24  O   UNL     1       2.603   3.277  16.494  0.00  0.00    +0.000 OA
BRANCH  22  25
ATOM     25  N   UNL     1       4.834   3.098  17.623  0.00  0.00    +0.000 NA
ATOM     26  H   UNL     1       5.373   2.241  17.504  0.00  0.00    +0.000 HD
BRANCH  25  27
ATOM     27  C   UNL     1       5.213   4.165  16.690  0.00  0.00    +0.000 C 
BRANCH  27  28
ATOM     28  C   UNL     1       6.128   5.125  17.354  0.00  0.00    +0.000 A 
ATOM     29  C   UNL     1       6.492   6.427  17.081  0.00  0.00    +0.000 A 
ATOM     30  C   UNL     1       7.534   6.746  17.984  0.00  0.00    +0.000 A 
ATOM     31  C   UNL     1       7.714   5.633  18.771  0.00  0.00    +0.000 A 
ATOM     32  O   UNL     1       6.854   4.647  18.407  0.00  0.00    +0.000 OA
ENDBRANCH  27  28
ENDBRANCH  25  27
ENDBRANCH  22  25
ENDBRANCH   5  22
TORSDOF 7
ENDMDL
MODEL 5
REMARK VINA RESULT:      -8.0      2.573      9.923
REMARK  Name = 
REMARK  7 active torsions:
REMARK  status: ('A' for Active; 'I' for Inactive)
REMARK    1  A    between atoms: C_2  and  C_3
REMARK    2  A    between atoms: C_3  and  N_4
REMARK    3  A    between atoms: N_14  and  C_15
REMARK    4  A    between atoms: C_19  and  S_20
REMARK    5  A    between atoms: S_20  and  N_23
REMARK    6  A    between atoms: N_23  and  C_24
REMARK    7  A    between atoms: C_24  and  C_25
REMARK                            x       y       z     vdW  Elec       q    Type
REMARK                         _______ _______ _______ _____ _____    ______ ____
ROOT
ATOM      1  C   UNL     1       2.216   7.144  19.714  0.00  0.00    +0.000 A 
ATOM      2  C   UNL     1       1.466   6.370  20.604  0.00  0.00    +0.000 A 
ATOM      3  C   UNL     1       1.713   5.004  20.764  0.00  0.00    +0.000 A 
ATOM      4  C   UNL     1       2.714   4.387  20.025  0.00  0.00    +0.000 A 
ATOM      5  C   UNL     1       3.464   5.141  19.118  0.00  0.00    +0.000 A 
ATOM      6  C   UNL     1       3.219   6.516  18.958  0.00  0.00    +0.000 A 
ENDROOT
BRANCH   1   9
ATOM      7  O   UNL     1       1.057   8.638  17.430  0.00  0.00    +0.000 OA
ATOM      8  C   UNL     1       1.472   9.180  18.454  0.00  0.00    +0.000 C 
ATOM      9  N   UNL     1       2.028   8.542  19.556  0.00  0.00    +0.000 N 
ATOM     10  H   UNL     1       2.290   9.133  20.340  0.00  0.00    +0.000 HD
BRANCH   8  11
ATOM     11  C   UNL     1       1.431  10.701  18.557  0.00  0.00    +0.000 C 
BRANCH  11  12
ATOM     12  N   UNL     1       0.319  11.173  19.337  0.00  0.00    +0.000 N 
ATOM     13  C   UNL     1       0.341  11.440  20.687  0.00  0.00    +0.000 A 
ATOM     14  O   UNL     1       1.299  11.249  21.424  0.00  0.00    +0.000 OA
ATOM     15  O   UNL     1      -0.896  11.920  21.128  0.00  0.00    +0.000 OA
ATOM     16  C   UNL     1      -1.673  11.833  19.983  0.00  0.00    +0.000 A 
ATOM     17  C   UNL     1      -3.019  12.115  19.910  0.00  0.00    +0.000 A 
ATOM     18  C   UNL     1      -3.655  11.890  18.685  0.00  0.00    +0.000 A 
ATOM     19  C   UNL     1      -2.932  11.410  17.574  0.00  0.00    +0.000 A 
ATOM     20  C   UNL     1      -1.559  11.157  17.665  0.00  0.00    +0.000 A 
ATOM     21  C   UNL     1      -0.965  11.374  18.890  0.00  0.00    +0.000 A 
ENDBRANCH  11  12
ENDBRANCH   8  11
ENDBRANCH   1   9
BRANCH   5  22
ATOM     22  S   UNL     1       4.839   4.349  18.303  0.00  0.00    +0.000 S 
ATOM     23  O   UNL     1       5.864   4.153  19.304  0.00  0.00    +0.000 OA
ATOM     24  O   UNL     1       4.304   3.252  17.531  0.00  0.00    +0.000 OA
BRANCH  22  25
ATOM     25  N   UNL     1       5.376   5.491  17.181  0.00  0.00    +0.000 NA
ATOM     26  H   UNL     1       5.209   6.453  17.476  0.00  0.00    +0.000 HD
BRANCH  25  27
ATOM     27  C   UNL     1       6.734   5.259  16.676  0.00  0.00    +0.000 C 
BRANCH  27  28
ATOM     28  C   UNL     1       6.691   4.891  15.241  0.00  0.00    +0.000 A 
ATOM     29  C   UNL     1       5.924   4.003  14.516  0.00  0.00    +0.000 A 
ATOM     30  C   UNL     1       6.470   3.980  13.210  0.00  0.00    +0.000 A 
ATOM     31  C   UNL     1       7.511   4.878  13.214  0.00  0.00    +0.000 A 
ATOM     32  O   UNL     1       7.644   5.449  14.439  0.00  0.00    +0.000 OA
ENDBRANCH  27  28
ENDBRANCH  25  27
ENDBRANCH  22  25
ENDBRANCH   5  22
TORSDOF 7
ENDMDL
MODEL 6
REMARK VINA RESULT:      -8.0      1.792      2.450
REMARK  Name = 
REMARK  7 active torsions:
REMARK  status: ('A' for Active; 'I' for Inactive)
REMARK    1  A    between atoms: C_2  and  C_3
REMARK    2  A    between atoms: C_3  and  N_4
REMARK    3  A    between atoms: N_14  and  C_15
REMARK    4  A    between atoms: C_19  and  S_20
REMARK    5  A    between atoms: S_20  and  N_23
REMARK    6  A    between atoms: N_23  and  C_24
REMARK    7  A    between atoms: C_24  and  C_25
REMARK                            x       y       z     vdW  Elec       q    Type
REMARK                         _______ _______ _______ _____ _____    ______ ____
ROOT
ATOM      1  C   UNL     1       2.005   7.640  19.893  0.00  0.00    +0.000 A 
ATOM      2  C   UNL     1       1.839   8.527  18.824  0.00  0.00    +0.000 A 
ATOM      3  C   UNL     1       1.124   9.718  18.974  0.00  0.00    +0.000 A 
ATOM      4  C   UNL     1       0.555  10.038  20.199  0.00  0.00    +0.000 A 
ATOM      5  C   UNL     1       0.697   9.158  21.275  0.00  0.00    +0.000 A 
ATOM      6  C   UNL     1       1.418   7.960  21.127  0.00  0.00    +0.000 A 
ENDROOT
BRANCH   1   9
ATOM      7  O   UNL     1       1.150   4.836  20.333  0.00  0.00    +0.000 OA
ATOM      8  C   UNL     1       2.295   5.153  20.012  0.00  0.00    +0.000 C 
ATOM      9  N   UNL     1       2.762   6.444  19.796  0.00  0.00    +0.000 N 
ATOM     10  H   UNL     1       3.731   6.535  19.500  0.00  0.00    +0.000 HD
BRANCH   8  11
ATOM     11  C   UNL     1       3.354   4.065  19.866  0.00  0.00    +0.000 C 
BRANCH  11  12
ATOM     12  N   UNL     1       3.871   3.973  18.528  0.00  0.00    +0.000 N 
ATOM     13  C   UNL     1       3.201   3.454  17.443  0.00  0.00    +0.000 A 
ATOM     14  O   UNL     1       2.093   2.937  17.484  0.00  0.00    +0.000 OA
ATOM     15  O   UNL     1       3.973   3.549  16.280  0.00  0.00    +0.000 OA
ATOM     16  C   UNL     1       5.166   4.067  16.757  0.00  0.00    +0.000 A 
ATOM     17  C   UNL     1       6.303   4.275  16.007  0.00  0.00    +0.000 A 
ATOM     18  C   UNL     1       7.441   4.729  16.679  0.00  0.00    +0.000 A 
ATOM     19  C   UNL     1       7.408   4.977  18.067  0.00  0.00    +0.000 A 
ATOM     20  C   UNL     1       6.234   4.785  18.804  0.00  0.00    +0.000 A 
ATOM     21  C   UNL     1       5.134   4.322  18.115  0.00  0.00    +0.000 A 
ENDBRANCH  11  12
ENDBRANCH   8  11
ENDBRANCH   1   9
BRANCH   5  22
ATOM     22  S   UNL     1       0.085   9.674  22.869  0.00  0.00    +0.000 S 
ATOM     23  O   UNL     1      -1.153   8.961  23.095  0.00  0.00    +0.000 OA
ATOM     24  O   UNL     1       1.190   9.598  23.796  0.00  0.00    +0.000 OA
BRANCH  22  25
ATOM     25  N   UNL     1      -0.252  11.317  22.678  0.00  0.00    +0.000 NA
ATOM     26  H   UNL     1       0.245  11.741  21.895  0.00  0.00    +0.000 HD
BRANCH  25  27
ATOM     27  C   UNL     1      -1.679  11.656  22.720  0.00  0.00    +0.000 C 
BRANCH  27  28
ATOM     28  C   UNL     1      -1.866  13.016  23.279  0.00  0.00    +0.000 A 
ATOM     29  C   UNL     1      -2.967  13.833  23.430  0.00  0.00    +0.000 A 
ATOM     30  C   UNL     1      -2.477  15.083  23.877  0.00  0.00    +0.000 A 
ATOM     31  C   UNL     1      -1.116  14.939  24.003  0.00  0.00    +0.000 A 
ATOM     32  O   UNL     1      -0.735  13.681  23.656  0.00  0.00    +0.000 OA
ENDBRANCH  27  28
ENDBRANCH  25  27
ENDBRANCH  22  25
ENDBRANCH   5  22
TORSDOF 7
ENDMDL
MODEL 7
REMARK VINA RESULT:      -7.9      2.736      4.048
REMARK  Name = 
REMARK  7 active torsions:
REMARK  status: ('A' for Active; 'I' for Inactive)
REMARK    1  A    between atoms: C_2  and  C_3
REMARK    2  A    between atoms: C_3  and  N_4
REMARK    3  A    between atoms: N_14  and  C_15
REMARK    4  A    between atoms: C_19  and  S_20
REMARK    5  A    between atoms: S_20  and  N_23
REMARK    6  A    between atoms: N_23  and  C_24
REMARK    7  A    between atoms: C_24  and  C_25
REMARK                            x       y       z     vdW  Elec       q    Type
REMARK                         _______ _______ _______ _____ _____    ______ ____
ROOT
ATOM      1  C   UNL     1       1.160   9.543  17.945  0.00  0.00    +0.000 A 
ATOM      2  C   UNL     1      -0.205   9.371  17.690  0.00  0.00    +0.000 A 
ATOM      3  C   UNL     1      -1.135  10.356  18.029  0.00  0.00    +0.000 A 
ATOM      4  C   UNL     1      -0.715  11.530  18.640  0.00  0.00    +0.000 A 
ATOM      5  C   UNL     1       0.642  11.713  18.918  0.00  0.00    +0.000 A 
ATOM      6  C   UNL     1       1.581  10.725  18.574  0.00  0.00    +0.000 A 
ENDROOT
BRANCH   1   9
ATOM      7  O   UNL     1       2.443   7.433  19.585  0.00  0.00    +0.000 OA
ATOM      8  C   UNL     1       2.702   7.619  18.397  0.00  0.00    +0.000 C 
ATOM      9  N   UNL     1       2.143   8.589  17.574  0.00  0.00    +0.000 N 
ATOM     10  H   UNL     1       2.440   8.588  16.601  0.00  0.00    +0.000 HD
BRANCH   8  11
ATOM     11  C   UNL     1       3.763   6.754  17.724  0.00  0.00    +0.000 C 
BRANCH  11  12
ATOM     12  N   UNL     1       3.984   5.512  18.414  0.00  0.00    +0.000 N 
ATOM     13  C   UNL     1       5.163   5.121  19.006  0.00  0.00    +0.000 A 
ATOM     14  O   UNL     1       6.210   5.753  18.968  0.00  0.00    +0.000 OA
ATOM     15  O   UNL     1       5.029   3.874  19.626  0.00  0.00    +0.000 OA
ATOM     16  C   UNL     1       3.735   3.512  19.286  0.00  0.00    +0.000 A 
ATOM     17  C   UNL     1       3.137   2.309  19.591  0.00  0.00    +0.000 A 
ATOM     18  C   UNL     1       1.849   2.089  19.093  0.00  0.00    +0.000 A 
ATOM     19  C   UNL     1       1.194   3.074  18.327  0.00  0.00    +0.000 A 
ATOM     20  C   UNL     1       1.810   4.301  18.054  0.00  0.00    +0.000 A 
ATOM     21  C   UNL     1       3.085   4.481  18.545  0.00  0.00    +0.000 A 
ENDBRANCH  11  12
ENDBRANCH   8  11
ENDBRANCH   1   9
BRANCH   5  22
ATOM     22  S   UNL     1       1.162  13.293  19.561  0.00  0.00    +0.000 S 
ATOM     23  O   UNL     1       2.515  13.511  19.097  0.00  0.00    +0.000 OA
ATOM     24  O   UNL     1       0.102  14.236  19.290  0.00  0.00    +0.000 OA
BRANCH  22  25
ATOM     25  N   UNL     1       1.182  13.080  21.236  0.00  0.00    +0.000 NA
ATOM     26  H   UNL     1       1.708  13.804  21.726  0.00  0.00    +0.000 HD
BRANCH  25  27
ATOM     27  C   UNL     1      -0.129  12.801  21.831  0.00  0.00    +0.000 C 
BRANCH  27  28
ATOM     28  C   UNL     1      -0.196  11.391  22.283  0.00  0.00    +0.000 A 
ATOM     29  C   UNL     1      -1.097  10.688  23.055  0.00  0.00    +0.000 A 
ATOM     30  C   UNL     1      -0.524   9.413  23.274  0.00  0.00    +0.000 A 
ATOM     31  C   UNL     1       0.671   9.408  22.594  0.00  0.00    +0.000 A 
ATOM     32  O   UNL     1       0.873  10.600  21.975  0.00  0.00    +0.000 OA
ENDBRANCH  27  28
ENDBRANCH  25  27
ENDBRANCH  22  25
ENDBRANCH   5  22
TORSDOF 7
ENDMDL
MODEL 8
REMARK VINA RESULT:      -7.9      2.824      4.101
REMARK  Name = 
REMARK  7 active torsions:
REMARK  status: ('A' for Active; 'I' for Inactive)
REMARK    1  A    between atoms: C_2  and  C_3
REMARK    2  A    between atoms: C_3  and  N_4
REMARK    3  A    between atoms: N_14  and  C_15
REMARK    4  A    between atoms: C_19  and  S_20
REMARK    5  A    between atoms: S_20  and  N_23
REMARK    6  A    between atoms: N_23  and  C_24
REMARK    7  A    between atoms: C_24  and  C_25
REMARK                            x       y       z     vdW  Elec       q    Type
REMARK                         _______ _______ _______ _____ _____    ______ ____
ROOT
ATOM      1  C   UNL     1       1.171   8.139  21.037  0.00  0.00    +0.000 A 
ATOM      2  C   UNL     1       0.236   8.364  22.053  0.00  0.00    +0.000 A 
ATOM      3  C   UNL     1      -0.424   9.590  22.173  0.00  0.00    +0.000 A 
ATOM      4  C   UNL     1      -0.151  10.618  21.280  0.00  0.00    +0.000 A 
ATOM      5  C   UNL     1       0.791  10.418  20.268  0.00  0.00    +0.000 A 
ATOM      6  C   UNL     1       1.454   9.184  20.143  0.00  0.00    +0.000 A 
ENDROOT
BRANCH   1   9
ATOM      7  O   UNL     1       2.311   6.968  18.563  0.00  0.00    +0.000 OA
ATOM      8  C   UNL     1       2.345   6.407  19.658  0.00  0.00    +0.000 C 
ATOM      9  N   UNL     1       1.828   6.896  20.851  0.00  0.00    +0.000 N 
ATOM     10  H   UNL     1       1.970   6.322  21.679  0.00  0.00    +0.000 HD
BRANCH   8  11
ATOM     11  C   UNL     1       2.968   5.018  19.761  0.00  0.00    +0.000 C 
BRANCH  11  12
ATOM     12  N   UNL     1       3.682   4.643  18.570  0.00  0.00    +0.000 N 
ATOM     13  C   UNL     1       3.143   3.993  17.483  0.00  0.00    +0.000 A 
ATOM     14  O   UNL     1       1.992   3.585  17.409  0.00  0.00    +0.000 OA
ATOM     15  O   UNL     1       4.099   3.812  16.478  0.00  0.00    +0.000 OA
ATOM     16  C   UNL     1       5.250   4.308  17.070  0.00  0.00    +0.000 A 
ATOM     17  C   UNL     1       6.509   4.282  16.511  0.00  0.00    +0.000 A 
ATOM     18  C   UNL     1       7.567   4.756  17.294  0.00  0.00    +0.000 A 
ATOM     19  C   UNL     1       7.337   5.252  18.593  0.00  0.00    +0.000 A 
ATOM     20  C   UNL     1       6.045   5.294  19.128  0.00  0.00    +0.000 A 
ATOM     21  C   UNL     1       5.027   4.807  18.339  0.00  0.00    +0.000 A 
ENDBRANCH  11  12
ENDBRANCH   8  11
ENDBRANCH   1   9
BRANCH   5  22
ATOM     22  S   UNL     1       1.002  11.704  19.050  0.00  0.00    +0.000 S 
ATOM     23  O   UNL     1       1.128  12.950  19.774  0.00  0.00    +0.000 OA
ATOM     24  O   UNL     1       2.013  11.254  18.123  0.00  0.00    +0.000 OA
BRANCH  22  25
ATOM     25  N   UNL     1      -0.451  11.711  18.191  0.00  0.00    +0.000 NA
ATOM     26  H   UNL     1      -0.424  12.305  17.362  0.00  0.00    +0.000 HD
BRANCH  25  27
ATOM     27  C   UNL     1      -1.019  10.381  17.942  0.00  0.00    +0.000 C 
BRANCH  27  28
ATOM     28  C   UNL     1      -2.225  10.492  17.086  0.00  0.00    +0.000 A 
ATOM     29  C   UNL     1      -2.532  10.031  15.823  0.00  0.00    +0.000 A 
ATOM     30  C   UNL     1      -3.780  10.605  15.483  0.00  0.00    +0.000 A 
ATOM     31  C   UNL     1      -4.169  11.350  16.571  0.00  0.00    +0.000 A 
ATOM     32  O   UNL     1      -3.238  11.276  17.557  0.00  0.00    +0.000 OA
ENDBRANCH  27  28
ENDBRANCH  25  27
ENDBRANCH  22  25
ENDBRANCH   5  22
TORSDOF 7
ENDMDL
MODEL 9
REMARK VINA RESULT:      -7.9      3.151      4.319
REMARK  Name = 
REMARK  7 active torsions:
REMARK  status: ('A' for Active; 'I' for Inactive)
REMARK    1  A    between atoms: C_2  and  C_3
REMARK    2  A    between atoms: C_3  and  N_4
REMARK    3  A    between atoms: N_14  and  C_15
REMARK    4  A    between atoms: C_19  and  S_20
REMARK    5  A    between atoms: S_20  and  N_23
REMARK    6  A    between atoms: N_23  and  C_24
REMARK    7  A    between atoms: C_24  and  C_25
REMARK                            x       y       z     vdW  Elec       q    Type
REMARK                         _______ _______ _______ _____ _____    ______ ____
ROOT
ATOM      1  C   UNL     1       0.706  10.018  18.899  0.00  0.00    +0.000 A 
ATOM      2  C   UNL     1       1.061  11.320  19.266  0.00  0.00    +0.000 A 
ATOM      3  C   UNL     1       0.269  12.415  18.910  0.00  0.00    +0.000 A 
ATOM      4  C   UNL     1      -0.891  12.224  18.171  0.00  0.00    +0.000 A 
ATOM      5  C   UNL     1      -1.253  10.932  17.781  0.00  0.00    +0.000 A 
ATOM      6  C   UNL     1      -0.460   9.828  18.140  0.00  0.00    +0.000 A 
ENDROOT
BRANCH   1   9
ATOM      7  O   UNL     1       2.511   8.327  17.264  0.00  0.00    +0.000 OA
ATOM      8  C   UNL     1       2.292   8.127  18.458  0.00  0.00    +0.000 C 
ATOM      9  N   UNL     1       1.457   8.875  19.279  0.00  0.00    +0.000 N 
ATOM     10  H   UNL     1       1.411   8.599  20.256  0.00  0.00    +0.000 HD
BRANCH   8  11
ATOM     11  C   UNL     1       2.943   6.928  19.142  0.00  0.00    +0.000 C 
BRANCH  11  12
ATOM     12  N   UNL     1       3.314   5.896  18.213  0.00  0.00    +0.000 N 
ATOM     13  C   UNL     1       2.552   4.798  17.886  0.00  0.00    +0.000 A 
ATOM     14  O   UNL     1       1.476   4.515  18.394  0.00  0.00    +0.000 OA
ATOM     15  O   UNL     1       3.188   4.010  16.921  0.00  0.00    +0.000 OA
ATOM     16  C   UNL     1       4.405   4.654  16.768  0.00  0.00    +0.000 A 
ATOM     17  C   UNL     1       5.445   4.218  15.976  0.00  0.00    +0.000 A 
ATOM     18  C   UNL     1       6.631   4.957  16.010  0.00  0.00    +0.000 A 
ATOM     19  C   UNL     1       6.739   6.110  16.814  0.00  0.00    +0.000 A 
ATOM     20  C   UNL     1       5.660   6.550  17.589  0.00  0.00    +0.000 A 
ATOM     21  C   UNL     1       4.511   5.792  17.545  0.00  0.00    +0.000 A 
ENDBRANCH  11  12
ENDBRANCH   8  11
ENDBRANCH   1   9
BRANCH   5  22
ATOM     22  S   UNL     1      -2.825  10.710  16.967  0.00  0.00    +0.000 S 
ATOM     23  O   UNL     1      -2.596  10.901  15.552  0.00  0.00    +0.000 OA
ATOM     24  O   UNL     1      -3.410   9.497  17.489  0.00  0.00    +0.000 OA
BRANCH  22  25
ATOM     25  N   UNL     1      -3.781  11.976  17.546  0.00  0.00    +0.000 NA
ATOM     26  H   UNL     1      -3.418  12.897  17.302  0.00  0.00    +0.000 HD
BRANCH  25  27
ATOM     27  C   UNL     1      -5.217  11.823  17.288  0.00  0.00    +0.000 C 
BRANCH  27  28
ATOM     28  C   UNL     1      -5.920  11.419  18.529  0.00  0.00    +0.000 A 
ATOM     29  C   UNL     1      -6.826  10.420  18.820  0.00  0.00    +0.000 A 
ATOM     30  C   UNL     1      -7.262  10.652  20.146  0.00  0.00    +0.000 A 
ATOM     31  C   UNL     1      -6.570  11.754  20.590  0.00  0.00    +0.000 A 
ATOM     32  O   UNL     1      -5.740  12.219  19.620  0.00  0.00    +0.000 OA
ENDBRANCH  27  28
ENDBRANCH  25  27
ENDBRANCH  22  25
ENDBRANCH   5  22
TORSDOF 7
ENDMDL
