MODEL 1
REMARK VINA RESULT:      -8.5      0.000      0.000
REMARK  Name = 
REMARK  3 active torsions:
REMARK  status: ('A' for Active; 'I' for Inactive)
REMARK    1  A    between atoms: C_2  and  C_3
REMARK    2  A    between atoms: C_6  and  C_7
REMARK    3  A    between atoms: C_7  and  N_8
REMARK                            x       y       z     vdW  Elec       q    Type
REMARK                         _______ _______ _______ _____ _____    ______ ____
ROOT
ATOM      1  C   UNL     1       1.778   7.936  19.864  0.00  0.00    +0.000 A 
ATOM      2  C   UNL     1       2.245   8.278  18.593  0.00  0.00    +0.000 A 
ATOM      3  C   UNL     1       2.974   7.364  17.829  0.00  0.00    +0.000 A 
ATOM      4  C   UNL     1       3.123   6.042  18.257  0.00  0.00    +0.000 A 
ATOM      5  C   UNL     1       2.551   5.661  19.479  0.00  0.00    +0.000 A 
ATOM      6  C   UNL     1       1.893   6.603  20.281  0.00  0.00    +0.000 A 
ENDROOT
BRANCH   1   8
ATOM      7  O   UNL     1       1.540   8.900  21.969  0.00  0.00    +0.000 OA
ATOM      8  C   UNL     1       1.159   8.922  20.800  0.00  0.00    +0.000 C 
ATOM      9  N   UNL     1       0.254   9.884  20.323  0.00  0.00    +0.000 N 
ATOM     10  C   UNL     1      -0.217   9.977  18.927  0.00  0.00    +0.000 C 
ATOM     11  C   UNL     1      -1.360  10.971  18.749  0.00  0.00    +0.000 C 
ATOM     12  C   UNL     1      -0.782  12.292  19.149  0.00  0.00    +0.000 A 
ATOM     13  C   UNL     1      -0.739  13.372  18.266  0.00  0.00    +0.000 A 
ATOM     14  C   UNL     1      -0.018  14.507  18.620  0.00  0.00    +0.000 A 
ATOM     15  C   UNL     1       0.601  14.570  19.870  0.00  0.00    +0.000 A 
ATOM     16  F   UNL     1       1.303  15.666  20.186  0.00  0.00    +0.000 F 
ATOM     17  C   UNL     1       0.543  13.498  20.759  0.00  0.00    +0.000 A 
ATOM     18  F   UNL     1       1.168  13.578  21.940  0.00  0.00    +0.000 F 
ATOM     19  C   UNL     1      -0.111  12.328  20.390  0.00  0.00    +0.000 A 
ATOM     20  C   UNL     1      -0.035  11.047  21.197  0.00  0.00    +0.000 C 
ENDBRANCH   1   8
BRANCH   4  21
ATOM     21  C   UNL     1       3.884   5.054  17.404  0.00  0.00    +0.000 C 
BRANCH  21  22
ATOM     22  N   UNL     1       5.295   5.348  17.358  0.00  0.00    +0.000 N 
ATOM     23  C   UNL     1       6.201   4.970  18.305  0.00  0.00    +0.000 C 
ATOM     24  O   UNL     1       5.957   4.331  19.325  0.00  0.00    +0.000 OA
ATOM     25  C   UNL     1       7.576   5.451  17.883  0.00  0.00    +0.000 C 
ATOM     26  N   UNL     1       7.256   6.113  16.650  0.00  0.00    +0.000 N 
ATOM     27  C   UNL     1       5.911   6.044  16.363  0.00  0.00    +0.000 C 
ATOM     28  O   UNL     1       5.403   6.533  15.367  0.00  0.00    +0.000 OA
ATOM     29  H   UNL     1       7.905   6.587  16.036  0.00  0.00    +0.000 HD
ENDBRANCH  21  22
ENDBRANCH   4  21
TORSDOF 3
ENDMDL
MODEL 2
REMARK VINA RESULT:      -8.5      1.526      2.182
REMARK  Name = 
REMARK  3 active torsions:
REMARK  status: ('A' for Active; 'I' for Inactive)
REMARK    1  A    between atoms: C_2  and  C_3
REMARK    2  A    between atoms: C_6  and  C_7
REMARK    3  A    between atoms: C_7  and  N_8
REMARK                            x       y       z     vdW  Elec       q    Type
REMARK                         _______ _______ _______ _____ _____    ______ ____
ROOT
ATOM      1  C   UNL     1       1.714   8.084  19.909  0.00  0.00    +0.000 A 
ATOM      2  C   UNL     1       2.205   8.434  18.650  0.00  0.00    +0.000 A 
ATOM      3  C   UNL     1       2.942   7.523  17.890  0.00  0.00    +0.000 A 
ATOM      4  C   UNL     1       3.075   6.197  18.310  0.00  0.00    +0.000 A 
ATOM      5  C   UNL     1       2.480   5.808  19.518  0.00  0.00    +0.000 A 
ATOM      6  C   UNL     1       1.815   6.747  20.317  0.00  0.00    +0.000 A 
ENDROOT
BRANCH   1   8
ATOM      7  O   UNL     1       1.443   9.028  22.020  0.00  0.00    +0.000 OA
ATOM      8  C   UNL     1       1.085   9.065  20.844  0.00  0.00    +0.000 C 
ATOM      9  N   UNL     1       0.197  10.039  20.360  0.00  0.00    +0.000 N 
ATOM     10  C   UNL     1      -0.245  10.151  18.956  0.00  0.00    +0.000 C 
ATOM     11  C   UNL     1      -1.377  11.157  18.766  0.00  0.00    +0.000 C 
ATOM     12  C   UNL     1      -0.796  12.469  19.191  0.00  0.00    +0.000 A 
ATOM     13  C   UNL     1      -0.726  13.558  18.320  0.00  0.00    +0.000 A 
ATOM     14  C   UNL     1      -0.003  14.683  18.701  0.00  0.00    +0.000 A 
ATOM     15  C   UNL     1       0.592  14.728  19.963  0.00  0.00    +0.000 A 
ATOM     16  F   UNL     1       1.296  15.815  20.305  0.00  0.00    +0.000 F 
ATOM     17  C   UNL     1       0.507  13.647  20.839  0.00  0.00    +0.000 A 
ATOM     18  F   UNL     1       1.110  13.709  22.034  0.00  0.00    +0.000 F 
ATOM     19  C   UNL     1      -0.149  12.486  20.445  0.00  0.00    +0.000 A 
ATOM     20  C   UNL     1      -0.099  11.197  21.240  0.00  0.00    +0.000 C 
ENDBRANCH   1   8
BRANCH   4  21
ATOM     21  C   UNL     1       3.845   5.212  17.460  0.00  0.00    +0.000 C 
BRANCH  21  22
ATOM     22  N   UNL     1       3.985   3.930  18.105  0.00  0.00    +0.000 N 
ATOM     23  C   UNL     1       3.150   2.867  17.917  0.00  0.00    +0.000 C 
ATOM     24  O   UNL     1       2.168   2.842  17.181  0.00  0.00    +0.000 OA
ATOM     25  C   UNL     1       3.646   1.704  18.755  0.00  0.00    +0.000 C 
ATOM     26  N   UNL     1       4.791   2.300  19.381  0.00  0.00    +0.000 N 
ATOM     27  C   UNL     1       4.970   3.608  18.989  0.00  0.00    +0.000 C 
ATOM     28  O   UNL     1       5.878   4.319  19.388  0.00  0.00    +0.000 OA
ATOM     29  H   UNL     1       5.418   1.855  20.038  0.00  0.00    +0.000 HD
ENDBRANCH  21  22
ENDBRANCH   4  21
TORSDOF 3
ENDMDL
MODEL 3
REMARK VINA RESULT:      -8.5      0.716      1.777
REMARK  Name = 
REMARK  3 active torsions:
REMARK  status: ('A' for Active; 'I' for Inactive)
REMARK    1  A    between atoms: C_2  and  C_3
REMARK    2  A    between atoms: C_6  and  C_7
REMARK    3  A    between atoms: C_7  and  N_8
REMARK                            x       y       z     vdW  Elec       q    Type
REMARK                         _______ _______ _______ _____ _____    ______ ____
ROOT
ATOM      1  C   UNL     1       1.666   7.805  20.264  0.00  0.00    +0.000 A 
ATOM      2  C   UNL     1       1.766   6.466  20.648  0.00  0.00    +0.000 A 
ATOM      3  C   UNL     1       2.232   5.499  19.757  0.00  0.00    +0.000 A 
ATOM      4  C   UNL     1       2.747   5.872  18.512  0.00  0.00    +0.000 A 
ATOM      5  C   UNL     1       2.761   7.231  18.168  0.00  0.00    +0.000 A 
ATOM      6  C   UNL     1       2.214   8.189  19.033  0.00  0.00    +0.000 A 
ENDROOT
BRANCH   1   8
ATOM      7  O   UNL     1       1.330   8.905  22.287  0.00  0.00    +0.000 OA
ATOM      8  C   UNL     1       1.005   8.850  21.102  0.00  0.00    +0.000 C 
ATOM      9  N   UNL     1       0.126   9.778  20.521  0.00  0.00    +0.000 N 
ATOM     10  C   UNL     1      -0.277   9.779  19.100  0.00  0.00    +0.000 C 
ATOM     11  C   UNL     1      -1.408  10.759  18.803  0.00  0.00    +0.000 C 
ATOM     12  C   UNL     1      -0.846  12.104  19.142  0.00  0.00    +0.000 A 
ATOM     13  C   UNL     1      -0.758  13.124  18.193  0.00  0.00    +0.000 A 
ATOM     14  C   UNL     1      -0.052  14.280  18.507  0.00  0.00    +0.000 A 
ATOM     15  C   UNL     1       0.506  14.425  19.778  0.00  0.00    +0.000 A 
ATOM     16  F   UNL     1       1.195  15.540  20.055  0.00  0.00    +0.000 F 
ATOM     17  C   UNL     1       0.403  13.413  20.732  0.00  0.00    +0.000 A 
ATOM     18  F   UNL     1       0.971  13.571  21.934  0.00  0.00    +0.000 F 
ATOM     19  C   UNL     1      -0.236  12.222  20.409  0.00  0.00    +0.000 A 
ATOM     20  C   UNL     1      -0.202  10.997  21.302  0.00  0.00    +0.000 C 
ENDBRANCH   1   8
BRANCH   4  21
ATOM     21  C   UNL     1       3.281   4.817  17.571  0.00  0.00    +0.000 C 
BRANCH  21  22
ATOM     22  N   UNL     1       4.722   4.763  17.575  0.00  0.00    +0.000 N 
ATOM     23  C   UNL     1       5.528   5.366  16.654  0.00  0.00    +0.000 C 
ATOM     24  O   UNL     1       5.154   6.037  15.696  0.00  0.00    +0.000 OA
ATOM     25  C   UNL     1       6.975   5.091  17.018  0.00  0.00    +0.000 C 
ATOM     26  N   UNL     1       6.801   4.285  18.193  0.00  0.00    +0.000 N 
ATOM     27  C   UNL     1       5.471   4.102  18.501  0.00  0.00    +0.000 C 
ATOM     28  O   UNL     1       5.078   3.454  19.456  0.00  0.00    +0.000 OA
ATOM     29  H   UNL     1       7.535   3.878  18.758  0.00  0.00    +0.000 HD
ENDBRANCH  21  22
ENDBRANCH   4  21
TORSDOF 3
ENDMDL
MODEL 4
REMARK VINA RESULT:      -8.3      0.557      1.443
REMARK  Name = 
REMARK  3 active torsions:
REMARK  status: ('A' for Active; 'I' for Inactive)
REMARK    1  A    between atoms: C_2  and  C_3
REMARK    2  A    between atoms: C_6  and  C_7
REMARK    3  A    between atoms: C_7  and  N_8
REMARK                            x       y       z     vdW  Elec       q    Type
REMARK                         _______ _______ _______ _____ _____    ______ ____
ROOT
ATOM      1  C   UNL     1       1.721   8.028  19.954  0.00  0.00    +0.000 A 
ATOM      2  C   UNL     1       2.167   8.347  18.669  0.00  0.00    +0.000 A 
ATOM      3  C   UNL     1       2.853   7.409  17.896  0.00  0.00    +0.000 A 
ATOM      4  C   UNL     1       2.977   6.087  18.333  0.00  0.00    +0.000 A 
ATOM      5  C   UNL     1       2.424   5.731  19.570  0.00  0.00    +0.000 A 
ATOM      6  C   UNL     1       1.811   6.696  20.380  0.00  0.00    +0.000 A 
ENDROOT
BRANCH   1   8
ATOM      7  O   UNL     1       1.569   9.024  22.052  0.00  0.00    +0.000 OA
ATOM      8  C   UNL     1       1.151   9.037  20.896  0.00  0.00    +0.000 C 
ATOM      9  N   UNL     1       0.248  10.010  20.435  0.00  0.00    +0.000 N 
ATOM     10  C   UNL     1      -0.266  10.093  19.054  0.00  0.00    +0.000 C 
ATOM     11  C   UNL     1      -1.396  11.107  18.900  0.00  0.00    +0.000 C 
ATOM     12  C   UNL     1      -0.781  12.422  19.262  0.00  0.00    +0.000 A 
ATOM     13  C   UNL     1      -0.747  13.490  18.363  0.00  0.00    +0.000 A 
ATOM     14  C   UNL     1       0.006  14.615  18.679  0.00  0.00    +0.000 A 
ATOM     15  C   UNL     1       0.666  14.683  19.907  0.00  0.00    +0.000 A 
ATOM     16  F   UNL     1       1.397  15.770  20.186  0.00  0.00    +0.000 F 
ATOM     17  C   UNL     1       0.617  13.624  20.812  0.00  0.00    +0.000 A 
ATOM     18  F   UNL     1       1.281  13.707  21.972  0.00  0.00    +0.000 F 
ATOM     19  C   UNL     1      -0.070  12.462  20.481  0.00  0.00    +0.000 A 
ATOM     20  C   UNL     1       0.009  11.190  21.303  0.00  0.00    +0.000 C 
ENDBRANCH   1   8
BRANCH   4  21
ATOM     21  C   UNL     1       3.691   5.073  17.470  0.00  0.00    +0.000 C 
BRANCH  21  22
ATOM     22  N   UNL     1       5.121   5.108  17.658  0.00  0.00    +0.000 N 
ATOM     23  C   UNL     1       5.987   5.851  16.911  0.00  0.00    +0.000 C 
ATOM     24  O   UNL     1       5.687   6.592  15.979  0.00  0.00    +0.000 OA
ATOM     25  C   UNL     1       7.394   5.630  17.435  0.00  0.00    +0.000 C 
ATOM     26  N   UNL     1       7.137   4.700  18.496  0.00  0.00    +0.000 N 
ATOM     27  C   UNL     1       5.796   4.404  18.608  0.00  0.00    +0.000 C 
ATOM     28  O   UNL     1       5.336   3.638  19.439  0.00  0.00    +0.000 OA
ATOM     29  H   UNL     1       7.823   4.284  19.112  0.00  0.00    +0.000 HD
ENDBRANCH  21  22
ENDBRANCH   4  21
TORSDOF 3
ENDMDL
MODEL 5
REMARK VINA RESULT:      -8.2      2.884      4.002
REMARK  Name = 
REMARK  3 active torsions:
REMARK  status: ('A' for Active; 'I' for Inactive)
REMARK    1  A    between atoms: C_2  and  C_3
REMARK    2  A    between atoms: C_6  and  C_7
REMARK    3  A    between atoms: C_7  and  N_8
REMARK                            x       y       z     vdW  Elec       q    Type
REMARK                         _______ _______ _______ _____ _____    ______ ____
ROOT
ATOM      1  C   UNL     1       0.920   9.261  18.910  0.00  0.00    +0.000 A 
ATOM      2  C   UNL     1       1.050   8.658  20.163  0.00  0.00    +0.000 A 
ATOM      3  C   UNL     1       1.823   7.507  20.326  0.00  0.00    +0.000 A 
ATOM      4  C   UNL     1       2.601   7.021  19.272  0.00  0.00    +0.000 A 
ATOM      5  C   UNL     1       2.568   7.695  18.043  0.00  0.00    +0.000 A 
ATOM      6  C   UNL     1       1.725   8.800  17.860  0.00  0.00    +0.000 A 
ENDROOT
BRANCH   1   8
ATOM      7  O   UNL     1      -0.789  10.244  17.672  0.00  0.00    +0.000 OA
ATOM      8  C   UNL     1      -0.035  10.377  18.635  0.00  0.00    +0.000 C 
ATOM      9  N   UNL     1      -0.116  11.475  19.506  0.00  0.00    +0.000 N 
ATOM     10  C   UNL     1       0.741  11.673  20.692  0.00  0.00    +0.000 C 
ATOM     11  C   UNL     1       0.581  13.056  21.317  0.00  0.00    +0.000 C 
ATOM     12  C   UNL     1      -0.851  13.117  21.745  0.00  0.00    +0.000 A 
ATOM     13  C   UNL     1      -1.211  13.328  23.078  0.00  0.00    +0.000 A 
ATOM     14  C   UNL     1      -2.542  13.180  23.450  0.00  0.00    +0.000 A 
ATOM     15  C   UNL     1      -3.502  12.881  22.481  0.00  0.00    +0.000 A 
ATOM     16  F   UNL     1      -4.777  12.729  22.862  0.00  0.00    +0.000 F 
ATOM     17  C   UNL     1      -3.144  12.688  21.147  0.00  0.00    +0.000 A 
ATOM     18  F   UNL     1      -4.083  12.376  20.245  0.00  0.00    +0.000 F 
ATOM     19  C   UNL     1      -1.808  12.759  20.772  0.00  0.00    +0.000 A 
ATOM     20  C   UNL     1      -1.311  12.349  19.400  0.00  0.00    +0.000 C 
ENDBRANCH   1   8
BRANCH   4  21
ATOM     21  C   UNL     1       3.460   5.795  19.472  0.00  0.00    +0.000 C 
BRANCH  21  22
ATOM     22  N   UNL     1       2.865   4.613  18.900  0.00  0.00    +0.000 N 
ATOM     23  C   UNL     1       1.882   3.871  19.488  0.00  0.00    +0.000 C 
ATOM     24  O   UNL     1       1.364   4.094  20.579  0.00  0.00    +0.000 OA
ATOM     25  C   UNL     1       1.515   2.728  18.562  0.00  0.00    +0.000 C 
ATOM     26  N   UNL     1       2.418   2.970  17.473  0.00  0.00    +0.000 N 
ATOM     27  C   UNL     1       3.204   4.079  17.693  0.00  0.00    +0.000 C 
ATOM     28  O   UNL     1       4.046   4.482  16.907  0.00  0.00    +0.000 OA
ATOM     29  H   UNL     1       2.504   2.420  16.629  0.00  0.00    +0.000 HD
ENDBRANCH  21  22
ENDBRANCH   4  21
TORSDOF 3
ENDMDL
MODEL 6
REMARK VINA RESULT:      -8.2      4.300      8.927
REMARK  Name = 
REMARK  3 active torsions:
REMARK  status: ('A' for Active; 'I' for Inactive)
REMARK    1  A    between atoms: C_2  and  C_3
REMARK    2  A    between atoms: C_6  and  C_7
REMARK    3  A    between atoms: C_7  and  N_8
REMARK                            x       y       z     vdW  Elec       q    Type
REMARK                         _______ _______ _______ _____ _____    ______ ____
ROOT
ATOM      1  C   UNL     1       0.744   9.177  19.883  0.00  0.00    +0.000 A 
ATOM      2  C   UNL     1       0.770   9.342  18.496  0.00  0.00    +0.000 A 
ATOM      3  C   UNL     1      -0.050  10.285  17.873  0.00  0.00    +0.000 A 
ATOM      4  C   UNL     1      -0.802  11.184  18.635  0.00  0.00    +0.000 A 
ATOM      5  C   UNL     1      -0.737  11.101  20.032  0.00  0.00    +0.000 A 
ATOM      6  C   UNL     1       0.021  10.098  20.652  0.00  0.00    +0.000 A 
ENDROOT
BRANCH   1   8
ATOM      7  O   UNL     1       1.208   7.916  21.784  0.00  0.00    +0.000 OA
ATOM      8  C   UNL     1       1.453   8.067  20.587  0.00  0.00    +0.000 C 
ATOM      9  N   UNL     1       2.284   7.188  19.874  0.00  0.00    +0.000 N 
ATOM     10  C   UNL     1       2.591   7.302  18.435  0.00  0.00    +0.000 C 
ATOM     11  C   UNL     1       3.692   6.347  17.983  0.00  0.00    +0.000 C 
ATOM     12  C   UNL     1       3.145   4.980  18.250  0.00  0.00    +0.000 A 
ATOM     13  C   UNL     1       2.986   4.041  17.229  0.00  0.00    +0.000 A 
ATOM     14  C   UNL     1       2.295   2.864  17.496  0.00  0.00    +0.000 A 
ATOM     15  C   UNL     1       1.822   2.617  18.786  0.00  0.00    +0.000 A 
ATOM     16  F   UNL     1       1.146   1.484  19.018  0.00  0.00    +0.000 F 
ATOM     17  C   UNL     1       1.997   3.547  19.809  0.00  0.00    +0.000 A 
ATOM     18  F   UNL     1       1.510   3.294  21.030  0.00  0.00    +0.000 F 
ATOM     19  C   UNL     1       2.620   4.761  19.542  0.00  0.00    +0.000 A 
ATOM     20  C   UNL     1       2.655   5.909  20.530  0.00  0.00    +0.000 C 
ENDBRANCH   1   8
BRANCH   4  21
ATOM     21  C   UNL     1      -1.657  12.222  17.947  0.00  0.00    +0.000 C 
BRANCH  21  22
ATOM     22  N   UNL     1      -2.977  11.727  17.644  0.00  0.00    +0.000 N 
ATOM     23  C   UNL     1      -4.042  11.773  18.495  0.00  0.00    +0.000 C 
ATOM     24  O   UNL     1      -4.039  12.237  19.632  0.00  0.00    +0.000 OA
ATOM     25  C   UNL     1      -5.248  11.172  17.798  0.00  0.00    +0.000 C 
ATOM     26  N   UNL     1      -4.671  10.814  16.534  0.00  0.00    +0.000 N 
ATOM     27  C   UNL     1      -3.335  11.145  16.465  0.00  0.00    +0.000 C 
ATOM     28  O   UNL     1      -2.634  10.939  15.489  0.00  0.00    +0.000 OA
ATOM     29  H   UNL     1      -5.146  10.371  15.759  0.00  0.00    +0.000 HD
ENDBRANCH  21  22
ENDBRANCH   4  21
TORSDOF 3
ENDMDL
MODEL 7
REMARK VINA RESULT:      -8.2      3.092      4.374
REMARK  Name = 
REMARK  3 active torsions:
REMARK  status: ('A' for Active; 'I' for Inactive)
REMARK    1  A    between atoms: C_2  and  C_3
REMARK    2  A    between atoms: C_6  and  C_7
REMARK    3  A    between atoms: C_7  and  N_8
REMARK                            x       y       z     vdW  Elec       q    Type
REMARK                         _______ _______ _______ _____ _____    ______ ____
ROOT
ATOM      1  C   UNL     1       0.556   9.622  19.155  0.00  0.00    +0.000 A 
ATOM      2  C   UNL     1       0.702   8.988  20.391  0.00  0.00    +0.000 A 
ATOM      3  C   UNL     1       1.511   7.859  20.523  0.00  0.00    +0.000 A 
ATOM      4  C   UNL     1       2.307   7.428  19.458  0.00  0.00    +0.000 A 
ATOM      5  C   UNL     1       2.254   8.135  18.249  0.00  0.00    +0.000 A 
ATOM      6  C   UNL     1       1.377   9.217  18.094  0.00  0.00    +0.000 A 
ENDROOT
BRANCH   1   8
ATOM      7  O   UNL     1      -1.170  10.593  17.930  0.00  0.00    +0.000 OA
ATOM      8  C   UNL     1      -0.434  10.714  18.908  0.00  0.00    +0.000 C 
ATOM      9  N   UNL     1      -0.564  11.775  19.819  0.00  0.00    +0.000 N 
ATOM     10  C   UNL     1       0.270  11.957  21.023  0.00  0.00    +0.000 C 
ATOM     11  C   UNL     1       0.054  13.308  21.699  0.00  0.00    +0.000 C 
ATOM     12  C   UNL     1      -1.385  13.304  22.108  0.00  0.00    +0.000 A 
ATOM     13  C   UNL     1      -1.770  13.450  23.442  0.00  0.00    +0.000 A 
ATOM     14  C   UNL     1      -3.100  13.243  23.789  0.00  0.00    +0.000 A 
ATOM     15  C   UNL     1      -4.036  12.949  22.796  0.00  0.00    +0.000 A 
ATOM     16  F   UNL     1      -5.309  12.738  23.153  0.00  0.00    +0.000 F 
ATOM     17  C   UNL     1      -3.654  12.819  21.461  0.00  0.00    +0.000 A 
ATOM     18  F   UNL     1      -4.570  12.511  20.534  0.00  0.00    +0.000 F 
ATOM     19  C   UNL     1      -2.317  12.950  21.108  0.00  0.00    +0.000 A 
ATOM     20  C   UNL     1      -1.787  12.611  19.729  0.00  0.00    +0.000 C 
ENDBRANCH   1   8
BRANCH   4  21
ATOM     21  C   UNL     1       3.204   6.224  19.626  0.00  0.00    +0.000 C 
BRANCH  21  22
ATOM     22  N   UNL     1       2.708   5.071  18.917  0.00  0.00    +0.000 N 
ATOM     23  C   UNL     1       3.186   4.626  17.719  0.00  0.00    +0.000 C 
ATOM     24  O   UNL     1       4.098   5.132  17.073  0.00  0.00    +0.000 OA
ATOM     25  C   UNL     1       2.416   3.381  17.320  0.00  0.00    +0.000 C 
ATOM     26  N   UNL     1       1.508   3.267  18.425  0.00  0.00    +0.000 N 
ATOM     27  C   UNL     1       1.693   4.271  19.350  0.00  0.00    +0.000 C 
ATOM     28  O   UNL     1       1.039   4.381  20.374  0.00  0.00    +0.000 OA
ATOM     29  H   UNL     1       0.800   2.556  18.552  0.00  0.00    +0.000 HD
ENDBRANCH  21  22
ENDBRANCH   4  21
TORSDOF 3
ENDMDL
MODEL 8
REMARK VINA RESULT:      -8.2      2.751      4.077
REMARK  Name = 
REMARK  3 active torsions:
REMARK  status: ('A' for Active; 'I' for Inactive)
REMARK    1  A    between atoms: C_2  and  C_3
REMARK    2  A    between atoms: C_6  and  C_7
REMARK    3  A    between atoms: C_7  and  N_8
REMARK                            x       y       z     vdW  Elec       q    Type
REMARK                         _______ _______ _______ _____ _____    ______ ____
ROOT
ATOM      1  C   UNL     1       0.987   9.445  18.998  0.00  0.00    +0.000 A 
ATOM      2  C   UNL     1       1.185   8.837  20.240  0.00  0.00    +0.000 A 
ATOM      3  C   UNL     1       1.815   7.595  20.336  0.00  0.00    +0.000 A 
ATOM      4  C   UNL     1       2.394   7.005  19.208  0.00  0.00    +0.000 A 
ATOM      5  C   UNL     1       2.304   7.671  17.978  0.00  0.00    +0.000 A 
ATOM      6  C   UNL     1       1.596   8.876  17.872  0.00  0.00    +0.000 A 
ENDROOT
BRANCH   1   8
ATOM      7  O   UNL     1      -1.060  10.549  18.907  0.00  0.00    +0.000 OA
ATOM      8  C   UNL     1       0.160  10.675  18.812  0.00  0.00    +0.000 C 
ATOM      9  N   UNL     1       0.774  11.925  18.634  0.00  0.00    +0.000 N 
ATOM     10  C   UNL     1       2.232  12.141  18.543  0.00  0.00    +0.000 C 
ATOM     11  C   UNL     1       2.598  13.562  18.127  0.00  0.00    +0.000 C 
ATOM     12  C   UNL     1       2.052  14.431  19.215  0.00  0.00    +0.000 A 
ATOM     13  C   UNL     1       2.876  15.271  19.968  0.00  0.00    +0.000 A 
ATOM     14  C   UNL     1       2.352  15.904  21.089  0.00  0.00    +0.000 A 
ATOM     15  C   UNL     1       1.004  15.736  21.411  0.00  0.00    +0.000 A 
ATOM     16  F   UNL     1       0.523  16.344  22.504  0.00  0.00    +0.000 F 
ATOM     17  C   UNL     1       0.178  14.912  20.649  0.00  0.00    +0.000 A 
ATOM     18  F   UNL     1      -1.105  14.750  20.998  0.00  0.00    +0.000 F 
ATOM     19  C   UNL     1       0.703  14.213  19.569  0.00  0.00    +0.000 A 
ATOM     20  C   UNL     1      -0.063  13.135  18.828  0.00  0.00    +0.000 C 
ENDBRANCH   1   8
BRANCH   4  21
ATOM     21  C   UNL     1       3.104   5.678  19.333  0.00  0.00    +0.000 C 
BRANCH  21  22
ATOM     22  N   UNL     1       2.183   4.583  19.515  0.00  0.00    +0.000 N 
ATOM     23  C   UNL     1       1.490   3.972  18.512  0.00  0.00    +0.000 C 
ATOM     24  O   UNL     1       1.543   4.258  17.319  0.00  0.00    +0.000 OA
ATOM     25  C   UNL     1       0.649   2.859  19.108  0.00  0.00    +0.000 C 
ATOM     26  N   UNL     1       0.984   2.991  20.497  0.00  0.00    +0.000 N 
ATOM     27  C   UNL     1       1.884   4.012  20.715  0.00  0.00    +0.000 C 
ATOM     28  O   UNL     1       2.317   4.313  21.815  0.00  0.00    +0.000 OA
ATOM     29  H   UNL     1       0.628   2.430  21.259  0.00  0.00    +0.000 HD
ENDBRANCH  21  22
ENDBRANCH   4  21
TORSDOF 3
ENDMDL
MODEL 9
REMARK VINA RESULT:      -8.1      3.094      3.988
REMARK  Name = 
REMARK  3 active torsions:
REMARK  status: ('A' for Active; 'I' for Inactive)
REMARK    1  A    between atoms: C_2  and  C_3
REMARK    2  A    between atoms: C_6  and  C_7
REMARK    3  A    between atoms: C_7  and  N_8
REMARK                            x       y       z     vdW  Elec       q    Type
REMARK                         _______ _______ _______ _____ _____    ______ ____
ROOT
ATOM      1  C   UNL     1       1.885   7.942  19.272  0.00  0.00    +0.000 A 
ATOM      2  C   UNL     1       1.456   7.588  20.553  0.00  0.00    +0.000 A 
ATOM      3  C   UNL     1       1.624   6.287  21.030  0.00  0.00    +0.000 A 
ATOM      4  C   UNL     1       2.357   5.352  20.293  0.00  0.00    +0.000 A 
ATOM      5  C   UNL     1       2.895   5.739  19.058  0.00  0.00    +0.000 A 
ATOM      6  C   UNL     1       2.651   7.021  18.546  0.00  0.00    +0.000 A 
ENDROOT
BRANCH   1   8
ATOM      7  O   UNL     1       1.699   9.337  17.418  0.00  0.00    +0.000 OA
ATOM      8  C   UNL     1       1.569   9.258  18.638  0.00  0.00    +0.000 C 
ATOM      9  N   UNL     1       1.056  10.313  19.409  0.00  0.00    +0.000 N 
ATOM     10  C   UNL     1       0.850  10.266  20.870  0.00  0.00    +0.000 C 
ATOM     11  C   UNL     1       0.494  11.625  21.466  0.00  0.00    +0.000 C 
ATOM     12  C   UNL     1      -0.798  12.001  20.812  0.00  0.00    +0.000 A 
ATOM     13  C   UNL     1      -1.955  12.242  21.555  0.00  0.00    +0.000 A 
ATOM     14  C   UNL     1      -3.166  12.394  20.891  0.00  0.00    +0.000 A 
ATOM     15  C   UNL     1      -3.198  12.360  19.496  0.00  0.00    +0.000 A 
ATOM     16  F   UNL     1      -4.378  12.493  18.875  0.00  0.00    +0.000 F 
ATOM     17  C   UNL     1      -2.040  12.136  18.753  0.00  0.00    +0.000 A 
ATOM     18  F   UNL     1      -2.106  12.082  17.416  0.00  0.00    +0.000 F 
ATOM     19  C   UNL     1      -0.834  11.909  19.404  0.00  0.00    +0.000 A 
ATOM     20  C   UNL     1       0.419  11.444  18.688  0.00  0.00    +0.000 C 
ENDBRANCH   1   8
BRANCH   4  21
ATOM     21  C   UNL     1       2.562   3.957  20.837  0.00  0.00    +0.000 C 
BRANCH  21  22
ATOM     22  N   UNL     1       2.724   2.982  19.787  0.00  0.00    +0.000 N 
ATOM     23  C   UNL     1       3.920   2.468  19.379  0.00  0.00    +0.000 C 
ATOM     24  O   UNL     1       5.023   2.753  19.836  0.00  0.00    +0.000 OA
ATOM     25  C   UNL     1       3.665   1.462  18.272  0.00  0.00    +0.000 C 
ATOM     26  N   UNL     1       2.236   1.543  18.167  0.00  0.00    +0.000 N 
ATOM     27  C   UNL     1       1.704   2.444  19.063  0.00  0.00    +0.000 C 
ATOM     28  O   UNL     1       0.511   2.682  19.160  0.00  0.00    +0.000 OA
ATOM     29  H   UNL     1       1.649   1.024  17.528  0.00  0.00    +0.000 HD
ENDBRANCH  21  22
ENDBRANCH   4  21
TORSDOF 3
ENDMDL
