MODEL 1
REMARK VINA RESULT:      -8.8      0.000      0.000
REMARK  Name = 
REMARK  5 active torsions:
REMARK  status: ('A' for Active; 'I' for Inactive)
REMARK    1  A    between atoms: C_8  and  N_9
REMARK    2  A    between atoms: N_9  and  C_10
REMARK    3  A    between atoms: C_10  and  C_11
REMARK    4  A    between atoms: C_10  and  C_17
REMARK    5  A    between atoms: N_13  and  C_14
REMARK                            x       y       z     vdW  Elec       q    Type
REMARK                         _______ _______ _______ _____ _____    ______ ____
ROOT
ATOM      1  C   UNL     1       3.014   4.840  17.747  0.00  0.00    +0.000 C 
ENDROOT
BRANCH   1   2
ATOM      2  C   UNL     1       2.431   4.101  18.953  0.00  0.00    +0.000 A 
ATOM      3  C   UNL     1       1.115   3.600  18.968  0.00  0.00    +0.000 A 
ATOM      4  C   UNL     1       0.598   2.981  20.108  0.00  0.00    +0.000 A 
ATOM      5  C   UNL     1       1.397   2.845  21.235  0.00  0.00    +0.000 A 
ATOM      6  F   UNL     1       0.891   2.275  22.337  0.00  0.00    +0.000 F 
ATOM      7  C   UNL     1       2.709   3.296  21.239  0.00  0.00    +0.000 A 
ATOM      8  C   UNL     1       3.231   3.911  20.099  0.00  0.00    +0.000 A 
ENDBRANCH   1   2
BRANCH   1   9
ATOM      9  C   UNL     1       4.076   3.962  17.018  0.00  0.00    +0.000 C 
ATOM     10  O   UNL     1       4.079   2.735  17.095  0.00  0.00    +0.000 OA
ATOM     11  N   UNL     1       5.000   4.681  16.267  0.00  0.00    +0.000 N 
ATOM     12  H   UNL     1       5.083   5.675  16.452  0.00  0.00    +0.000 HD
BRANCH  11  13
ATOM     13  C   UNL     1       6.052   4.035  15.547  0.00  0.00    +0.000 C 
ATOM     14  C   UNL     1       7.010   4.820  14.692  0.00  0.00    +0.000 C 
ATOM     15  C   UNL     1       5.979   3.940  14.047  0.00  0.00    +0.000 C 
ENDBRANCH  11  13
ENDBRANCH   1   9
BRANCH   1  16
ATOM     16  N   UNL     1       3.649   6.119  18.162  0.00  0.00    +0.000 N 
ATOM     17  H   UNL     1       4.338   6.414  17.473  0.00  0.00    +0.000 HD
BRANCH  16  25
ATOM     18  O   UNL     1      -0.717   9.316  22.766  0.00  0.00    +0.000 OA
ATOM     19  C   UNL     1      -0.183   9.340  21.660  0.00  0.00    +0.000 C 
ATOM     20  C   UNL     1      -0.763  10.122  20.500  0.00  0.00    +0.000 C 
ATOM     21  C   UNL     1       0.320  10.579  19.536  0.00  0.00    +0.000 C 
ATOM     22  C   UNL     1       1.194   9.419  19.156  0.00  0.00    +0.000 A 
ATOM     23  C   UNL     1       1.766   9.305  17.891  0.00  0.00    +0.000 A 
ATOM     24  C   UNL     1       2.574   8.202  17.589  0.00  0.00    +0.000 A 
ATOM     25  C   UNL     1       2.839   7.202  18.539  0.00  0.00    +0.000 A 
ATOM     26  C   UNL     1       2.375   7.407  19.843  0.00  0.00    +0.000 A 
ATOM     27  C   UNL     1       1.506   8.465  20.126  0.00  0.00    +0.000 A 
ATOM     28  N   UNL     1       0.905   8.550  21.387  0.00  0.00    +0.000 N 
ATOM     29  H   UNL     1       1.188   7.927  22.131  0.00  0.00    +0.000 HD
ENDBRANCH  16  25
ENDBRANCH   1  16
TORSDOF 5
ENDMDL
MODEL 2
REMARK VINA RESULT:      -8.7      2.520      4.825
REMARK  Name = 
REMARK  5 active torsions:
REMARK  status: ('A' for Active; 'I' for Inactive)
REMARK    1  A    between atoms: C_8  and  N_9
REMARK    2  A    between atoms: N_9  and  C_10
REMARK    3  A    between atoms: C_10  and  C_11
REMARK    4  A    between atoms: C_10  and  C_17
REMARK    5  A    between atoms: N_13  and  C_14
REMARK                            x       y       z     vdW  Elec       q    Type
REMARK                         _______ _______ _______ _____ _____    ______ ____
ROOT
ATOM      1  C   UNL     1       4.198   5.532  18.450  0.00  0.00    +0.000 C 
ENDROOT
BRANCH   1   2
ATOM      2  C   UNL     1       5.132   5.331  17.254  0.00  0.00    +0.000 A 
ATOM      3  C   UNL     1       6.390   5.956  17.165  0.00  0.00    +0.000 A 
ATOM      4  C   UNL     1       7.189   5.796  16.032  0.00  0.00    +0.000 A 
ATOM      5  C   UNL     1       6.745   4.997  14.987  0.00  0.00    +0.000 A 
ATOM      6  F   UNL     1       7.501   4.864  13.890  0.00  0.00    +0.000 F 
ATOM      7  C   UNL     1       5.526   4.338  15.062  0.00  0.00    +0.000 A 
ATOM      8  C   UNL     1       4.726   4.493  16.196  0.00  0.00    +0.000 A 
ENDBRANCH   1   2
BRANCH   1   9
ATOM      9  C   UNL     1       4.014   4.201  19.240  0.00  0.00    +0.000 C 
ATOM     10  O   UNL     1       4.967   3.501  19.580  0.00  0.00    +0.000 OA
ATOM     11  N   UNL     1       2.693   3.886  19.538  0.00  0.00    +0.000 N 
ATOM     12  H   UNL     1       1.967   4.369  19.018  0.00  0.00    +0.000 HD
BRANCH  11  13
ATOM     13  C   UNL     1       2.342   2.693  20.243  0.00  0.00    +0.000 C 
ATOM     14  C   UNL     1       1.166   2.657  21.181  0.00  0.00    +0.000 C 
ATOM     15  C   UNL     1       2.562   2.615  21.729  0.00  0.00    +0.000 C 
ENDBRANCH  11  13
ENDBRANCH   1   9
BRANCH   1  16
ATOM     16  N   UNL     1       2.865   6.019  18.010  0.00  0.00    +0.000 N 
ATOM     17  H   UNL     1       2.184   5.262  18.032  0.00  0.00    +0.000 HD
BRANCH  16  25
ATOM     18  O   UNL     1       0.334   9.564  23.622  0.00  0.00    +0.000 OA
ATOM     19  C   UNL     1       0.547   9.560  22.413  0.00  0.00    +0.000 C 
ATOM     20  C   UNL     1      -0.226  10.440  21.454  0.00  0.00    +0.000 C 
ATOM     21  C   UNL     1       0.603  10.796  20.230  0.00  0.00    +0.000 C 
ATOM     22  C   UNL     1       1.193   9.553  19.628  0.00  0.00    +0.000 A 
ATOM     23  C   UNL     1       1.383   9.413  18.255  0.00  0.00    +0.000 A 
ATOM     24  C   UNL     1       1.937   8.232  17.747  0.00  0.00    +0.000 A 
ATOM     25  C   UNL     1       2.326   7.178  18.591  0.00  0.00    +0.000 A 
ATOM     26  C   UNL     1       2.262   7.396  19.971  0.00  0.00    +0.000 A 
ATOM     27  C   UNL     1       1.638   8.540  20.479  0.00  0.00    +0.000 A 
ATOM     28  N   UNL     1       1.416   8.656  21.856  0.00  0.00    +0.000 N 
ATOM     29  H   UNL     1       1.811   7.980  22.495  0.00  0.00    +0.000 HD
ENDBRANCH  16  25
ENDBRANCH   1  16
TORSDOF 5
ENDMDL
MODEL 3
REMARK VINA RESULT:      -8.7      3.928      5.744
REMARK  Name = 
REMARK  5 active torsions:
REMARK  status: ('A' for Active; 'I' for Inactive)
REMARK    1  A    between atoms: C_8  and  N_9
REMARK    2  A    between atoms: N_9  and  C_10
REMARK    3  A    between atoms: C_10  and  C_11
REMARK    4  A    between atoms: C_10  and  C_17
REMARK    5  A    between atoms: N_13  and  C_14
REMARK                            x       y       z     vdW  Elec       q    Type
REMARK                         _______ _______ _______ _____ _____    ______ ____
ROOT
ATOM      1  C   UNL     1       6.259   4.427  16.117  0.00  0.00    +0.000 C 
ENDROOT
BRANCH   1   2
ATOM      2  C   UNL     1       6.895   5.546  16.944  0.00  0.00    +0.000 A 
ATOM      3  C   UNL     1       6.812   6.902  16.571  0.00  0.00    +0.000 A 
ATOM      4  C   UNL     1       7.454   7.889  17.319  0.00  0.00    +0.000 A 
ATOM      5  C   UNL     1       8.170   7.533  18.454  0.00  0.00    +0.000 A 
ATOM      6  F   UNL     1       8.807   8.479  19.156  0.00  0.00    +0.000 F 
ATOM      7  C   UNL     1       8.240   6.210  18.867  0.00  0.00    +0.000 A 
ATOM      8  C   UNL     1       7.595   5.220  18.123  0.00  0.00    +0.000 A 
ENDBRANCH   1   2
BRANCH   1   9
ATOM      9  C   UNL     1       6.771   4.463  14.645  0.00  0.00    +0.000 C 
ATOM     10  O   UNL     1       7.737   5.144  14.302  0.00  0.00    +0.000 OA
ATOM     11  N   UNL     1       6.058   3.655  13.767  0.00  0.00    +0.000 N 
ATOM     12  H   UNL     1       5.144   3.329  14.066  0.00  0.00    +0.000 HD
BRANCH  11  13
ATOM     13  C   UNL     1       6.383   3.581  12.377  0.00  0.00    +0.000 C 
ATOM     14  C   UNL     1       5.449   2.937  11.389  0.00  0.00    +0.000 C 
ATOM     15  C   UNL     1       6.730   2.252  11.763  0.00  0.00    +0.000 C 
ENDBRANCH  11  13
ENDBRANCH   1   9
BRANCH   1  16
ATOM     16  N   UNL     1       4.777   4.542  16.114  0.00  0.00    +0.000 N 
ATOM     17  H   UNL     1       4.364   3.820  15.526  0.00  0.00    +0.000 HD
BRANCH  16  25
ATOM     18  O   UNL     1       2.594   1.693  22.246  0.00  0.00    +0.000 OA
ATOM     19  C   UNL     1       2.558   2.654  21.481  0.00  0.00    +0.000 C 
ATOM     20  C   UNL     1       1.413   3.645  21.485  0.00  0.00    +0.000 C 
ATOM     21  C   UNL     1       1.866   5.023  21.029  0.00  0.00    +0.000 C 
ATOM     22  C   UNL     1       2.620   4.917  19.735  0.00  0.00    +0.000 A 
ATOM     23  C   UNL     1       2.563   5.910  18.760  0.00  0.00    +0.000 A 
ATOM     24  C   UNL     1       3.286   5.760  17.570  0.00  0.00    +0.000 A 
ATOM     25  C   UNL     1       4.089   4.631  17.335  0.00  0.00    +0.000 A 
ATOM     26  C   UNL     1       4.245   3.717  18.382  0.00  0.00    +0.000 A 
ATOM     27  C   UNL     1       3.466   3.824  19.537  0.00  0.00    +0.000 A 
ATOM     28  N   UNL     1       3.498   2.803  20.494  0.00  0.00    +0.000 N 
ATOM     29  H   UNL     1       4.171   2.051  20.416  0.00  0.00    +0.000 HD
ENDBRANCH  16  25
ENDBRANCH   1  16
TORSDOF 5
ENDMDL
MODEL 4
REMARK VINA RESULT:      -8.5      3.931      5.755
REMARK  Name = 
REMARK  5 active torsions:
REMARK  status: ('A' for Active; 'I' for Inactive)
REMARK    1  A    between atoms: C_8  and  N_9
REMARK    2  A    between atoms: N_9  and  C_10
REMARK    3  A    between atoms: C_10  and  C_11
REMARK    4  A    between atoms: C_10  and  C_17
REMARK    5  A    between atoms: N_13  and  C_14
REMARK                            x       y       z     vdW  Elec       q    Type
REMARK                         _______ _______ _______ _____ _____    ______ ____
ROOT
ATOM      1  C   UNL     1       6.112   4.080  16.027  0.00  0.00    +0.000 C 
ENDROOT
BRANCH   1   2
ATOM      2  C   UNL     1       6.835   5.138  16.864  0.00  0.00    +0.000 A 
ATOM      3  C   UNL     1       7.597   4.810  18.001  0.00  0.00    +0.000 A 
ATOM      4  C   UNL     1       8.195   5.807  18.773  0.00  0.00    +0.000 A 
ATOM      5  C   UNL     1       8.048   7.138  18.407  0.00  0.00    +0.000 A 
ATOM      6  F   UNL     1       8.600   8.095  19.163  0.00  0.00    +0.000 F 
ATOM      7  C   UNL     1       7.333   7.490  17.271  0.00  0.00    +0.000 A 
ATOM      8  C   UNL     1       6.738   6.495  16.494  0.00  0.00    +0.000 A 
ENDBRANCH   1   2
BRANCH   1   9
ATOM      9  C   UNL     1       6.591   4.122  14.544  0.00  0.00    +0.000 C 
ATOM     10  O   UNL     1       7.598   4.737  14.196  0.00  0.00    +0.000 OA
ATOM     11  N   UNL     1       5.798   3.398  13.662  0.00  0.00    +0.000 N 
ATOM     12  H   UNL     1       4.868   3.134  13.974  0.00  0.00    +0.000 HD
BRANCH  11  13
ATOM     13  C   UNL     1       6.083   3.341  12.262  0.00  0.00    +0.000 C 
ATOM     14  C   UNL     1       4.991   3.130  11.249  0.00  0.00    +0.000 C 
ATOM     15  C   UNL     1       5.973   2.031  11.532  0.00  0.00    +0.000 C 
ENDBRANCH  11  13
ENDBRANCH   1   9
BRANCH   1  16
ATOM     16  N   UNL     1       4.640   4.286  16.064  0.00  0.00    +0.000 N 
ATOM     17  H   UNL     1       4.169   3.592  15.485  0.00  0.00    +0.000 HD
BRANCH  16  25
ATOM     18  O   UNL     1       2.565   1.591  22.301  0.00  0.00    +0.000 OA
ATOM     19  C   UNL     1       2.531   2.540  21.523  0.00  0.00    +0.000 C 
ATOM     20  C   UNL     1       1.414   3.562  21.544  0.00  0.00    +0.000 C 
ATOM     21  C   UNL     1       1.889   4.921  21.053  0.00  0.00    +0.000 C 
ATOM     22  C   UNL     1       2.602   4.774  19.739  0.00  0.00    +0.000 A 
ATOM     23  C   UNL     1       2.543   5.753  18.750  0.00  0.00    +0.000 A 
ATOM     24  C   UNL     1       3.226   5.565  17.543  0.00  0.00    +0.000 A 
ATOM     25  C   UNL     1       3.991   4.411  17.302  0.00  0.00    +0.000 A 
ATOM     26  C   UNL     1       4.154   3.510  18.359  0.00  0.00    +0.000 A 
ATOM     27  C   UNL     1       3.412   3.656  19.535  0.00  0.00    +0.000 A 
ATOM     28  N   UNL     1       3.446   2.649  20.507  0.00  0.00    +0.000 N 
ATOM     29  H   UNL     1       4.095   1.878  20.421  0.00  0.00    +0.000 HD
ENDBRANCH  16  25
ENDBRANCH   1  16
TORSDOF 5
ENDMDL
MODEL 5
REMARK VINA RESULT:      -8.2      2.524      4.564
REMARK  Name = 
REMARK  5 active torsions:
REMARK  status: ('A' for Active; 'I' for Inactive)
REMARK    1  A    between atoms: C_8  and  N_9
REMARK    2  A    between atoms: N_9  and  C_10
REMARK    3  A    between atoms: C_10  and  C_11
REMARK    4  A    between atoms: C_10  and  C_17
REMARK    5  A    between atoms: N_13  and  C_14
REMARK                            x       y       z     vdW  Elec       q    Type
REMARK                         _______ _______ _______ _____ _____    ______ ____
ROOT
ATOM      1  C   UNL     1       3.194   6.308  18.521  0.00  0.00    +0.000 C 
ENDROOT
BRANCH   1   2
ATOM      2  C   UNL     1       4.422   5.864  17.723  0.00  0.00    +0.000 A 
ATOM      3  C   UNL     1       4.699   6.349  16.431  0.00  0.00    +0.000 A 
ATOM      4  C   UNL     1       5.797   5.877  15.710  0.00  0.00    +0.000 A 
ATOM      5  C   UNL     1       6.636   4.930  16.281  0.00  0.00    +0.000 A 
ATOM      6  F   UNL     1       7.675   4.459  15.578  0.00  0.00    +0.000 F 
ATOM      7  C   UNL     1       6.410   4.460  17.567  0.00  0.00    +0.000 A 
ATOM      8  C   UNL     1       5.315   4.933  18.292  0.00  0.00    +0.000 A 
ENDBRANCH   1   2
BRANCH   1   9
ATOM      9  C   UNL     1       2.209   5.119  18.731  0.00  0.00    +0.000 C 
ATOM     10  O   UNL     1       1.652   4.553  17.791  0.00  0.00    +0.000 OA
ATOM     11  N   UNL     1       2.029   4.746  20.059  0.00  0.00    +0.000 N 
ATOM     12  H   UNL     1       2.320   5.406  20.774  0.00  0.00    +0.000 HD
BRANCH  11  13
ATOM     13  C   UNL     1       1.148   3.685  20.433  0.00  0.00    +0.000 C 
ATOM     14  C   UNL     1       1.451   2.794  21.606  0.00  0.00    +0.000 C 
ATOM     15  C   UNL     1       1.565   2.257  20.210  0.00  0.00    +0.000 C 
ENDBRANCH  11  13
ENDBRANCH   1   9
BRANCH   1  16
ATOM     16  N   UNL     1       2.478   7.411  17.828  0.00  0.00    +0.000 N 
ATOM     17  H   UNL     1       1.800   7.035  17.168  0.00  0.00    +0.000 HD
BRANCH  16  25
ATOM     18  O   UNL     1      -0.367   9.865  23.857  0.00  0.00    +0.000 OA
ATOM     19  C   UNL     1      -0.090  10.084  22.681  0.00  0.00    +0.000 C 
ATOM     20  C   UNL     1      -0.815  11.131  21.862  0.00  0.00    +0.000 C 
ATOM     21  C   UNL     1       0.077  11.704  20.772  0.00  0.00    +0.000 C 
ATOM     22  C   UNL     1       0.705  10.591  19.982  0.00  0.00    +0.000 A 
ATOM     23  C   UNL     1       0.968  10.707  18.619  0.00  0.00    +0.000 A 
ATOM     24  C   UNL     1       1.555   9.638  17.931  0.00  0.00    +0.000 A 
ATOM     25  C   UNL     1       1.903   8.444  18.584  0.00  0.00    +0.000 A 
ATOM     26  C   UNL     1       1.764   8.402  19.976  0.00  0.00    +0.000 A 
ATOM     27  C   UNL     1       1.108   9.435  20.652  0.00  0.00    +0.000 A 
ATOM     28  N   UNL     1       0.812   9.295  22.013  0.00  0.00    +0.000 N 
ATOM     29  H   UNL     1       1.176   8.510  22.537  0.00  0.00    +0.000 HD
ENDBRANCH  16  25
ENDBRANCH   1  16
TORSDOF 5
ENDMDL
MODEL 6
REMARK VINA RESULT:      -8.1      2.509      4.631
REMARK  Name = 
REMARK  5 active torsions:
REMARK  status: ('A' for Active; 'I' for Inactive)
REMARK    1  A    between atoms: C_8  and  N_9
REMARK    2  A    between atoms: N_9  and  C_10
REMARK    3  A    between atoms: C_10  and  C_11
REMARK    4  A    between atoms: C_10  and  C_17
REMARK    5  A    between atoms: N_13  and  C_14
REMARK                            x       y       z     vdW  Elec       q    Type
REMARK                         _______ _______ _______ _____ _____    ______ ____
ROOT
ATOM      1  C   UNL     1       3.330   6.050  18.286  0.00  0.00    +0.000 C 
ENDROOT
BRANCH   1   2
ATOM      2  C   UNL     1       4.464   5.673  17.331  0.00  0.00    +0.000 A 
ATOM      3  C   UNL     1       4.490   4.449  16.635  0.00  0.00    +0.000 A 
ATOM      4  C   UNL     1       5.570   4.115  15.817  0.00  0.00    +0.000 A 
ATOM      5  C   UNL     1       6.625   5.007  15.675  0.00  0.00    +0.000 A 
ATOM      6  F   UNL     1       7.672   4.674  14.910  0.00  0.00    +0.000 F 
ATOM      7  C   UNL     1       6.610   6.236  16.318  0.00  0.00    +0.000 A 
ATOM      8  C   UNL     1       5.530   6.575  17.134  0.00  0.00    +0.000 A 
ENDBRANCH   1   2
BRANCH   1   9
ATOM      9  C   UNL     1       2.483   4.798  18.666  0.00  0.00    +0.000 C 
ATOM     10  O   UNL     1       1.484   4.463  18.031  0.00  0.00    +0.000 OA
ATOM     11  N   UNL     1       2.962   4.091  19.763  0.00  0.00    +0.000 N 
ATOM     12  H   UNL     1       3.627   4.560  20.370  0.00  0.00    +0.000 HD
BRANCH  11  13
ATOM     13  C   UNL     1       2.298   2.925  20.258  0.00  0.00    +0.000 C 
ATOM     14  C   UNL     1       1.136   3.031  21.207  0.00  0.00    +0.000 C 
ATOM     15  C   UNL     1       2.462   2.531  21.700  0.00  0.00    +0.000 C 
ENDBRANCH  11  13
ENDBRANCH   1   9
BRANCH   1  16
ATOM     16  N   UNL     1       2.436   7.069  17.675  0.00  0.00    +0.000 N 
ATOM     17  H   UNL     1       1.700   6.618  17.133  0.00  0.00    +0.000 HD
BRANCH  16  25
ATOM     18  O   UNL     1       0.243   9.518  23.973  0.00  0.00    +0.000 OA
ATOM     19  C   UNL     1       0.350   9.719  22.766  0.00  0.00    +0.000 C 
ATOM     20  C   UNL     1      -0.543  10.694  22.028  0.00  0.00    +0.000 C 
ATOM     21  C   UNL     1       0.159  11.288  20.817  0.00  0.00    +0.000 C 
ATOM     22  C   UNL     1       0.751  10.195  19.976  0.00  0.00    +0.000 A 
ATOM     23  C   UNL     1       0.827  10.286  18.588  0.00  0.00    +0.000 A 
ATOM     24  C   UNL     1       1.388   9.236  17.851  0.00  0.00    +0.000 A 
ATOM     25  C   UNL     1       1.897   8.086  18.478  0.00  0.00    +0.000 A 
ATOM     26  C   UNL     1       1.943   8.078  19.877  0.00  0.00    +0.000 A 
ATOM     27  C   UNL     1       1.314   9.087  20.612  0.00  0.00    +0.000 A 
ATOM     28  N   UNL     1       1.207   8.969  22.002  0.00  0.00    +0.000 N 
ATOM     29  H   UNL     1       1.687   8.224  22.490  0.00  0.00    +0.000 HD
ENDBRANCH  16  25
ENDBRANCH   1  16
TORSDOF 5
ENDMDL
MODEL 7
REMARK VINA RESULT:      -8.1      2.458      3.150
REMARK  Name = 
REMARK  5 active torsions:
REMARK  status: ('A' for Active; 'I' for Inactive)
REMARK    1  A    between atoms: C_8  and  N_9
REMARK    2  A    between atoms: N_9  and  C_10
REMARK    3  A    between atoms: C_10  and  C_11
REMARK    4  A    between atoms: C_10  and  C_17
REMARK    5  A    between atoms: N_13  and  C_14
REMARK                            x       y       z     vdW  Elec       q    Type
REMARK                         _______ _______ _______ _____ _____    ______ ____
ROOT
ATOM      1  C   UNL     1       2.772   6.395  18.403  0.00  0.00    +0.000 C 
ENDROOT
BRANCH   1   2
ATOM      2  C   UNL     1       2.288   4.970  18.685  0.00  0.00    +0.000 A 
ATOM      3  C   UNL     1       1.764   4.584  19.933  0.00  0.00    +0.000 A 
ATOM      4  C   UNL     1       1.386   3.262  20.171  0.00  0.00    +0.000 A 
ATOM      5  C   UNL     1       1.514   2.319  19.160  0.00  0.00    +0.000 A 
ATOM      6  F   UNL     1       1.175   1.046  19.398  0.00  0.00    +0.000 F 
ATOM      7  C   UNL     1       1.993   2.678  17.908  0.00  0.00    +0.000 A 
ATOM      8  C   UNL     1       2.368   4.000  17.665  0.00  0.00    +0.000 A 
ENDBRANCH   1   2
BRANCH   1   9
ATOM      9  C   UNL     1       4.181   6.380  17.736  0.00  0.00    +0.000 C 
ATOM     10  O   UNL     1       4.394   6.895  16.639  0.00  0.00    +0.000 OA
ATOM     11  N   UNL     1       5.169   5.755  18.488  0.00  0.00    +0.000 N 
ATOM     12  H   UNL     1       4.869   5.150  19.246  0.00  0.00    +0.000 HD
BRANCH  11  13
ATOM     13  C   UNL     1       6.514   5.638  18.020  0.00  0.00    +0.000 C 
ATOM     14  C   UNL     1       7.680   5.707  18.967  0.00  0.00    +0.000 C 
ATOM     15  C   UNL     1       7.412   6.844  18.026  0.00  0.00    +0.000 C 
ENDBRANCH  11  13
ENDBRANCH   1   9
BRANCH   1  16
ATOM     16  N   UNL     1       2.841   7.192  19.656  0.00  0.00    +0.000 N 
ATOM     17  H   UNL     1       3.777   7.573  19.784  0.00  0.00    +0.000 HD
BRANCH  16  25
ATOM     18  O   UNL     1      -0.470  13.228  17.902  0.00  0.00    +0.000 OA
ATOM     19  C   UNL     1      -0.332  12.326  18.724  0.00  0.00    +0.000 C 
ATOM     20  C   UNL     1      -0.692  12.502  20.184  0.00  0.00    +0.000 C 
ATOM     21  C   UNL     1      -1.104  11.184  20.821  0.00  0.00    +0.000 C 
ATOM     22  C   UNL     1      -0.074  10.130  20.536  0.00  0.00    +0.000 A 
ATOM     23  C   UNL     1       0.225   9.120  21.448  0.00  0.00    +0.000 A 
ATOM     24  C   UNL     1       1.195   8.161  21.131  0.00  0.00    +0.000 A 
ATOM     25  C   UNL     1       1.873   8.179  19.900  0.00  0.00    +0.000 A 
ATOM     26  C   UNL     1       1.456   9.111  18.944  0.00  0.00    +0.000 A 
ATOM     27  C   UNL     1       0.545  10.115  19.285  0.00  0.00    +0.000 A 
ATOM     28  N   UNL     1       0.279  11.148  18.378  0.00  0.00    +0.000 N 
ATOM     29  H   UNL     1       0.644  11.106  17.436  0.00  0.00    +0.000 HD
ENDBRANCH  16  25
ENDBRANCH   1  16
TORSDOF 5
ENDMDL
MODEL 8
REMARK VINA RESULT:      -8.1      1.480      1.921
REMARK  Name = 
REMARK  5 active torsions:
REMARK  status: ('A' for Active; 'I' for Inactive)
REMARK    1  A    between atoms: C_8  and  N_9
REMARK    2  A    between atoms: N_9  and  C_10
REMARK    3  A    between atoms: C_10  and  C_11
REMARK    4  A    between atoms: C_10  and  C_17
REMARK    5  A    between atoms: N_13  and  C_14
REMARK                            x       y       z     vdW  Elec       q    Type
REMARK                         _______ _______ _______ _____ _____    ______ ____
ROOT
ATOM      1  C   UNL     1       2.947   4.808  17.818  0.00  0.00    +0.000 C 
ENDROOT
BRANCH   1   2
ATOM      2  C   UNL     1       2.392   4.050  19.027  0.00  0.00    +0.000 A 
ATOM      3  C   UNL     1       1.047   3.646  19.113  0.00  0.00    +0.000 A 
ATOM      4  C   UNL     1       0.564   3.008  20.256  0.00  0.00    +0.000 A 
ATOM      5  C   UNL     1       1.424   2.755  21.316  0.00  0.00    +0.000 A 
ATOM      6  F   UNL     1       0.953   2.166  22.422  0.00  0.00    +0.000 F 
ATOM      7  C   UNL     1       2.764   3.109  21.246  0.00  0.00    +0.000 A 
ATOM      8  C   UNL     1       3.252   3.743  20.102  0.00  0.00    +0.000 A 
ENDBRANCH   1   2
BRANCH   1   9
ATOM      9  C   UNL     1       4.013   3.953  17.069  0.00  0.00    +0.000 C 
ATOM     10  O   UNL     1       4.050   2.726  17.153  0.00  0.00    +0.000 OA
ATOM     11  N   UNL     1       4.900   4.691  16.292  0.00  0.00    +0.000 N 
ATOM     12  H   UNL     1       4.962   5.688  16.470  0.00  0.00    +0.000 HD
BRANCH  11  13
ATOM     13  C   UNL     1       5.951   4.068  15.551  0.00  0.00    +0.000 C 
ATOM     14  C   UNL     1       6.973   4.885  14.806  0.00  0.00    +0.000 C 
ATOM     15  C   UNL     1       5.932   4.116  14.047  0.00  0.00    +0.000 C 
ENDBRANCH  11  13
ENDBRANCH   1   9
BRANCH   1  16
ATOM     16  N   UNL     1       3.565   6.094  18.234  0.00  0.00    +0.000 N 
ATOM     17  H   UNL     1       4.134   6.476  17.479  0.00  0.00    +0.000 HD
BRANCH  16  25
ATOM     18  O   UNL     1       0.842  12.655  18.149  0.00  0.00    +0.000 OA
ATOM     19  C   UNL     1       0.961  11.594  18.754  0.00  0.00    +0.000 C 
ATOM     20  C   UNL     1       0.796  11.498  20.256  0.00  0.00    +0.000 C 
ATOM     21  C   UNL     1       0.302  10.124  20.678  0.00  0.00    +0.000 C 
ATOM     22  C   UNL     1       1.154   9.056  20.056  0.00  0.00    +0.000 A 
ATOM     23  C   UNL     1       1.430   7.855  20.706  0.00  0.00    +0.000 A 
ATOM     24  C   UNL     1       2.232   6.893  20.080  0.00  0.00    +0.000 A 
ATOM     25  C   UNL     1       2.760   7.098  18.795  0.00  0.00    +0.000 A 
ATOM     26  C   UNL     1       2.354   8.244  18.103  0.00  0.00    +0.000 A 
ATOM     27  C   UNL     1       1.619   9.240  18.753  0.00  0.00    +0.000 A 
ATOM     28  N   UNL     1       1.379  10.459  18.107  0.00  0.00    +0.000 N 
ATOM     29  H   UNL     1       1.625  10.578  17.133  0.00  0.00    +0.000 HD
ENDBRANCH  16  25
ENDBRANCH   1  16
TORSDOF 5
ENDMDL
MODEL 9
REMARK VINA RESULT:      -8.1      1.970      2.502
REMARK  Name = 
REMARK  5 active torsions:
REMARK  status: ('A' for Active; 'I' for Inactive)
REMARK    1  A    between atoms: C_8  and  N_9
REMARK    2  A    between atoms: N_9  and  C_10
REMARK    3  A    between atoms: C_10  and  C_11
REMARK    4  A    between atoms: C_10  and  C_17
REMARK    5  A    between atoms: N_13  and  C_14
REMARK                            x       y       z     vdW  Elec       q    Type
REMARK                         _______ _______ _______ _____ _____    ______ ____
ROOT
ATOM      1  C   UNL     1       2.643   5.853  18.299  0.00  0.00    +0.000 C 
ENDROOT
BRANCH   1   2
ATOM      2  C   UNL     1       2.190   4.807  19.321  0.00  0.00    +0.000 A 
ATOM      3  C   UNL     1       1.164   3.882  19.051  0.00  0.00    +0.000 A 
ATOM      4  C   UNL     1       0.738   2.981  20.028  0.00  0.00    +0.000 A 
ATOM      5  C   UNL     1       1.345   2.987  21.276  0.00  0.00    +0.000 A 
ATOM      6  F   UNL     1       0.918   2.139  22.222  0.00  0.00    +0.000 F 
ATOM      7  C   UNL     1       2.384   3.861  21.560  0.00  0.00    +0.000 A 
ATOM      8  C   UNL     1       2.815   4.761  20.584  0.00  0.00    +0.000 A 
ENDBRANCH   1   2
BRANCH   1   9
ATOM      9  C   UNL     1       3.843   5.323  17.457  0.00  0.00    +0.000 C 
ATOM     10  O   UNL     1       3.751   4.335  16.730  0.00  0.00    +0.000 OA
ATOM     11  N   UNL     1       5.010   6.068  17.586  0.00  0.00    +0.000 N 
ATOM     12  H   UNL     1       5.078   6.701  18.377  0.00  0.00    +0.000 HD
BRANCH  11  13
ATOM     13  C   UNL     1       6.211   5.714  16.898  0.00  0.00    +0.000 C 
ATOM     14  C   UNL     1       7.409   5.182  17.637  0.00  0.00    +0.000 C 
ATOM     15  C   UNL     1       7.441   6.566  17.058  0.00  0.00    +0.000 C 
ENDBRANCH  11  13
ENDBRANCH   1   9
BRANCH   1  16
ATOM     16  N   UNL     1       3.046   7.115  18.971  0.00  0.00    +0.000 N 
ATOM     17  H   UNL     1       3.782   7.581  18.443  0.00  0.00    +0.000 HD
BRANCH  16  25
ATOM     18  O   UNL     1      -0.658  13.077  17.865  0.00  0.00    +0.000 OA
ATOM     19  C   UNL     1      -0.412  12.137  18.616  0.00  0.00    +0.000 C 
ATOM     20  C   UNL     1      -0.654  12.212  20.109  0.00  0.00    +0.000 C 
ATOM     21  C   UNL     1      -0.954  10.842  20.697  0.00  0.00    +0.000 C 
ATOM     22  C   UNL     1       0.092   9.856  20.264  0.00  0.00    +0.000 A 
ATOM     23  C   UNL     1       0.511   8.811  21.086  0.00  0.00    +0.000 A 
ATOM     24  C   UNL     1       1.491   7.920  20.633  0.00  0.00    +0.000 A 
ATOM     25  C   UNL     1       2.060   8.039  19.354  0.00  0.00    +0.000 A 
ATOM     26  C   UNL     1       1.524   9.003  18.494  0.00  0.00    +0.000 A 
ATOM     27  C   UNL     1       0.604   9.942  18.969  0.00  0.00    +0.000 A 
ATOM     28  N   UNL     1       0.218  11.011  18.151  0.00  0.00    +0.000 N 
ATOM     29  H   UNL     1       0.503  11.040  17.181  0.00  0.00    +0.000 HD
ENDBRANCH  16  25
ENDBRANCH   1  16
TORSDOF 5
ENDMDL
