MODEL 1
REMARK VINA RESULT:      -9.0      0.000      0.000
REMARK  Name = 
REMARK  3 active torsions:
REMARK  status: ('A' for Active; 'I' for Inactive)
REMARK    1  A    between atoms: C_6  and  C_7
REMARK    2  A    between atoms: C_10  and  C_11
REMARK    3  A    between atoms: C_11  and  C_12
REMARK                            x       y       z     vdW  Elec       q    Type
REMARK                         _______ _______ _______ _____ _____    ______ ____
ROOT
ATOM      1  C   UNL     1       3.337   5.989  19.370  0.00  0.00    +0.000 A 
ATOM      2  C   UNL     1       3.023   4.689  19.723  0.00  0.00    +0.000 A 
ATOM      3  S   UNL     1       4.317   3.639  19.322  0.00  0.00    +0.000 S 
ATOM      4  C   UNL     1       5.207   4.972  18.698  0.00  0.00    +0.000 A 
ATOM      5  N   UNL     1       4.581   6.137  18.768  0.00  0.00    +0.000 NA
ENDROOT
BRANCH   1  11
ATOM      6  O   UNL     1      -0.281  12.257  18.510  0.00  0.00    +0.000 OA
ATOM      7  C   UNL     1       0.214  11.179  18.800  0.00  0.00    +0.000 C 
ATOM      8  C   UNL     1       0.983  10.247  17.838  0.00  0.00    +0.000 C 
ATOM      9  C   UNL     1       1.406   9.124  18.738  0.00  0.00    +0.000 A 
ATOM     10  C   UNL     1       2.177   8.000  18.507  0.00  0.00    +0.000 A 
ATOM     11  C   UNL     1       2.459   7.137  19.590  0.00  0.00    +0.000 A 
ATOM     12  C   UNL     1       1.934   7.422  20.880  0.00  0.00    +0.000 A 
ATOM     13  C   UNL     1       1.149   8.557  21.102  0.00  0.00    +0.000 A 
ATOM     14  C   UNL     1       0.923   9.372  20.013  0.00  0.00    +0.000 A 
ATOM     15  N   UNL     1       0.202  10.555  20.043  0.00  0.00    +0.000 N 
ATOM     16  C   UNL     1      -0.316  11.061  21.297  0.00  0.00    +0.000 C 
ATOM     17  C   UNL     1      -0.594   9.918  22.284  0.00  0.00    +0.000 C 
ATOM     18  C   UNL     1       0.626   8.991  22.442  0.00  0.00    +0.000 C 
ENDBRANCH   1  11
BRANCH   4  19
ATOM     19  C   UNL     1       6.554   4.776  18.045  0.00  0.00    +0.000 C 
BRANCH  19  20
ATOM     20  C   UNL     1       6.548   4.693  16.539  0.00  0.00    +0.000 A 
ATOM     21  N   UNL     1       7.382   5.312  15.719  0.00  0.00    +0.000 NA
ATOM     22  C   UNL     1       7.168   4.903  14.403  0.00  0.00    +0.000 A 
ATOM     23  C   UNL     1       7.867   5.320  13.243  0.00  0.00    +0.000 A 
ATOM     24  C   UNL     1       7.518   4.798  11.989  0.00  0.00    +0.000 A 
ATOM     25  C   UNL     1       6.484   3.878  11.867  0.00  0.00    +0.000 A 
ATOM     26  C   UNL     1       5.784   3.446  12.994  0.00  0.00    +0.000 A 
ATOM     27  C   UNL     1       6.140   3.966  14.246  0.00  0.00    +0.000 A 
ATOM     28  S   UNL     1       5.460   3.597  15.776  0.00  0.00    +0.000 S 
ENDBRANCH  19  20
ENDBRANCH   4  19
TORSDOF 3
ENDMDL
MODEL 2
REMARK VINA RESULT:      -8.9      5.900      7.638
REMARK  Name = 
REMARK  3 active torsions:
REMARK  status: ('A' for Active; 'I' for Inactive)
REMARK    1  A    between atoms: C_6  and  C_7
REMARK    2  A    between atoms: C_10  and  C_11
REMARK    3  A    between atoms: C_11  and  C_12
REMARK                            x       y       z     vdW  Elec       q    Type
REMARK                         _______ _______ _______ _____ _____    ______ ____
ROOT
ATOM      1  C   UNL     1       7.931   8.325  18.012  0.00  0.00    +0.000 A 
ATOM      2  C   UNL     1       8.336   7.225  18.746  0.00  0.00    +0.000 A 
ATOM      3  S   UNL     1       7.545   5.814  18.181  0.00  0.00    +0.000 S 
ATOM      4  C   UNL     1       6.711   6.751  17.004  0.00  0.00    +0.000 A 
ATOM      5  N   UNL     1       6.988   8.046  17.029  0.00  0.00    +0.000 NA
ENDROOT
BRANCH   1  11
ATOM      6  O   UNL     1       8.938  15.527  17.523  0.00  0.00    +0.000 OA
ATOM      7  C   UNL     1       8.874  14.331  17.757  0.00  0.00    +0.000 C 
ATOM      8  C   UNL     1       7.765  13.370  17.274  0.00  0.00    +0.000 C 
ATOM      9  C   UNL     1       8.232  12.043  17.796  0.00  0.00    +0.000 A 
ATOM     10  C   UNL     1       7.718  10.767  17.654  0.00  0.00    +0.000 A 
ATOM     11  C   UNL     1       8.426   9.685  18.223  0.00  0.00    +0.000 A 
ATOM     12  C   UNL     1       9.630   9.923  18.941  0.00  0.00    +0.000 A 
ATOM     13  C   UNL     1      10.137  11.217  19.085  0.00  0.00    +0.000 A 
ATOM     14  C   UNL     1       9.413  12.231  18.493  0.00  0.00    +0.000 A 
ATOM     15  N   UNL     1       9.773  13.570  18.498  0.00  0.00    +0.000 N 
ATOM     16  C   UNL     1      11.027  13.985  19.089  0.00  0.00    +0.000 C 
ATOM     17  C   UNL     1      11.455  13.029  20.212  0.00  0.00    +0.000 C 
ATOM     18  C   UNL     1      11.442  11.560  19.746  0.00  0.00    +0.000 C 
ENDBRANCH   1  11
BRANCH   4  19
ATOM     19  C   UNL     1       5.680   6.126  16.094  0.00  0.00    +0.000 C 
BRANCH  19  20
ATOM     20  C   UNL     1       4.556   5.392  16.781  0.00  0.00    +0.000 A 
ATOM     21  N   UNL     1       4.254   4.112  16.635  0.00  0.00    +0.000 NA
ATOM     22  C   UNL     1       3.240   3.744  17.520  0.00  0.00    +0.000 A 
ATOM     23  C   UNL     1       2.656   2.463  17.682  0.00  0.00    +0.000 A 
ATOM     24  C   UNL     1       1.642   2.271  18.631  0.00  0.00    +0.000 A 
ATOM     25  C   UNL     1       1.193   3.329  19.413  0.00  0.00    +0.000 A 
ATOM     26  C   UNL     1       1.756   4.598  19.278  0.00  0.00    +0.000 A 
ATOM     27  C   UNL     1       2.774   4.785  18.332  0.00  0.00    +0.000 A 
ATOM     28  S   UNL     1       3.637   6.223  17.978  0.00  0.00    +0.000 S 
ENDBRANCH  19  20
ENDBRANCH   4  19
TORSDOF 3
ENDMDL
MODEL 3
REMARK VINA RESULT:      -8.8      4.427      9.752
REMARK  Name = 
REMARK  3 active torsions:
REMARK  status: ('A' for Active; 'I' for Inactive)
REMARK    1  A    between atoms: C_6  and  C_7
REMARK    2  A    between atoms: C_10  and  C_11
REMARK    3  A    between atoms: C_11  and  C_12
REMARK                            x       y       z     vdW  Elec       q    Type
REMARK                         _______ _______ _______ _____ _____    ______ ____
ROOT
ATOM      1  C   UNL     1       1.109   8.625  20.557  0.00  0.00    +0.000 A 
ATOM      2  C   UNL     1       0.818   8.989  21.859  0.00  0.00    +0.000 A 
ATOM      3  S   UNL     1       0.039  10.516  21.886  0.00  0.00    +0.000 S 
ATOM      4  C   UNL     1       0.145  10.601  20.171  0.00  0.00    +0.000 A 
ATOM      5  N   UNL     1       0.736   9.562  19.600  0.00  0.00    +0.000 NA
ENDROOT
BRANCH   1  11
ATOM      6  O   UNL     1       4.711   3.490  16.845  0.00  0.00    +0.000 OA
ATOM      7  C   UNL     1       4.128   4.238  17.613  0.00  0.00    +0.000 C 
ATOM      8  C   UNL     1       3.958   5.764  17.439  0.00  0.00    +0.000 C 
ATOM      9  C   UNL     1       3.119   6.137  18.625  0.00  0.00    +0.000 A 
ATOM     10  C   UNL     1       2.568   7.342  19.019  0.00  0.00    +0.000 A 
ATOM     11  C   UNL     1       1.758   7.371  20.177  0.00  0.00    +0.000 A 
ATOM     12  C   UNL     1       1.543   6.180  20.922  0.00  0.00    +0.000 A 
ATOM     13  C   UNL     1       2.111   4.967  20.520  0.00  0.00    +0.000 A 
ATOM     14  C   UNL     1       2.876   4.997  19.373  0.00  0.00    +0.000 A 
ATOM     15  N   UNL     1       3.489   3.894  18.799  0.00  0.00    +0.000 N 
ATOM     16  C   UNL     1       3.289   2.575  19.361  0.00  0.00    +0.000 C 
ATOM     17  C   UNL     1       3.005   2.651  20.869  0.00  0.00    +0.000 C 
ATOM     18  C   UNL     1       1.870   3.642  21.187  0.00  0.00    +0.000 C 
ENDBRANCH   1  11
BRANCH   4  19
ATOM     19  C   UNL     1      -0.325  11.823  19.419  0.00  0.00    +0.000 C 
BRANCH  19  20
ATOM     20  C   UNL     1      -1.814  11.932  19.206  0.00  0.00    +0.000 A 
ATOM     21  N   UNL     1      -2.511  11.346  18.246  0.00  0.00    +0.000 NA
ATOM     22  C   UNL     1      -3.876  11.560  18.433  0.00  0.00    +0.000 A 
ATOM     23  C   UNL     1      -4.944  11.083  17.633  0.00  0.00    +0.000 A 
ATOM     24  C   UNL     1      -6.269  11.394  17.973  0.00  0.00    +0.000 A 
ATOM     25  C   UNL     1      -6.549  12.176  19.088  0.00  0.00    +0.000 A 
ATOM     26  C   UNL     1      -5.517  12.653  19.896  0.00  0.00    +0.000 A 
ATOM     27  C   UNL     1      -4.194  12.335  19.555  0.00  0.00    +0.000 A 
ATOM     28  S   UNL     1      -2.755  12.774  20.377  0.00  0.00    +0.000 S 
ENDBRANCH  19  20
ENDBRANCH   4  19
TORSDOF 3
ENDMDL
MODEL 4
REMARK VINA RESULT:      -8.8      4.409      9.792
REMARK  Name = 
REMARK  3 active torsions:
REMARK  status: ('A' for Active; 'I' for Inactive)
REMARK    1  A    between atoms: C_6  and  C_7
REMARK    2  A    between atoms: C_10  and  C_11
REMARK    3  A    between atoms: C_11  and  C_12
REMARK                            x       y       z     vdW  Elec       q    Type
REMARK                         _______ _______ _______ _____ _____    ______ ____
ROOT
ATOM      1  C   UNL     1       1.130   8.809  20.394  0.00  0.00    +0.000 A 
ATOM      2  C   UNL     1       1.003   9.294  21.683  0.00  0.00    +0.000 A 
ATOM      3  S   UNL     1       0.183  10.799  21.670  0.00  0.00    +0.000 S 
ATOM      4  C   UNL     1       0.055  10.716  19.957  0.00  0.00    +0.000 A 
ATOM      5  N   UNL     1       0.599   9.639  19.412  0.00  0.00    +0.000 NA
ENDROOT
BRANCH   1  11
ATOM      6  O   UNL     1       4.701   3.542  16.842  0.00  0.00    +0.000 OA
ATOM      7  C   UNL     1       4.120   4.315  17.586  0.00  0.00    +0.000 C 
ATOM      8  C   UNL     1       3.974   5.839  17.376  0.00  0.00    +0.000 C 
ATOM      9  C   UNL     1       3.127   6.250  18.544  0.00  0.00    +0.000 A 
ATOM     10  C   UNL     1       2.588   7.472  18.904  0.00  0.00    +0.000 A 
ATOM     11  C   UNL     1       1.765   7.538  20.051  0.00  0.00    +0.000 A 
ATOM     12  C   UNL     1       1.524   6.367  20.819  0.00  0.00    +0.000 A 
ATOM     13  C   UNL     1       2.079   5.138  20.451  0.00  0.00    +0.000 A 
ATOM     14  C   UNL     1       2.858   5.130  19.313  0.00  0.00    +0.000 A 
ATOM     15  N   UNL     1       3.462   4.006  18.772  0.00  0.00    +0.000 N 
ATOM     16  C   UNL     1       3.235   2.703  19.360  0.00  0.00    +0.000 C 
ATOM     17  C   UNL     1       2.935   2.817  20.862  0.00  0.00    +0.000 C 
ATOM     18  C   UNL     1       1.811   3.831  21.144  0.00  0.00    +0.000 C 
ENDBRANCH   1  11
BRANCH   4  19
ATOM     19  C   UNL     1      -0.554  11.847  19.163  0.00  0.00    +0.000 C 
BRANCH  19  20
ATOM     20  C   UNL     1      -2.054  11.812  19.014  0.00  0.00    +0.000 A 
ATOM     21  N   UNL     1      -2.936  12.332  19.853  0.00  0.00    +0.000 NA
ATOM     22  C   UNL     1      -4.226  12.230  19.334  0.00  0.00    +0.000 A 
ATOM     23  C   UNL     1      -5.433  12.684  19.921  0.00  0.00    +0.000 A 
ATOM     24  C   UNL     1      -6.651  12.499  19.250  0.00  0.00    +0.000 A 
ATOM     25  C   UNL     1      -6.690  11.865  18.014  0.00  0.00    +0.000 A 
ATOM     26  C   UNL     1      -5.516  11.414  17.412  0.00  0.00    +0.000 A 
ATOM     27  C   UNL     1      -4.299  11.606  18.083  0.00  0.00    +0.000 A 
ATOM     28  S   UNL     1      -2.725  11.166  17.565  0.00  0.00    +0.000 S 
ENDBRANCH  19  20
ENDBRANCH   4  19
TORSDOF 3
ENDMDL
MODEL 5
REMARK VINA RESULT:      -8.7      5.938      7.768
REMARK  Name = 
REMARK  3 active torsions:
REMARK  status: ('A' for Active; 'I' for Inactive)
REMARK    1  A    between atoms: C_6  and  C_7
REMARK    2  A    between atoms: C_10  and  C_11
REMARK    3  A    between atoms: C_11  and  C_12
REMARK                            x       y       z     vdW  Elec       q    Type
REMARK                         _______ _______ _______ _____ _____    ______ ____
ROOT
ATOM      1  C   UNL     1       7.930   8.443  18.069  0.00  0.00    +0.000 A 
ATOM      2  C   UNL     1       8.384   7.317  18.734  0.00  0.00    +0.000 A 
ATOM      3  S   UNL     1       7.500   5.937  18.232  0.00  0.00    +0.000 S 
ATOM      4  C   UNL     1       6.567   6.919  17.172  0.00  0.00    +0.000 A 
ATOM      5  N   UNL     1       6.878   8.206  17.191  0.00  0.00    +0.000 NA
ENDROOT
BRANCH   1  11
ATOM      6  O   UNL     1       9.100  15.618  17.563  0.00  0.00    +0.000 OA
ATOM      7  C   UNL     1       9.021  14.422  17.791  0.00  0.00    +0.000 C 
ATOM      8  C   UNL     1       7.849  13.497  17.393  0.00  0.00    +0.000 C 
ATOM      9  C   UNL     1       8.318  12.153  17.863  0.00  0.00    +0.000 A 
ATOM     10  C   UNL     1       7.758  10.893  17.752  0.00  0.00    +0.000 A 
ATOM     11  C   UNL     1       8.479   9.785  18.251  0.00  0.00    +0.000 A 
ATOM     12  C   UNL     1       9.744   9.981  18.870  0.00  0.00    +0.000 A 
ATOM     13  C   UNL     1      10.299  11.260  18.983  0.00  0.00    +0.000 A 
ATOM     14  C   UNL     1       9.558  12.300  18.462  0.00  0.00    +0.000 A 
ATOM     15  N   UNL     1       9.956  13.628  18.448  0.00  0.00    +0.000 N 
ATOM     16  C   UNL     1      11.266  14.001  18.937  0.00  0.00    +0.000 C 
ATOM     17  C   UNL     1      11.757  13.021  20.012  0.00  0.00    +0.000 C 
ATOM     18  C   UNL     1      11.663  11.558  19.537  0.00  0.00    +0.000 C 
ENDBRANCH   1  11
BRANCH   4  19
ATOM     19  C   UNL     1       5.428   6.338  16.369  0.00  0.00    +0.000 C 
BRANCH  19  20
ATOM     20  C   UNL     1       4.485   5.435  17.123  0.00  0.00    +0.000 A 
ATOM     21  N   UNL     1       3.640   5.804  18.073  0.00  0.00    +0.000 NA
ATOM     22  C   UNL     1       2.834   4.732  18.455  0.00  0.00    +0.000 A 
ATOM     23  C   UNL     1       1.800   4.729  19.423  0.00  0.00    +0.000 A 
ATOM     24  C   UNL     1       1.082   3.551  19.679  0.00  0.00    +0.000 A 
ATOM     25  C   UNL     1       1.381   2.377  18.997  0.00  0.00    +0.000 A 
ATOM     26  C   UNL     1       2.390   2.354  18.034  0.00  0.00    +0.000 A 
ATOM     27  C   UNL     1       3.100   3.536  17.777  0.00  0.00    +0.000 A 
ATOM     28  S   UNL     1       4.365   3.784  16.646  0.00  0.00    +0.000 S 
ENDBRANCH  19  20
ENDBRANCH   4  19
TORSDOF 3
ENDMDL
MODEL 6
REMARK VINA RESULT:      -8.7      4.271      9.668
REMARK  Name = 
REMARK  3 active torsions:
REMARK  status: ('A' for Active; 'I' for Inactive)
REMARK    1  A    between atoms: C_6  and  C_7
REMARK    2  A    between atoms: C_10  and  C_11
REMARK    3  A    between atoms: C_11  and  C_12
REMARK                            x       y       z     vdW  Elec       q    Type
REMARK                         _______ _______ _______ _____ _____    ______ ____
ROOT
ATOM      1  C   UNL     1       1.738   8.208  19.662  0.00  0.00    +0.000 A 
ATOM      2  C   UNL     1       1.438   8.213  21.012  0.00  0.00    +0.000 A 
ATOM      3  S   UNL     1       0.690   9.693  21.447  0.00  0.00    +0.000 S 
ATOM      4  C   UNL     1       0.820  10.237  19.820  0.00  0.00    +0.000 A 
ATOM      5  N   UNL     1       1.396   9.379  18.993  0.00  0.00    +0.000 NA
ENDROOT
BRANCH   1  11
ATOM      6  O   UNL     1       3.964   1.525  17.793  0.00  0.00    +0.000 OA
ATOM      7  C   UNL     1       3.651   2.696  17.938  0.00  0.00    +0.000 C 
ATOM      8  C   UNL     1       2.575   3.234  18.908  0.00  0.00    +0.000 C 
ATOM      9  C   UNL     1       2.668   4.718  18.710  0.00  0.00    +0.000 A 
ATOM     10  C   UNL     1       2.017   5.770  19.326  0.00  0.00    +0.000 A 
ATOM     11  C   UNL     1       2.366   7.090  18.961  0.00  0.00    +0.000 A 
ATOM     12  C   UNL     1       3.355   7.313  17.964  0.00  0.00    +0.000 A 
ATOM     13  C   UNL     1       4.003   6.242  17.342  0.00  0.00    +0.000 A 
ATOM     14  C   UNL     1       3.634   4.977  17.752  0.00  0.00    +0.000 A 
ATOM     15  N   UNL     1       4.187   3.797  17.279  0.00  0.00    +0.000 N 
ATOM     16  C   UNL     1       5.285   3.833  16.337  0.00  0.00    +0.000 C 
ATOM     17  C   UNL     1       5.240   5.107  15.480  0.00  0.00    +0.000 C 
ATOM     18  C   UNL     1       5.120   6.375  16.346  0.00  0.00    +0.000 C 
ENDBRANCH   1  11
BRANCH   4  19
ATOM     19  C   UNL     1       0.384  11.627  19.424  0.00  0.00    +0.000 C 
BRANCH  19  20
ATOM     20  C   UNL     1      -1.075  11.786  19.079  0.00  0.00    +0.000 A 
ATOM     21  N   UNL     1      -1.666  11.369  17.971  0.00  0.00    +0.000 NA
ATOM     22  C   UNL     1      -3.045  11.566  18.047  0.00  0.00    +0.000 A 
ATOM     23  C   UNL     1      -4.021  11.235  17.075  0.00  0.00    +0.000 A 
ATOM     24  C   UNL     1      -5.375  11.503  17.322  0.00  0.00    +0.000 A 
ATOM     25  C   UNL     1      -5.774  12.101  18.512  0.00  0.00    +0.000 A 
ATOM     26  C   UNL     1      -4.834  12.431  19.488  0.00  0.00    +0.000 A 
ATOM     27  C   UNL     1      -3.481  12.156  19.240  0.00  0.00    +0.000 A 
ATOM     28  S   UNL     1      -2.138  12.443  20.265  0.00  0.00    +0.000 S 
ENDBRANCH  19  20
ENDBRANCH   4  19
TORSDOF 3
ENDMDL
MODEL 7
REMARK VINA RESULT:      -8.7      4.301      9.819
REMARK  Name = 
REMARK  3 active torsions:
REMARK  status: ('A' for Active; 'I' for Inactive)
REMARK    1  A    between atoms: C_6  and  C_7
REMARK    2  A    between atoms: C_10  and  C_11
REMARK    3  A    between atoms: C_11  and  C_12
REMARK                            x       y       z     vdW  Elec       q    Type
REMARK                         _______ _______ _______ _____ _____    ______ ____
ROOT
ATOM      1  C   UNL     1       1.693   8.383  19.440  0.00  0.00    +0.000 A 
ATOM      2  C   UNL     1       1.540   8.506  20.809  0.00  0.00    +0.000 A 
ATOM      3  S   UNL     1       0.707   9.956  21.183  0.00  0.00    +0.000 S 
ATOM      4  C   UNL     1       0.608  10.333  19.507  0.00  0.00    +0.000 A 
ATOM      5  N   UNL     1       1.172   9.442  18.705  0.00  0.00    +0.000 NA
ENDROOT
BRANCH   1  11
ATOM      6  O   UNL     1       3.943   1.662  17.741  0.00  0.00    +0.000 OA
ATOM      7  C   UNL     1       3.636   2.837  17.861  0.00  0.00    +0.000 C 
ATOM      8  C   UNL     1       2.516   3.394  18.768  0.00  0.00    +0.000 C 
ATOM      9  C   UNL     1       2.635   4.875  18.565  0.00  0.00    +0.000 A 
ATOM     10  C   UNL     1       1.963   5.939  19.137  0.00  0.00    +0.000 A 
ATOM     11  C   UNL     1       2.346   7.252  18.782  0.00  0.00    +0.000 A 
ATOM     12  C   UNL     1       3.388   7.457  17.837  0.00  0.00    +0.000 A 
ATOM     13  C   UNL     1       4.057   6.374  17.259  0.00  0.00    +0.000 A 
ATOM     14  C   UNL     1       3.653   5.117  17.657  0.00  0.00    +0.000 A 
ATOM     15  N   UNL     1       4.218   3.928  17.223  0.00  0.00    +0.000 N 
ATOM     16  C   UNL     1       5.366   3.945  16.342  0.00  0.00    +0.000 C 
ATOM     17  C   UNL     1       5.380   5.212  15.473  0.00  0.00    +0.000 C 
ATOM     18  C   UNL     1       5.228   6.488  16.323  0.00  0.00    +0.000 C 
ENDBRANCH   1  11
BRANCH   4  19
ATOM     19  C   UNL     1       0.003  11.632  19.033  0.00  0.00    +0.000 C 
BRANCH  19  20
ATOM     20  C   UNL     1      -1.494  11.631  18.850  0.00  0.00    +0.000 A 
ATOM     21  N   UNL     1      -2.385  12.127  19.695  0.00  0.00    +0.000 NA
ATOM     22  C   UNL     1      -3.665  12.072  19.144  0.00  0.00    +0.000 A 
ATOM     23  C   UNL     1      -4.877  12.520  19.727  0.00  0.00    +0.000 A 
ATOM     24  C   UNL     1      -6.083  12.389  19.023  0.00  0.00    +0.000 A 
ATOM     25  C   UNL     1      -6.106  11.814  17.757  0.00  0.00    +0.000 A 
ATOM     26  C   UNL     1      -4.926  11.371  17.159  0.00  0.00    +0.000 A 
ATOM     27  C   UNL     1      -3.722  11.510  17.864  0.00  0.00    +0.000 A 
ATOM     28  S   UNL     1      -2.145  11.067  17.359  0.00  0.00    +0.000 S 
ENDBRANCH  19  20
ENDBRANCH   4  19
TORSDOF 3
ENDMDL
MODEL 8
REMARK VINA RESULT:      -8.7      4.242      9.612
REMARK  Name = 
REMARK  3 active torsions:
REMARK  status: ('A' for Active; 'I' for Inactive)
REMARK    1  A    between atoms: C_6  and  C_7
REMARK    2  A    between atoms: C_10  and  C_11
REMARK    3  A    between atoms: C_11  and  C_12
REMARK                            x       y       z     vdW  Elec       q    Type
REMARK                         _______ _______ _______ _____ _____    ______ ____
ROOT
ATOM      1  C   UNL     1       1.635   8.282  19.740  0.00  0.00    +0.000 A 
ATOM      2  C   UNL     1       1.388   8.537  21.077  0.00  0.00    +0.000 A 
ATOM      3  S   UNL     1       0.550  10.021  21.252  0.00  0.00    +0.000 S 
ATOM      4  C   UNL     1       0.574  10.236  19.546  0.00  0.00    +0.000 A 
ATOM      5  N   UNL     1       1.180   9.269  18.873  0.00  0.00    +0.000 NA
ENDROOT
BRANCH   1  11
ATOM      6  O   UNL     1       5.625   3.722  15.691  0.00  0.00    +0.000 OA
ATOM      7  C   UNL     1       4.958   4.351  16.496  0.00  0.00    +0.000 C 
ATOM      8  C   UNL     1       4.820   5.889  16.556  0.00  0.00    +0.000 C 
ATOM      9  C   UNL     1       3.847   6.087  17.680  0.00  0.00    +0.000 A 
ATOM     10  C   UNL     1       3.260   7.227  18.197  0.00  0.00    +0.000 A 
ATOM     11  C   UNL     1       2.317   7.089  19.240  0.00  0.00    +0.000 A 
ATOM     12  C   UNL     1       2.005   5.799  19.750  0.00  0.00    +0.000 A 
ATOM     13  C   UNL     1       2.610   4.653  19.225  0.00  0.00    +0.000 A 
ATOM     14  C   UNL     1       3.508   4.848  18.196  0.00  0.00    +0.000 A 
ATOM     15  N   UNL     1       4.178   3.836  17.527  0.00  0.00    +0.000 N 
ATOM     16  C   UNL     1       3.903   2.449  17.838  0.00  0.00    +0.000 C 
ATOM     17  C   UNL     1       3.440   2.288  19.293  0.00  0.00    +0.000 C 
ATOM     18  C   UNL     1       2.281   3.245  19.633  0.00  0.00    +0.000 C 
ENDBRANCH   1  11
BRANCH   4  19
ATOM     19  C   UNL     1       0.020  11.488  18.908  0.00  0.00    +0.000 C 
BRANCH  19  20
ATOM     20  C   UNL     1      -1.479  11.539  18.755  0.00  0.00    +0.000 A 
ATOM     21  N   UNL     1      -2.338  12.038  19.630  0.00  0.00    +0.000 NA
ATOM     22  C   UNL     1      -3.629  12.039  19.104  0.00  0.00    +0.000 A 
ATOM     23  C   UNL     1      -4.815  12.508  19.722  0.00  0.00    +0.000 A 
ATOM     24  C   UNL     1      -6.038  12.435  19.038  0.00  0.00    +0.000 A 
ATOM     25  C   UNL     1      -6.102  11.899  17.757  0.00  0.00    +0.000 A 
ATOM     26  C   UNL     1      -4.949  11.437  17.123  0.00  0.00    +0.000 A 
ATOM     27  C   UNL     1      -3.728  11.516  17.808  0.00  0.00    +0.000 A 
ATOM     28  S   UNL     1      -2.175  11.040  17.261  0.00  0.00    +0.000 S 
ENDBRANCH  19  20
ENDBRANCH   4  19
TORSDOF 3
ENDMDL
MODEL 9
REMARK VINA RESULT:      -8.7      6.429      7.931
REMARK  Name = 
REMARK  3 active torsions:
REMARK  status: ('A' for Active; 'I' for Inactive)
REMARK    1  A    between atoms: C_6  and  C_7
REMARK    2  A    between atoms: C_10  and  C_11
REMARK    3  A    between atoms: C_11  and  C_12
REMARK                            x       y       z     vdW  Elec       q    Type
REMARK                         _______ _______ _______ _____ _____    ______ ____
ROOT
ATOM      1  C   UNL     1       8.285   8.628  18.365  0.00  0.00    +0.000 A 
ATOM      2  C   UNL     1       8.569   7.484  19.090  0.00  0.00    +0.000 A 
ATOM      3  S   UNL     1       7.667   6.160  18.482  0.00  0.00    +0.000 S 
ATOM      4  C   UNL     1       6.951   7.187  17.302  0.00  0.00    +0.000 A 
ATOM      5  N   UNL     1       7.345   8.450  17.356  0.00  0.00    +0.000 NA
ENDROOT
BRANCH   1  11
ATOM      6  O   UNL     1      12.068  14.807  17.582  0.00  0.00    +0.000 OA
ATOM      7  C   UNL     1      11.365  13.851  17.866  0.00  0.00    +0.000 C 
ATOM      8  C   UNL     1      10.855  12.776  16.880  0.00  0.00    +0.000 C 
ATOM      9  C   UNL     1      10.110  11.835  17.780  0.00  0.00    +0.000 A 
ATOM     10  C   UNL     1       9.469  10.636  17.528  0.00  0.00    +0.000 A 
ATOM     11  C   UNL     1       8.896   9.932  18.611  0.00  0.00    +0.000 A 
ATOM     12  C   UNL     1       8.968  10.472  19.924  0.00  0.00    +0.000 A 
ATOM     13  C   UNL     1       9.612  11.689  20.168  0.00  0.00    +0.000 A 
ATOM     14  C   UNL     1      10.168  12.320  19.075  0.00  0.00    +0.000 A 
ATOM     15  N   UNL     1      10.874  13.512  19.122  0.00  0.00    +0.000 N 
ATOM     16  C   UNL     1      11.142  14.151  20.393  0.00  0.00    +0.000 C 
ATOM     17  C   UNL     1      10.054  13.813  21.424  0.00  0.00    +0.000 C 
ATOM     18  C   UNL     1       9.818  12.294  21.528  0.00  0.00    +0.000 C 
ENDBRANCH   1  11
BRANCH   4  19
ATOM     19  C   UNL     1       5.892   6.673  16.358  0.00  0.00    +0.000 C 
BRANCH  19  20
ATOM     20  C   UNL     1       4.892   5.713  16.951  0.00  0.00    +0.000 A 
ATOM     21  N   UNL     1       3.897   6.025  17.768  0.00  0.00    +0.000 NA
ATOM     22  C   UNL     1       3.096   4.910  18.012  0.00  0.00    +0.000 A 
ATOM     23  C   UNL     1       1.930   4.842  18.814  0.00  0.00    +0.000 A 
ATOM     24  C   UNL     1       1.240   3.628  18.946  0.00  0.00    +0.000 A 
ATOM     25  C   UNL     1       1.693   2.482  18.302  0.00  0.00    +0.000 A 
ATOM     26  C   UNL     1       2.834   2.524  17.501  0.00  0.00    +0.000 A 
ATOM     27  C   UNL     1       3.517   3.741  17.367  0.00  0.00    +0.000 A 
ATOM     28  S   UNL     1       4.923   4.068  16.442  0.00  0.00    +0.000 S 
ENDBRANCH  19  20
ENDBRANCH   4  19
TORSDOF 3
ENDMDL
