MODEL 1
REMARK VINA RESULT:      -9.6      0.000      0.000
REMARK  Name = 
REMARK  3 active torsions:
REMARK  status: ('A' for Active; 'I' for Inactive)
REMARK    1  A    between atoms: C_2  and  C_14
REMARK    2  A    between atoms: N_3  and  C_4
REMARK    3  A    between atoms: N_16  and  C_17
REMARK                            x       y       z     vdW  Elec       q    Type
REMARK                         _______ _______ _______ _____ _____    ______ ____
ROOT
ATOM      1  O   UNL     1       1.648   8.259  20.510  0.00  0.00    +0.000 OA
ATOM      2  C   UNL     1       1.882   8.001  19.330  0.00  0.00    +0.000 C 
ATOM      3  N   UNL     1       1.499   8.803  18.270  0.00  0.00    +0.000 N 
ATOM      4  H   UNL     1       1.628   8.392  17.348  0.00  0.00    +0.000 HD
ENDROOT
BRANCH   3   5
ATOM      5  C   UNL     1       0.868  10.061  18.402  0.00  0.00    +0.000 A 
ATOM      6  C   UNL     1      -0.549  10.191  18.366  0.00  0.00    +0.000 A 
ATOM      7  C   UNL     1      -1.198  11.424  18.460  0.00  0.00    +0.000 A 
ATOM      8  C   UNL     1      -0.390  12.514  18.607  0.00  0.00    +0.000 A 
ATOM      9  N   UNL     1      -0.738  13.852  18.728  0.00  0.00    +0.000 N 
ATOM     10  C   UNL     1       0.433  14.608  18.857  0.00  0.00    +0.000 A 
ATOM     11  O   UNL     1       0.506  15.818  18.983  0.00  0.00    +0.000 OA
ATOM     12  N   UNL     1       1.504  13.701  18.812  0.00  0.00    +0.000 N 
ATOM     13  C   UNL     1       1.000  12.412  18.664  0.00  0.00    +0.000 A 
ATOM     14  C   UNL     1       1.662  11.203  18.573  0.00  0.00    +0.000 A 
ATOM     15  H   UNL     1      -1.668  14.240  18.730  0.00  0.00    +0.000 HD
ATOM     16  H   UNL     1       2.469  13.976  18.875  0.00  0.00    +0.000 HD
ENDBRANCH   3   5
BRANCH   2  17
ATOM     17  C   UNL     1       2.588   6.759  18.976  0.00  0.00    +0.000 A 
ATOM     18  N   UNL     1       3.616   6.714  18.110  0.00  0.00    +0.000 NA
ATOM     19  N   UNL     1       4.005   5.403  18.090  0.00  0.00    +0.000 N 
ATOM     20  C   UNL     1       3.276   4.637  18.991  0.00  0.00    +0.000 A 
ATOM     21  C   UNL     1       2.322   5.477  19.536  0.00  0.00    +0.000 A 
ATOM     22  C   UNL     1       1.290   5.135  20.566  0.00  0.00    +0.000 C 
ATOM     23  C   UNL     1       0.730   3.728  20.397  0.00  0.00    +0.000 C 
ATOM     24  C   UNL     1       1.638   2.624  20.935  0.00  0.00    +0.000 C 
ATOM     25  C   UNL     1       3.144   2.844  20.777  0.00  0.00    +0.000 C 
ATOM     26  C   UNL     1       3.578   3.214  19.359  0.00  0.00    +0.000 C 
BRANCH  19  27
ATOM     27  C   UNL     1       5.101   5.000  17.271  0.00  0.00    +0.000 A 
ATOM     28  C   UNL     1       4.861   4.659  15.934  0.00  0.00    +0.000 A 
ATOM     29  C   UNL     1       5.933   4.387  15.081  0.00  0.00    +0.000 A 
ATOM     30  C   UNL     1       7.241   4.419  15.564  0.00  0.00    +0.000 A 
ATOM     31  C   UNL     1       7.481   4.701  16.905  0.00  0.00    +0.000 A 
ATOM     32  C   UNL     1       6.414   4.983  17.760  0.00  0.00    +0.000 A 
ENDBRANCH  19  27
ENDBRANCH   2  17
TORSDOF 3
ENDMDL
MODEL 2
REMARK VINA RESULT:      -9.3      2.218      2.287
REMARK  Name = 
REMARK  3 active torsions:
REMARK  status: ('A' for Active; 'I' for Inactive)
REMARK    1  A    between atoms: C_2  and  C_14
REMARK    2  A    between atoms: N_3  and  C_4
REMARK    3  A    between atoms: N_16  and  C_17
REMARK                            x       y       z     vdW  Elec       q    Type
REMARK                         _______ _______ _______ _____ _____    ______ ____
ROOT
ATOM      1  O   UNL     1       1.469   8.745  18.661  0.00  0.00    +0.000 OA
ATOM      2  C   UNL     1       1.836   7.944  19.520  0.00  0.00    +0.000 C 
ATOM      3  N   UNL     1       1.629   8.114  20.877  0.00  0.00    +0.000 N 
ATOM      4  H   UNL     1       2.116   7.449  21.475  0.00  0.00    +0.000 HD
ENDROOT
BRANCH   3   5
ATOM      5  C   UNL     1       0.899   9.180  21.451  0.00  0.00    +0.000 A 
ATOM      6  C   UNL     1       0.002   8.970  22.535  0.00  0.00    +0.000 A 
ATOM      7  C   UNL     1      -0.757   9.997  23.099  0.00  0.00    +0.000 A 
ATOM      8  C   UNL     1      -0.579  11.238  22.557  0.00  0.00    +0.000 A 
ATOM      9  N   UNL     1      -1.181  12.438  22.903  0.00  0.00    +0.000 N 
ATOM     10  C   UNL     1      -0.683  13.445  22.067  0.00  0.00    +0.000 A 
ATOM     11  O   UNL     1      -0.990  14.623  22.087  0.00  0.00    +0.000 OA
ATOM     12  N   UNL     1       0.238  12.830  21.203  0.00  0.00    +0.000 N 
ATOM     13  C   UNL     1       0.308  11.474  21.507  0.00  0.00    +0.000 A 
ATOM     14  C   UNL     1       1.068  10.472  20.935  0.00  0.00    +0.000 A 
ATOM     15  H   UNL     1      -1.862  12.589  23.631  0.00  0.00    +0.000 HD
ATOM     16  H   UNL     1       0.745  13.323  20.489  0.00  0.00    +0.000 HD
ENDBRANCH   3   5
BRANCH   2  17
ATOM     17  C   UNL     1       2.566   6.729  19.126  0.00  0.00    +0.000 A 
ATOM     18  N   UNL     1       3.606   6.736  18.272  0.00  0.00    +0.000 NA
ATOM     19  N   UNL     1       4.017   5.433  18.204  0.00  0.00    +0.000 N 
ATOM     20  C   UNL     1       3.290   4.620  19.064  0.00  0.00    +0.000 A 
ATOM     21  C   UNL     1       2.316   5.421  19.630  0.00  0.00    +0.000 A 
ATOM     22  C   UNL     1       1.277   5.020  20.633  0.00  0.00    +0.000 C 
ATOM     23  C   UNL     1       0.743   3.613  20.401  0.00  0.00    +0.000 C 
ATOM     24  C   UNL     1       1.663   2.503  20.905  0.00  0.00    +0.000 C 
ATOM     25  C   UNL     1       3.166   2.753  20.774  0.00  0.00    +0.000 C 
ATOM     26  C   UNL     1       3.611   3.187  19.378  0.00  0.00    +0.000 C 
BRANCH  19  27
ATOM     27  C   UNL     1       5.128   5.081  17.383  0.00  0.00    +0.000 A 
ATOM     28  C   UNL     1       4.949   4.991  15.997  0.00  0.00    +0.000 A 
ATOM     29  C   UNL     1       6.049   4.776  15.164  0.00  0.00    +0.000 A 
ATOM     30  C   UNL     1       7.323   4.615  15.709  0.00  0.00    +0.000 A 
ATOM     31  C   UNL     1       7.498   4.646  17.090  0.00  0.00    +0.000 A 
ATOM     32  C   UNL     1       6.403   4.871  17.926  0.00  0.00    +0.000 A 
ENDBRANCH  19  27
ENDBRANCH   2  17
TORSDOF 3
ENDMDL
MODEL 3
REMARK VINA RESULT:      -9.2      1.107      1.559
REMARK  Name = 
REMARK  3 active torsions:
REMARK  status: ('A' for Active; 'I' for Inactive)
REMARK    1  A    between atoms: C_2  and  C_14
REMARK    2  A    between atoms: N_3  and  C_4
REMARK    3  A    between atoms: N_16  and  C_17
REMARK                            x       y       z     vdW  Elec       q    Type
REMARK                         _______ _______ _______ _____ _____    ______ ____
ROOT
ATOM      1  O   UNL     1       1.812   8.086  20.686  0.00  0.00    +0.000 OA
ATOM      2  C   UNL     1       2.029   7.917  19.486  0.00  0.00    +0.000 C 
ATOM      3  N   UNL     1       1.677   8.821  18.500  0.00  0.00    +0.000 N 
ATOM      4  H   UNL     1       1.783   8.484  17.546  0.00  0.00    +0.000 HD
ENDROOT
BRANCH   3   5
ATOM      5  C   UNL     1       1.103  10.091  18.742  0.00  0.00    +0.000 A 
ATOM      6  C   UNL     1       1.810  11.293  18.460  0.00  0.00    +0.000 A 
ATOM      7  C   UNL     1       1.282  12.559  18.721  0.00  0.00    +0.000 A 
ATOM      8  C   UNL     1       0.025  12.584  19.254  0.00  0.00    +0.000 A 
ATOM      9  N   UNL     1      -0.752  13.676  19.612  0.00  0.00    +0.000 N 
ATOM     10  C   UNL     1      -1.972  13.210  20.117  0.00  0.00    +0.000 A 
ATOM     11  O   UNL     1      -2.896  13.889  20.526  0.00  0.00    +0.000 OA
ATOM     12  N   UNL     1      -1.921  11.807  20.058  0.00  0.00    +0.000 N 
ATOM     13  C   UNL     1      -0.695  11.421  19.522  0.00  0.00    +0.000 A 
ATOM     14  C   UNL     1      -0.192  10.159  19.272  0.00  0.00    +0.000 A 
ATOM     15  H   UNL     1      -0.507  14.650  19.530  0.00  0.00    +0.000 HD
ATOM     16  H   UNL     1      -2.668  11.210  20.367  0.00  0.00    +0.000 HD
ENDBRANCH   3   5
BRANCH   2  17
ATOM     17  C   UNL     1       2.676   6.679  19.024  0.00  0.00    +0.000 A 
ATOM     18  N   UNL     1       3.653   6.657  18.099  0.00  0.00    +0.000 NA
ATOM     19  N   UNL     1       4.001   5.339  17.984  0.00  0.00    +0.000 N 
ATOM     20  C   UNL     1       3.300   4.543  18.881  0.00  0.00    +0.000 A 
ATOM     21  C   UNL     1       2.404   5.375  19.525  0.00  0.00    +0.000 A 
ATOM     22  C   UNL     1       1.420   5.001  20.592  0.00  0.00    +0.000 C 
ATOM     23  C   UNL     1       0.810   3.622  20.377  0.00  0.00    +0.000 C 
ATOM     24  C   UNL     1       1.713   2.466  20.800  0.00  0.00    +0.000 C 
ATOM     25  C   UNL     1       3.213   2.654  20.568  0.00  0.00    +0.000 C 
ATOM     26  C   UNL     1       3.579   3.093  19.151  0.00  0.00    +0.000 C 
BRANCH  19  27
ATOM     27  C   UNL     1       5.037   4.955  17.083  0.00  0.00    +0.000 A 
ATOM     28  C   UNL     1       4.698   4.579  15.777  0.00  0.00    +0.000 A 
ATOM     29  C   UNL     1       5.703   4.324  14.841  0.00  0.00    +0.000 A 
ATOM     30  C   UNL     1       7.045   4.407  15.211  0.00  0.00    +0.000 A 
ATOM     31  C   UNL     1       7.387   4.724  16.523  0.00  0.00    +0.000 A 
ATOM     32  C   UNL     1       6.387   4.989  17.459  0.00  0.00    +0.000 A 
ENDBRANCH  19  27
ENDBRANCH   2  17
TORSDOF 3
ENDMDL
MODEL 4
REMARK VINA RESULT:      -8.7      2.423      2.616
REMARK  Name = 
REMARK  3 active torsions:
REMARK  status: ('A' for Active; 'I' for Inactive)
REMARK    1  A    between atoms: C_2  and  C_14
REMARK    2  A    between atoms: N_3  and  C_4
REMARK    3  A    between atoms: N_16  and  C_17
REMARK                            x       y       z     vdW  Elec       q    Type
REMARK                         _______ _______ _______ _____ _____    ______ ____
ROOT
ATOM      1  O   UNL     1       1.441   8.730  18.020  0.00  0.00    +0.000 OA
ATOM      2  C   UNL     1       1.828   8.075  18.988  0.00  0.00    +0.000 C 
ATOM      3  N   UNL     1       1.648   8.456  20.304  0.00  0.00    +0.000 N 
ATOM      4  H   UNL     1       2.149   7.895  20.990  0.00  0.00    +0.000 HD
ENDROOT
BRANCH   3   5
ATOM      5  C   UNL     1       0.924   9.599  20.718  0.00  0.00    +0.000 A 
ATOM      6  C   UNL     1       1.089  10.857  20.075  0.00  0.00    +0.000 A 
ATOM      7  C   UNL     1       0.414  12.009  20.484  0.00  0.00    +0.000 A 
ATOM      8  C   UNL     1      -0.439  11.859  21.539  0.00  0.00    +0.000 A 
ATOM      9  N   UNL     1      -1.239  12.807  22.160  0.00  0.00    +0.000 N 
ATOM     10  C   UNL     1      -1.943  12.187  23.198  0.00  0.00    +0.000 A 
ATOM     11  O   UNL     1      -2.738  12.716  23.955  0.00  0.00    +0.000 OA
ATOM     12  N   UNL     1      -1.553  10.837  23.198  0.00  0.00    +0.000 N 
ATOM     13  C   UNL     1      -0.632  10.633  22.174  0.00  0.00    +0.000 A 
ATOM     14  C   UNL     1       0.025   9.481  21.786  0.00  0.00    +0.000 A 
ATOM     15  H   UNL     1      -1.323  13.783  21.920  0.00  0.00    +0.000 HD
ATOM     16  H   UNL     1      -1.902  10.157  23.851  0.00  0.00    +0.000 HD
ENDBRANCH   3   5
BRANCH   2  17
ATOM     17  C   UNL     1       2.556   6.813  18.775  0.00  0.00    +0.000 A 
ATOM     18  N   UNL     1       3.611   6.699  17.948  0.00  0.00    +0.000 NA
ATOM     19  N   UNL     1       4.013   5.397  18.065  0.00  0.00    +0.000 N 
ATOM     20  C   UNL     1       3.263   4.712  19.012  0.00  0.00    +0.000 A 
ATOM     21  C   UNL     1       2.286   5.587  19.446  0.00  0.00    +0.000 A 
ATOM     22  C   UNL     1       1.226   5.332  20.475  0.00  0.00    +0.000 C 
ATOM     23  C   UNL     1       0.685   3.909  20.424  0.00  0.00    +0.000 C 
ATOM     24  C   UNL     1       1.587   2.873  21.092  0.00  0.00    +0.000 C 
ATOM     25  C   UNL     1       3.094   3.094  20.957  0.00  0.00    +0.000 C 
ATOM     26  C   UNL     1       3.568   3.333  19.523  0.00  0.00    +0.000 C 
BRANCH  19  27
ATOM     27  C   UNL     1       5.136   4.932  17.320  0.00  0.00    +0.000 A 
ATOM     28  C   UNL     1       4.941   4.470  16.012  0.00  0.00    +0.000 A 
ATOM     29  C   UNL     1       6.042   4.132  15.221  0.00  0.00    +0.000 A 
ATOM     30  C   UNL     1       7.334   4.218  15.740  0.00  0.00    +0.000 A 
ATOM     31  C   UNL     1       7.529   4.621  17.058  0.00  0.00    +0.000 A 
ATOM     32  C   UNL     1       6.433   4.970  17.850  0.00  0.00    +0.000 A 
ENDBRANCH  19  27
ENDBRANCH   2  17
TORSDOF 3
ENDMDL
MODEL 5
REMARK VINA RESULT:      -8.6      5.278      6.510
REMARK  Name = 
REMARK  3 active torsions:
REMARK  status: ('A' for Active; 'I' for Inactive)
REMARK    1  A    between atoms: C_2  and  C_14
REMARK    2  A    between atoms: N_3  and  C_4
REMARK    3  A    between atoms: N_16  and  C_17
REMARK                            x       y       z     vdW  Elec       q    Type
REMARK                         _______ _______ _______ _____ _____    ______ ____
ROOT
ATOM      1  O   UNL     1       8.497   7.182  18.950  0.00  0.00    +0.000 OA
ATOM      2  C   UNL     1       7.817   7.552  17.993  0.00  0.00    +0.000 C 
ATOM      3  N   UNL     1       7.707   8.868  17.582  0.00  0.00    +0.000 N 
ATOM      4  H   UNL     1       6.996   9.042  16.874  0.00  0.00    +0.000 HD
ENDROOT
BRANCH   3   5
ATOM      5  C   UNL     1       8.423   9.948  18.147  0.00  0.00    +0.000 A 
ATOM      6  C   UNL     1       9.148   9.807  19.363  0.00  0.00    +0.000 A 
ATOM      7  C   UNL     1       9.835  10.864  19.962  0.00  0.00    +0.000 A 
ATOM      8  C   UNL     1       9.788  12.057  19.299  0.00  0.00    +0.000 A 
ATOM      9  N   UNL     1      10.368  13.271  19.640  0.00  0.00    +0.000 N 
ATOM     10  C   UNL     1      10.046  14.212  18.656  0.00  0.00    +0.000 A 
ATOM     11  O   UNL     1      10.386  15.381  18.629  0.00  0.00    +0.000 OA
ATOM     12  N   UNL     1       9.256  13.544  17.705  0.00  0.00    +0.000 N 
ATOM     13  C   UNL     1       9.102  12.218  18.097  0.00  0.00    +0.000 A 
ATOM     14  C   UNL     1       8.415  11.185  17.488  0.00  0.00    +0.000 A 
ATOM     15  H   UNL     1      10.934  13.468  20.451  0.00  0.00    +0.000 HD
ATOM     16  H   UNL     1       8.877  13.989  16.887  0.00  0.00    +0.000 HD
ENDBRANCH   3   5
BRANCH   2  17
ATOM     17  C   UNL     1       7.034   6.570  17.226  0.00  0.00    +0.000 A 
ATOM     18  N   UNL     1       7.291   6.261  15.941  0.00  0.00    +0.000 NA
ATOM     19  N   UNL     1       6.377   5.296  15.620  0.00  0.00    +0.000 N 
ATOM     20  C   UNL     1       5.595   4.945  16.713  0.00  0.00    +0.000 A 
ATOM     21  C   UNL     1       5.965   5.787  17.745  0.00  0.00    +0.000 A 
ATOM     22  C   UNL     1       5.422   5.808  19.142  0.00  0.00    +0.000 C 
ATOM     23  C   UNL     1       3.928   5.515  19.199  0.00  0.00    +0.000 C 
ATOM     24  C   UNL     1       3.576   4.034  19.082  0.00  0.00    +0.000 C 
ATOM     25  C   UNL     1       4.457   3.197  18.153  0.00  0.00    +0.000 C 
ATOM     26  C   UNL     1       4.637   3.789  16.756  0.00  0.00    +0.000 C 
BRANCH  19  27
ATOM     27  C   UNL     1       6.376   4.726  14.313  0.00  0.00    +0.000 A 
ATOM     28  C   UNL     1       7.451   4.990  13.455  0.00  0.00    +0.000 A 
ATOM     29  C   UNL     1       7.535   4.340  12.222  0.00  0.00    +0.000 A 
ATOM     30  C   UNL     1       6.533   3.455  11.824  0.00  0.00    +0.000 A 
ATOM     31  C   UNL     1       5.433   3.232  12.649  0.00  0.00    +0.000 A 
ATOM     32  C   UNL     1       5.350   3.872  13.886  0.00  0.00    +0.000 A 
ENDBRANCH  19  27
ENDBRANCH   2  17
TORSDOF 3
ENDMDL
MODEL 6
REMARK VINA RESULT:      -8.6      2.461      9.345
REMARK  Name = 
REMARK  3 active torsions:
REMARK  status: ('A' for Active; 'I' for Inactive)
REMARK    1  A    between atoms: C_2  and  C_14
REMARK    2  A    between atoms: N_3  and  C_4
REMARK    3  A    between atoms: N_16  and  C_17
REMARK                            x       y       z     vdW  Elec       q    Type
REMARK                         _______ _______ _______ _____ _____    ______ ____
ROOT
ATOM      1  O   UNL     1       1.655   8.622  20.053  0.00  0.00    +0.000 OA
ATOM      2  C   UNL     1       1.448   9.001  18.900  0.00  0.00    +0.000 C 
ATOM      3  N   UNL     1       2.043   8.445  17.782  0.00  0.00    +0.000 N 
ATOM      4  H   UNL     1       1.893   8.954  16.914  0.00  0.00    +0.000 HD
ENDROOT
BRANCH   3   5
ATOM      5  C   UNL     1       2.897   7.318  17.804  0.00  0.00    +0.000 A 
ATOM      6  C   UNL     1       2.427   6.035  18.203  0.00  0.00    +0.000 A 
ATOM      7  C   UNL     1       3.256   4.913  18.267  0.00  0.00    +0.000 A 
ATOM      8  C   UNL     1       4.557   5.110  17.904  0.00  0.00    +0.000 A 
ATOM      9  N   UNL     1       5.602   4.198  17.862  0.00  0.00    +0.000 N 
ATOM     10  C   UNL     1       6.755   4.860  17.425  0.00  0.00    +0.000 A 
ATOM     11  O   UNL     1       7.859   4.370  17.270  0.00  0.00    +0.000 OA
ATOM     12  N   UNL     1       6.390   6.198  17.202  0.00  0.00    +0.000 N 
ATOM     13  C   UNL     1       5.037   6.352  17.490  0.00  0.00    +0.000 A 
ATOM     14  C   UNL     1       4.235   7.475  17.420  0.00  0.00    +0.000 A 
ATOM     15  H   UNL     1       5.563   3.218  18.096  0.00  0.00    +0.000 HD
ATOM     16  H   UNL     1       7.033   6.905  16.888  0.00  0.00    +0.000 HD
ENDBRANCH   3   5
BRANCH   2  17
ATOM     17  C   UNL     1       0.538  10.131  18.652  0.00  0.00    +0.000 A 
ATOM     18  N   UNL     1      -0.782   9.983  18.438  0.00  0.00    +0.000 NA
ATOM     19  N   UNL     1      -1.261  11.255  18.291  0.00  0.00    +0.000 N 
ATOM     20  C   UNL     1      -0.265  12.204  18.481  0.00  0.00    +0.000 A 
ATOM     21  C   UNL     1       0.913  11.504  18.664  0.00  0.00    +0.000 A 
ATOM     22  C   UNL     1       2.278  12.068  18.916  0.00  0.00    +0.000 C 
ATOM     23  C   UNL     1       2.536  13.357  18.146  0.00  0.00    +0.000 C 
ATOM     24  C   UNL     1       1.904  14.598  18.772  0.00  0.00    +0.000 C 
ATOM     25  C   UNL     1       0.546  14.402  19.449  0.00  0.00    +0.000 C 
ATOM     26  C   UNL     1      -0.490  13.685  18.584  0.00  0.00    +0.000 C 
BRANCH  19  27
ATOM     27  C   UNL     1      -2.652  11.468  18.061  0.00  0.00    +0.000 A 
ATOM     28  C   UNL     1      -3.186  11.169  16.801  0.00  0.00    +0.000 A 
ATOM     29  C   UNL     1      -4.565  11.246  16.592  0.00  0.00    +0.000 A 
ATOM     30  C   UNL     1      -5.411  11.655  17.624  0.00  0.00    +0.000 A 
ATOM     31  C   UNL     1      -4.879  12.007  18.861  0.00  0.00    +0.000 A 
ATOM     32  C   UNL     1      -3.503  11.922  19.078  0.00  0.00    +0.000 A 
ENDBRANCH  19  27
ENDBRANCH   2  17
TORSDOF 3
ENDMDL
MODEL 7
REMARK VINA RESULT:      -8.5      2.369      9.466
REMARK  Name = 
REMARK  3 active torsions:
REMARK  status: ('A' for Active; 'I' for Inactive)
REMARK    1  A    between atoms: C_2  and  C_14
REMARK    2  A    between atoms: N_3  and  C_4
REMARK    3  A    between atoms: N_16  and  C_17
REMARK                            x       y       z     vdW  Elec       q    Type
REMARK                         _______ _______ _______ _____ _____    ______ ____
ROOT
ATOM      1  O   UNL     1       1.560   8.729  20.291  0.00  0.00    +0.000 OA
ATOM      2  C   UNL     1       1.401   9.068  19.118  0.00  0.00    +0.000 C 
ATOM      3  N   UNL     1       2.044   8.478  18.046  0.00  0.00    +0.000 N 
ATOM      4  H   UNL     1       1.930   8.958  17.156  0.00  0.00    +0.000 HD
ENDROOT
BRANCH   3   5
ATOM      5  C   UNL     1       2.901   7.357  18.141  0.00  0.00    +0.000 A 
ATOM      6  C   UNL     1       4.068   7.241  17.336  0.00  0.00    +0.000 A 
ATOM      7  C   UNL     1       4.913   6.130  17.384  0.00  0.00    +0.000 A 
ATOM      8  C   UNL     1       4.563   5.152  18.271  0.00  0.00    +0.000 A 
ATOM      9  N   UNL     1       5.199   3.950  18.543  0.00  0.00    +0.000 N 
ATOM     10  C   UNL     1       4.472   3.273  19.529  0.00  0.00    +0.000 A 
ATOM     11  O   UNL     1       4.738   2.187  20.011  0.00  0.00    +0.000 OA
ATOM     12  N   UNL     1       3.378   4.092  19.853  0.00  0.00    +0.000 N 
ATOM     13  C   UNL     1       3.435   5.250  19.084  0.00  0.00    +0.000 A 
ATOM     14  C   UNL     1       2.587   6.340  19.053  0.00  0.00    +0.000 A 
ATOM     15  H   UNL     1       6.044   3.600  18.119  0.00  0.00    +0.000 HD
ATOM     16  H   UNL     1       2.681   3.844  20.535  0.00  0.00    +0.000 HD
ENDBRANCH   3   5
BRANCH   2  17
ATOM     17  C   UNL     1       0.498  10.184  18.794  0.00  0.00    +0.000 A 
ATOM     18  N   UNL     1      -0.821  10.028  18.575  0.00  0.00    +0.000 NA
ATOM     19  N   UNL     1      -1.293  11.292  18.348  0.00  0.00    +0.000 N 
ATOM     20  C   UNL     1      -0.295  12.247  18.494  0.00  0.00    +0.000 A 
ATOM     21  C   UNL     1       0.878  11.555  18.730  0.00  0.00    +0.000 A 
ATOM     22  C   UNL     1       2.242  12.128  18.964  0.00  0.00    +0.000 C 
ATOM     23  C   UNL     1       2.513  13.369  18.123  0.00  0.00    +0.000 C 
ATOM     24  C   UNL     1       1.879  14.646  18.668  0.00  0.00    +0.000 C 
ATOM     25  C   UNL     1       0.514  14.495  19.341  0.00  0.00    +0.000 C 
ATOM     26  C   UNL     1      -0.515  13.732  18.507  0.00  0.00    +0.000 C 
BRANCH  19  27
ATOM     27  C   UNL     1      -2.681  11.495  18.090  0.00  0.00    +0.000 A 
ATOM     28  C   UNL     1      -3.187  11.196  16.819  0.00  0.00    +0.000 A 
ATOM     29  C   UNL     1      -4.562  11.263  16.582  0.00  0.00    +0.000 A 
ATOM     30  C   UNL     1      -5.431  11.663  17.597  0.00  0.00    +0.000 A 
ATOM     31  C   UNL     1      -4.927  12.016  18.846  0.00  0.00    +0.000 A 
ATOM     32  C   UNL     1      -3.555  11.941  19.090  0.00  0.00    +0.000 A 
ENDBRANCH  19  27
ENDBRANCH   2  17
TORSDOF 3
ENDMDL
MODEL 8
REMARK VINA RESULT:      -8.4      2.644      8.958
REMARK  Name = 
REMARK  3 active torsions:
REMARK  status: ('A' for Active; 'I' for Inactive)
REMARK    1  A    between atoms: C_2  and  C_14
REMARK    2  A    between atoms: N_3  and  C_4
REMARK    3  A    between atoms: N_16  and  C_17
REMARK                            x       y       z     vdW  Elec       q    Type
REMARK                         _______ _______ _______ _____ _____    ______ ____
ROOT
ATOM      1  O   UNL     1       1.097   8.559  17.410  0.00  0.00    +0.000 OA
ATOM      2  C   UNL     1       1.593   8.849  18.499  0.00  0.00    +0.000 C 
ATOM      3  N   UNL     1       2.468   8.034  19.193  0.00  0.00    +0.000 N 
ATOM      4  H   UNL     1       2.679   8.335  20.143  0.00  0.00    +0.000 HD
ENDROOT
BRANCH   3   5
ATOM      5  C   UNL     1       2.975   6.805  18.712  0.00  0.00    +0.000 A 
ATOM      6  C   UNL     1       3.866   6.750  17.604  0.00  0.00    +0.000 A 
ATOM      7  C   UNL     1       4.355   5.549  17.085  0.00  0.00    +0.000 A 
ATOM      8  C   UNL     1       3.940   4.412  17.718  0.00  0.00    +0.000 A 
ATOM      9  N   UNL     1       4.255   3.090  17.439  0.00  0.00    +0.000 N 
ATOM     10  C   UNL     1       3.592   2.269  18.359  0.00  0.00    +0.000 A 
ATOM     11  O   UNL     1       3.638   1.054  18.413  0.00  0.00    +0.000 OA
ATOM     12  N   UNL     1       2.866   3.122  19.207  0.00  0.00    +0.000 N 
ATOM     13  C   UNL     1       3.083   4.440  18.818  0.00  0.00    +0.000 A 
ATOM     14  C   UNL     1       2.588   5.617  19.346  0.00  0.00    +0.000 A 
ATOM     15  H   UNL     1       4.859   2.751  16.707  0.00  0.00    +0.000 HD
ATOM     16  H   UNL     1       2.288   2.795  19.962  0.00  0.00    +0.000 HD
ENDBRANCH   3   5
BRANCH   2  17
ATOM     17  C   UNL     1       1.241  10.120  19.150  0.00  0.00    +0.000 A 
ATOM     18  N   UNL     1       1.456  11.323  18.588  0.00  0.00    +0.000 NA
ATOM     19  N   UNL     1       0.961  12.228  19.486  0.00  0.00    +0.000 N 
ATOM     20  C   UNL     1       0.372  11.599  20.576  0.00  0.00    +0.000 A 
ATOM     21  C   UNL     1       0.585  10.244  20.407  0.00  0.00    +0.000 A 
ATOM     22  C   UNL     1       0.137   9.133  21.309  0.00  0.00    +0.000 C 
ATOM     23  C   UNL     1       0.205   9.506  22.784  0.00  0.00    +0.000 C 
ATOM     24  C   UNL     1      -0.959  10.370  23.265  0.00  0.00    +0.000 C 
ATOM     25  C   UNL     1      -1.504  11.395  22.268  0.00  0.00    +0.000 C 
ATOM     26  C   UNL     1      -0.434  12.287  21.639  0.00  0.00    +0.000 C 
BRANCH  19  27
ATOM     27  C   UNL     1       1.017  13.622  19.193  0.00  0.00    +0.000 A 
ATOM     28  C   UNL     1      -0.160  14.288  18.829  0.00  0.00    +0.000 A 
ATOM     29  C   UNL     1      -0.154  15.675  18.665  0.00  0.00    +0.000 A 
ATOM     30  C   UNL     1       1.028  16.397  18.827  0.00  0.00    +0.000 A 
ATOM     31  C   UNL     1       2.212  15.734  19.134  0.00  0.00    +0.000 A 
ATOM     32  C   UNL     1       2.210  14.348  19.309  0.00  0.00    +0.000 A 
ENDBRANCH  19  27
ENDBRANCH   2  17
TORSDOF 3
ENDMDL
MODEL 9
REMARK VINA RESULT:      -8.4      1.873      2.168
REMARK  Name = 
REMARK  3 active torsions:
REMARK  status: ('A' for Active; 'I' for Inactive)
REMARK    1  A    between atoms: C_2  and  C_14
REMARK    2  A    between atoms: N_3  and  C_4
REMARK    3  A    between atoms: N_16  and  C_17
REMARK                            x       y       z     vdW  Elec       q    Type
REMARK                         _______ _______ _______ _____ _____    ______ ____
ROOT
ATOM      1  O   UNL     1       1.632   7.709  21.239  0.00  0.00    +0.000 OA
ATOM      2  C   UNL     1       1.884   7.766  20.036  0.00  0.00    +0.000 C 
ATOM      3  N   UNL     1       1.528   8.823  19.218  0.00  0.00    +0.000 N 
ATOM      4  H   UNL     1       1.669   8.666  18.222  0.00  0.00    +0.000 HD
ENDROOT
BRANCH   3   5
ATOM      5  C   UNL     1       0.906  10.011  19.667  0.00  0.00    +0.000 A 
ATOM      6  C   UNL     1       0.758  11.141  18.815  0.00  0.00    +0.000 A 
ATOM      7  C   UNL     1       0.180  12.339  19.241  0.00  0.00    +0.000 A 
ATOM      8  C   UNL     1      -0.258  12.364  20.534  0.00  0.00    +0.000 A 
ATOM      9  N   UNL     1      -0.870  13.396  21.231  0.00  0.00    +0.000 N 
ATOM     10  C   UNL     1      -1.140  12.957  22.532  0.00  0.00    +0.000 A 
ATOM     11  O   UNL     1      -1.671  13.599  23.420  0.00  0.00    +0.000 OA
ATOM     12  N   UNL     1      -0.679  11.632  22.613  0.00  0.00    +0.000 N 
ATOM     13  C   UNL     1      -0.142  11.264  21.383  0.00  0.00    +0.000 A 
ATOM     14  C   UNL     1       0.427  10.070  20.982  0.00  0.00    +0.000 A 
ATOM     15  H   UNL     1      -1.097  14.314  20.882  0.00  0.00    +0.000 HD
ATOM     16  H   UNL     1      -0.741  11.072  23.445  0.00  0.00    +0.000 HD
ENDBRANCH   3   5
BRANCH   2  17
ATOM     17  C   UNL     1       2.584   6.650  19.380  0.00  0.00    +0.000 A 
ATOM     18  N   UNL     1       3.603   6.822  18.517  0.00  0.00    +0.000 NA
ATOM     19  N   UNL     1       3.990   5.557  18.171  0.00  0.00    +0.000 N 
ATOM     20  C   UNL     1       3.269   4.592  18.863  0.00  0.00    +0.000 A 
ATOM     21  C   UNL     1       2.323   5.270  19.609  0.00  0.00    +0.000 A 
ATOM     22  C   UNL     1       1.303   4.683  20.536  0.00  0.00    +0.000 C 
ATOM     23  C   UNL     1       0.739   3.360  20.032  0.00  0.00    +0.000 C 
ATOM     24  C   UNL     1       1.652   2.159  20.271  0.00  0.00    +0.000 C 
ATOM     25  C   UNL     1       3.156   2.413  20.154  0.00  0.00    +0.000 C 
ATOM     26  C   UNL     1       3.574   3.122  18.866  0.00  0.00    +0.000 C 
BRANCH  19  27
ATOM     27  C   UNL     1       5.075   5.369  17.265  0.00  0.00    +0.000 A 
ATOM     28  C   UNL     1       6.314   4.949  17.765  0.00  0.00    +0.000 A 
ATOM     29  C   UNL     1       7.351   4.635  16.885  0.00  0.00    +0.000 A 
ATOM     30  C   UNL     1       7.170   4.772  15.508  0.00  0.00    +0.000 A 
ATOM     31  C   UNL     1       5.960   5.244  15.009  0.00  0.00    +0.000 A 
ATOM     32  C   UNL     1       4.917   5.550  15.884  0.00  0.00    +0.000 A 
ENDBRANCH  19  27
ENDBRANCH   2  17
TORSDOF 3
ENDMDL
