MODEL 1
REMARK VINA RESULT:      -8.2      0.000      0.000
REMARK  Name = 
REMARK  2 active torsions:
REMARK  status: ('A' for Active; 'I' for Inactive)
REMARK    1  A    between atoms: C_2  and  C_13
REMARK    2  A    between atoms: N_3  and  C_4
REMARK                            x       y       z     vdW  Elec       q    Type
REMARK                         _______ _______ _______ _____ _____    ______ ____
ROOT
ATOM      1  O   UNL     1       2.245   8.711  17.346  0.00  0.00    +0.000 OA
ATOM      2  C   UNL     1       2.266   8.144  18.433  0.00  0.00    +0.000 C 
ATOM      3  N   UNL     1       2.912   6.961  18.741  0.00  0.00    +0.000 N 
ATOM      4  H   UNL     1       2.631   6.502  19.599  0.00  0.00    +0.000 HD
ENDROOT
BRANCH   3   5
ATOM      5  C   UNL     1       3.753   6.209  17.888  0.00  0.00    +0.000 A 
ATOM      6  C   UNL     1       3.425   4.871  17.487  0.00  0.00    +0.000 A 
ATOM      7  C   UNL     1       4.237   4.055  16.668  0.00  0.00    +0.000 A 
ATOM      8  C   UNL     1       5.393   4.723  16.302  0.00  0.00    +0.000 A 
ATOM      9  C   UNL     1       6.400   4.208  15.537  0.00  0.00    +0.000 A 
ATOM     10  N   UNL     1       7.318   5.216  15.456  0.00  0.00    +0.000 N 
ATOM     11  N   UNL     1       6.965   6.347  16.102  0.00  0.00    +0.000 NA
ATOM     12  C   UNL     1       5.769   6.067  16.650  0.00  0.00    +0.000 A 
ATOM     13  C   UNL     1       4.934   6.862  17.453  0.00  0.00    +0.000 A 
ATOM     14  H   UNL     1       8.212   5.203  14.978  0.00  0.00    +0.000 HD
ENDBRANCH   3   5
BRANCH   2  15
ATOM     15  C   UNL     1       1.431   8.698  19.529  0.00  0.00    +0.000 A 
ATOM     16  C   UNL     1       1.521   8.237  20.852  0.00  0.00    +0.000 A 
ATOM     17  C   UNL     1       0.697   8.763  21.846  0.00  0.00    +0.000 A 
ATOM     18  C   UNL     1      -0.238   9.763  21.546  0.00  0.00    +0.000 A 
ATOM     19  C   UNL     1      -0.334  10.253  20.228  0.00  0.00    +0.000 A 
ATOM     20  C   UNL     1      -1.145  11.231  19.590  0.00  0.00    +0.000 A 
ATOM     21  C   UNL     1      -0.779  11.282  18.264  0.00  0.00    +0.000 A 
ATOM     22  N   UNL     1       0.235  10.381  18.075  0.00  0.00    +0.000 N 
ATOM     23  C   UNL     1       0.510   9.722  19.254  0.00  0.00    +0.000 A 
ATOM     24  H   UNL     1       0.739  10.215  17.210  0.00  0.00    +0.000 HD
ENDBRANCH   2  15
TORSDOF 2
ENDMDL
MODEL 2
REMARK VINA RESULT:      -7.8      2.851      3.334
REMARK  Name = 
REMARK  2 active torsions:
REMARK  status: ('A' for Active; 'I' for Inactive)
REMARK    1  A    between atoms: C_2  and  C_13
REMARK    2  A    between atoms: N_3  and  C_4
REMARK                            x       y       z     vdW  Elec       q    Type
REMARK                         _______ _______ _______ _____ _____    ______ ____
ROOT
ATOM      1  O   UNL     1       1.966   8.286  19.061  0.00  0.00    +0.000 OA
ATOM      2  C   UNL     1       1.575   7.930  20.168  0.00  0.00    +0.000 C 
ATOM      3  N   UNL     1       1.646   6.658  20.705  0.00  0.00    +0.000 N 
ATOM      4  H   UNL     1       1.064   6.475  21.513  0.00  0.00    +0.000 HD
ENDROOT
BRANCH   3   5
ATOM      5  C   UNL     1       2.263   5.526  20.121  0.00  0.00    +0.000 A 
ATOM      6  C   UNL     1       3.626   5.553  19.673  0.00  0.00    +0.000 A 
ATOM      7  C   UNL     1       4.289   4.472  19.051  0.00  0.00    +0.000 A 
ATOM      8  C   UNL     1       3.445   3.381  18.932  0.00  0.00    +0.000 A 
ATOM      9  C   UNL     1       3.766   2.188  18.351  0.00  0.00    +0.000 A 
ATOM     10  N   UNL     1       2.629   1.440  18.456  0.00  0.00    +0.000 N 
ATOM     11  N   UNL     1       1.605   2.062  19.077  0.00  0.00    +0.000 NA
ATOM     12  C   UNL     1       2.081   3.283  19.378  0.00  0.00    +0.000 A 
ATOM     13  C   UNL     1       1.452   4.369  20.010  0.00  0.00    +0.000 A 
ATOM     14  H   UNL     1       2.476   0.494  18.125  0.00  0.00    +0.000 HD
ENDBRANCH   3   5
BRANCH   2  15
ATOM     15  C   UNL     1       0.844   8.916  21.004  0.00  0.00    +0.000 A 
ATOM     16  C   UNL     1       0.821   8.845  22.406  0.00  0.00    +0.000 A 
ATOM     17  C   UNL     1       0.099   9.774  23.154  0.00  0.00    +0.000 A 
ATOM     18  C   UNL     1      -0.622  10.797  22.522  0.00  0.00    +0.000 A 
ATOM     19  C   UNL     1      -0.600  10.897  21.116  0.00  0.00    +0.000 A 
ATOM     20  C   UNL     1      -1.197  11.779  20.175  0.00  0.00    +0.000 A 
ATOM     21  C   UNL     1      -0.806  11.382  18.917  0.00  0.00    +0.000 A 
ATOM     22  N   UNL     1       0.019  10.298  19.058  0.00  0.00    +0.000 N 
ATOM     23  C   UNL     1       0.142   9.966  20.391  0.00  0.00    +0.000 A 
ATOM     24  H   UNL     1       0.495   9.803  18.312  0.00  0.00    +0.000 HD
ENDBRANCH   2  15
TORSDOF 2
ENDMDL
MODEL 3
REMARK VINA RESULT:      -7.7      2.613      7.530
REMARK  Name = 
REMARK  2 active torsions:
REMARK  status: ('A' for Active; 'I' for Inactive)
REMARK    1  A    between atoms: C_2  and  C_13
REMARK    2  A    between atoms: N_3  and  C_4
REMARK                            x       y       z     vdW  Elec       q    Type
REMARK                         _______ _______ _______ _____ _____    ______ ____
ROOT
ATOM      1  O   UNL     1       2.196   7.524  19.722  0.00  0.00    +0.000 OA
ATOM      2  C   UNL     1       2.499   7.650  18.540  0.00  0.00    +0.000 C 
ATOM      3  N   UNL     1       2.109   8.665  17.686  0.00  0.00    +0.000 N 
ATOM      4  H   UNL     1       2.234   8.496  16.695  0.00  0.00    +0.000 HD
ENDROOT
BRANCH   3   5
ATOM      5  C   UNL     1       1.352   9.811  18.024  0.00  0.00    +0.000 A 
ATOM      6  C   UNL     1       1.975  11.041  18.424  0.00  0.00    +0.000 A 
ATOM      7  C   UNL     1       1.278  12.208  18.808  0.00  0.00    +0.000 A 
ATOM      8  C   UNL     1      -0.090  12.005  18.745  0.00  0.00    +0.000 A 
ATOM      9  C   UNL     1      -1.046  12.923  19.077  0.00  0.00    +0.000 A 
ATOM     10  N   UNL     1      -2.229  12.275  18.869  0.00  0.00    +0.000 N 
ATOM     11  N   UNL     1      -2.102  11.012  18.411  0.00  0.00    +0.000 NA
ATOM     12  C   UNL     1      -0.775  10.810  18.333  0.00  0.00    +0.000 A 
ATOM     13  C   UNL     1      -0.056   9.669  17.939  0.00  0.00    +0.000 A 
ATOM     14  H   UNL     1      -3.166  12.633  19.018  0.00  0.00    +0.000 HD
ENDBRANCH   3   5
BRANCH   2  15
ATOM     15  C   UNL     1       3.275   6.561  17.895  0.00  0.00    +0.000 A 
ATOM     16  C   UNL     1       4.484   6.794  17.221  0.00  0.00    +0.000 A 
ATOM     17  C   UNL     1       5.167   5.747  16.603  0.00  0.00    +0.000 A 
ATOM     18  C   UNL     1       4.661   4.441  16.640  0.00  0.00    +0.000 A 
ATOM     19  C   UNL     1       3.457   4.181  17.326  0.00  0.00    +0.000 A 
ATOM     20  C   UNL     1       2.679   3.014  17.556  0.00  0.00    +0.000 A 
ATOM     21  C   UNL     1       1.586   3.377  18.311  0.00  0.00    +0.000 A 
ATOM     22  N   UNL     1       1.678   4.721  18.560  0.00  0.00    +0.000 N 
ATOM     23  C   UNL     1       2.799   5.241  17.949  0.00  0.00    +0.000 A 
ATOM     24  H   UNL     1       1.040   5.274  19.121  0.00  0.00    +0.000 HD
ENDBRANCH   2  15
TORSDOF 2
ENDMDL
MODEL 4
REMARK VINA RESULT:      -7.7      2.622      3.019
REMARK  Name = 
REMARK  2 active torsions:
REMARK  status: ('A' for Active; 'I' for Inactive)
REMARK    1  A    between atoms: C_2  and  C_13
REMARK    2  A    between atoms: N_3  and  C_4
REMARK                            x       y       z     vdW  Elec       q    Type
REMARK                         _______ _______ _______ _____ _____    ______ ____
ROOT
ATOM      1  O   UNL     1       1.921   8.281  19.342  0.00  0.00    +0.000 OA
ATOM      2  C   UNL     1       1.380   8.003  20.406  0.00  0.00    +0.000 C 
ATOM      3  N   UNL     1       1.306   6.758  21.002  0.00  0.00    +0.000 N 
ATOM      4  H   UNL     1       0.622   6.649  21.740  0.00  0.00    +0.000 HD
ENDROOT
BRANCH   3   5
ATOM      5  C   UNL     1       1.917   5.565  20.546  0.00  0.00    +0.000 A 
ATOM      6  C   UNL     1       1.236   4.302  20.587  0.00  0.00    +0.000 A 
ATOM      7  C   UNL     1       1.801   3.072  20.182  0.00  0.00    +0.000 A 
ATOM      8  C   UNL     1       3.100   3.250  19.739  0.00  0.00    +0.000 A 
ATOM      9  C   UNL     1       3.935   2.260  19.305  0.00  0.00    +0.000 A 
ATOM     10  N   UNL     1       5.096   2.905  18.989  0.00  0.00    +0.000 N 
ATOM     11  N   UNL     1       5.061   4.241  19.175  0.00  0.00    +0.000 NA
ATOM     12  C   UNL     1       3.829   4.487  19.653  0.00  0.00    +0.000 A 
ATOM     13  C   UNL     1       3.236   5.699  20.047  0.00  0.00    +0.000 A 
ATOM     14  H   UNL     1       5.956   2.498  18.642  0.00  0.00    +0.000 HD
ENDBRANCH   3   5
BRANCH   2  15
ATOM     15  C   UNL     1       0.618   9.070  21.104  0.00  0.00    +0.000 A 
ATOM     16  C   UNL     1       0.429   9.074  22.496  0.00  0.00    +0.000 A 
ATOM     17  C   UNL     1      -0.318  10.079  23.109  0.00  0.00    +0.000 A 
ATOM     18  C   UNL     1      -0.898  11.104  22.351  0.00  0.00    +0.000 A 
ATOM     19  C   UNL     1      -0.709  11.129  20.954  0.00  0.00    +0.000 A 
ATOM     20  C   UNL     1      -1.140  11.991  19.910  0.00  0.00    +0.000 A 
ATOM     21  C   UNL     1      -0.631  11.508  18.726  0.00  0.00    +0.000 A 
ATOM     22  N   UNL     1       0.106  10.389  19.013  0.00  0.00    +0.000 N 
ATOM     23  C   UNL     1       0.055  10.122  20.365  0.00  0.00    +0.000 A 
ATOM     24  H   UNL     1       0.634   9.831  18.352  0.00  0.00    +0.000 HD
ENDBRANCH   2  15
TORSDOF 2
ENDMDL
MODEL 5
REMARK VINA RESULT:      -7.6      1.340      2.218
REMARK  Name = 
REMARK  2 active torsions:
REMARK  status: ('A' for Active; 'I' for Inactive)
REMARK    1  A    between atoms: C_2  and  C_13
REMARK    2  A    between atoms: N_3  and  C_4
REMARK                            x       y       z     vdW  Elec       q    Type
REMARK                         _______ _______ _______ _____ _____    ______ ____
ROOT
ATOM      1  O   UNL     1       2.296   6.749  19.987  0.00  0.00    +0.000 OA
ATOM      2  C   UNL     1       2.233   7.594  19.101  0.00  0.00    +0.000 C 
ATOM      3  N   UNL     1       2.963   7.623  17.926  0.00  0.00    +0.000 N 
ATOM      4  H   UNL     1       2.979   8.503  17.425  0.00  0.00    +0.000 HD
ENDROOT
BRANCH   3   5
ATOM      5  C   UNL     1       3.867   6.636  17.468  0.00  0.00    +0.000 A 
ATOM      6  C   UNL     1       3.541   5.238  17.496  0.00  0.00    +0.000 A 
ATOM      7  C   UNL     1       4.410   4.202  17.087  0.00  0.00    +0.000 A 
ATOM      8  C   UNL     1       5.619   4.718  16.654  0.00  0.00    +0.000 A 
ATOM      9  C   UNL     1       6.686   3.984  16.220  0.00  0.00    +0.000 A 
ATOM     10  N   UNL     1       7.639   4.913  15.916  0.00  0.00    +0.000 N 
ATOM     11  N   UNL     1       7.255   6.192  16.109  0.00  0.00    +0.000 NA
ATOM     12  C   UNL     1       5.999   6.103  16.581  0.00  0.00    +0.000 A 
ATOM     13  C   UNL     1       5.107   7.114  16.978  0.00  0.00    +0.000 A 
ATOM     14  H   UNL     1       8.578   4.748  15.572  0.00  0.00    +0.000 HD
ENDBRANCH   3   5
BRANCH   2  15
ATOM     15  C   UNL     1       1.376   8.785  19.327  0.00  0.00    +0.000 A 
ATOM     16  C   UNL     1       0.904   9.585  18.275  0.00  0.00    +0.000 A 
ATOM     17  C   UNL     1       0.126  10.713  18.532  0.00  0.00    +0.000 A 
ATOM     18  C   UNL     1      -0.201  11.073  19.847  0.00  0.00    +0.000 A 
ATOM     19  C   UNL     1       0.249  10.275  20.918  0.00  0.00    +0.000 A 
ATOM     20  C   UNL     1       0.110  10.343  22.331  0.00  0.00    +0.000 A 
ATOM     21  C   UNL     1       0.773   9.265  22.872  0.00  0.00    +0.000 A 
ATOM     22  N   UNL     1       1.298   8.535  21.839  0.00  0.00    +0.000 N 
ATOM     23  C   UNL     1       1.013   9.144  20.635  0.00  0.00    +0.000 A 
ATOM     24  H   UNL     1       1.811   7.664  21.917  0.00  0.00    +0.000 HD
ENDBRANCH   2  15
TORSDOF 2
ENDMDL
MODEL 6
REMARK VINA RESULT:      -7.5      2.830      2.916
REMARK  Name = 
REMARK  2 active torsions:
REMARK  status: ('A' for Active; 'I' for Inactive)
REMARK    1  A    between atoms: C_2  and  C_13
REMARK    2  A    between atoms: N_3  and  C_4
REMARK                            x       y       z     vdW  Elec       q    Type
REMARK                         _______ _______ _______ _____ _____    ______ ____
ROOT
ATOM      1  O   UNL     1       2.434   8.104  18.857  0.00  0.00    +0.000 OA
ATOM      2  C   UNL     1       1.814   7.703  19.837  0.00  0.00    +0.000 C 
ATOM      3  N   UNL     1       1.605   6.387  20.206  0.00  0.00    +0.000 N 
ATOM      4  H   UNL     1       0.875   6.219  20.887  0.00  0.00    +0.000 HD
ENDROOT
BRANCH   3   5
ATOM      5  C   UNL     1       2.137   5.237  19.576  0.00  0.00    +0.000 A 
ATOM      6  C   UNL     1       1.773   4.869  18.237  0.00  0.00    +0.000 A 
ATOM      7  C   UNL     1       2.240   3.717  17.565  0.00  0.00    +0.000 A 
ATOM      8  C   UNL     1       3.098   2.991  18.374  0.00  0.00    +0.000 A 
ATOM      9  C   UNL     1       3.700   1.812  18.037  0.00  0.00    +0.000 A 
ATOM     10  N   UNL     1       4.431   1.474  19.139  0.00  0.00    +0.000 N 
ATOM     11  N   UNL     1       4.353   2.360  20.154  0.00  0.00    +0.000 NA
ATOM     12  C   UNL     1       3.519   3.316  19.710  0.00  0.00    +0.000 A 
ATOM     13  C   UNL     1       3.052   4.478  20.348  0.00  0.00    +0.000 A 
ATOM     14  H   UNL     1       5.007   0.651  19.272  0.00  0.00    +0.000 HD
ENDBRANCH   3   5
BRANCH   2  15
ATOM     15  C   UNL     1       1.108   8.702  20.678  0.00  0.00    +0.000 A 
ATOM     16  C   UNL     1       1.142   8.665  22.081  0.00  0.00    +0.000 A 
ATOM     17  C   UNL     1       0.440   9.605  22.834  0.00  0.00    +0.000 A 
ATOM     18  C   UNL     1      -0.316  10.606  22.207  0.00  0.00    +0.000 A 
ATOM     19  C   UNL     1      -0.351  10.671  20.800  0.00  0.00    +0.000 A 
ATOM     20  C   UNL     1      -0.994  11.525  19.862  0.00  0.00    +0.000 A 
ATOM     21  C   UNL     1      -0.650  11.101  18.599  0.00  0.00    +0.000 A 
ATOM     22  N   UNL     1       0.191  10.028  18.733  0.00  0.00    +0.000 N 
ATOM     23  C   UNL     1       0.371   9.730  20.068  0.00  0.00    +0.000 A 
ATOM     24  H   UNL     1       0.642   9.519  17.981  0.00  0.00    +0.000 HD
ENDBRANCH   2  15
TORSDOF 2
ENDMDL
MODEL 7
REMARK VINA RESULT:      -7.5      2.597      7.336
REMARK  Name = 
REMARK  2 active torsions:
REMARK  status: ('A' for Active; 'I' for Inactive)
REMARK    1  A    between atoms: C_2  and  C_13
REMARK    2  A    between atoms: N_3  and  C_4
REMARK                            x       y       z     vdW  Elec       q    Type
REMARK                         _______ _______ _______ _____ _____    ______ ____
ROOT
ATOM      1  O   UNL     1       2.146   7.450  19.707  0.00  0.00    +0.000 OA
ATOM      2  C   UNL     1       2.478   7.611  18.538  0.00  0.00    +0.000 C 
ATOM      3  N   UNL     1       2.114   8.654  17.707  0.00  0.00    +0.000 N 
ATOM      4  H   UNL     1       2.262   8.515  16.715  0.00  0.00    +0.000 HD
ENDROOT
BRANCH   3   5
ATOM      5  C   UNL     1       1.356   9.795  18.063  0.00  0.00    +0.000 A 
ATOM      6  C   UNL     1      -0.075   9.753  18.160  0.00  0.00    +0.000 A 
ATOM      7  C   UNL     1      -0.892  10.862  18.476  0.00  0.00    +0.000 A 
ATOM      8  C   UNL     1      -0.123  11.995  18.680  0.00  0.00    +0.000 A 
ATOM      9  C   UNL     1      -0.604  13.240  18.973  0.00  0.00    +0.000 A 
ATOM     10  N   UNL     1       0.510  14.023  19.070  0.00  0.00    +0.000 N 
ATOM     11  N   UNL     1       1.673  13.367  18.876  0.00  0.00    +0.000 NA
ATOM     12  C   UNL     1       1.310  12.098  18.620  0.00  0.00    +0.000 A 
ATOM     13  C   UNL     1       2.099  10.974  18.320  0.00  0.00    +0.000 A 
ATOM     14  H   UNL     1       0.554  15.016  19.266  0.00  0.00    +0.000 HD
ENDBRANCH   3   5
BRANCH   2  15
ATOM     15  C   UNL     1       3.262   6.537  17.877  0.00  0.00    +0.000 A 
ATOM     16  C   UNL     1       4.453   6.793  17.179  0.00  0.00    +0.000 A 
ATOM     17  C   UNL     1       5.144   5.760  16.547  0.00  0.00    +0.000 A 
ATOM     18  C   UNL     1       4.664   4.444  16.594  0.00  0.00    +0.000 A 
ATOM     19  C   UNL     1       3.479   4.161  17.302  0.00  0.00    +0.000 A 
ATOM     20  C   UNL     1       2.729   2.979  17.547  0.00  0.00    +0.000 A 
ATOM     21  C   UNL     1       1.644   3.320  18.324  0.00  0.00    +0.000 A 
ATOM     22  N   UNL     1       1.715   4.666  18.572  0.00  0.00    +0.000 N 
ATOM     23  C   UNL     1       2.813   5.208  17.939  0.00  0.00    +0.000 A 
ATOM     24  H   UNL     1       1.077   5.206  19.146  0.00  0.00    +0.000 HD
ENDBRANCH   2  15
TORSDOF 2
ENDMDL
MODEL 8
REMARK VINA RESULT:      -7.5      2.645      7.811
REMARK  Name = 
REMARK  2 active torsions:
REMARK  status: ('A' for Active; 'I' for Inactive)
REMARK    1  A    between atoms: C_2  and  C_13
REMARK    2  A    between atoms: N_3  and  C_4
REMARK                            x       y       z     vdW  Elec       q    Type
REMARK                         _______ _______ _______ _____ _____    ______ ____
ROOT
ATOM      1  O   UNL     1       1.754   5.790  20.803  0.00  0.00    +0.000 OA
ATOM      2  C   UNL     1       2.166   6.455  19.859  0.00  0.00    +0.000 C 
ATOM      3  N   UNL     1       1.917   7.793  19.613  0.00  0.00    +0.000 N 
ATOM      4  H   UNL     1       2.117   8.126  18.678  0.00  0.00    +0.000 HD
ENDROOT
BRANCH   3   5
ATOM      5  C   UNL     1       1.208   8.688  20.448  0.00  0.00    +0.000 A 
ATOM      6  C   UNL     1       1.265   8.597  21.879  0.00  0.00    +0.000 A 
ATOM      7  C   UNL     1       0.553   9.435  22.767  0.00  0.00    +0.000 A 
ATOM      8  C   UNL     1      -0.204  10.359  22.068  0.00  0.00    +0.000 A 
ATOM      9  C   UNL     1      -1.028  11.295  22.625  0.00  0.00    +0.000 A 
ATOM     10  N   UNL     1      -1.564  11.957  21.558  0.00  0.00    +0.000 N 
ATOM     11  N   UNL     1      -1.132  11.524  20.356  0.00  0.00    +0.000 NA
ATOM     12  C   UNL     1      -0.287  10.517  20.641  0.00  0.00    +0.000 A 
ATOM     13  C   UNL     1       0.445   9.680  19.782  0.00  0.00    +0.000 A 
ATOM     14  H   UNL     1      -2.235  12.718  21.574  0.00  0.00    +0.000 HD
ENDBRANCH   3   5
BRANCH   2  15
ATOM     15  C   UNL     1       2.925   5.759  18.789  0.00  0.00    +0.000 A 
ATOM     16  C   UNL     1       3.854   6.421  17.971  0.00  0.00    +0.000 A 
ATOM     17  C   UNL     1       4.524   5.736  16.957  0.00  0.00    +0.000 A 
ATOM     18  C   UNL     1       4.282   4.374  16.732  0.00  0.00    +0.000 A 
ATOM     19  C   UNL     1       3.365   3.686  17.551  0.00  0.00    +0.000 A 
ATOM     20  C   UNL     1       2.892   2.346  17.602  0.00  0.00    +0.000 A 
ATOM     21  C   UNL     1       1.989   2.257  18.638  0.00  0.00    +0.000 A 
ATOM     22  N   UNL     1       1.906   3.490  19.228  0.00  0.00    +0.000 N 
ATOM     23  C   UNL     1       2.719   4.388  18.568  0.00  0.00    +0.000 A 
ATOM     24  H   UNL     1       1.350   3.732  20.041  0.00  0.00    +0.000 HD
ENDBRANCH   2  15
TORSDOF 2
ENDMDL
MODEL 9
REMARK VINA RESULT:      -7.5      2.151      7.528
REMARK  Name = 
REMARK  2 active torsions:
REMARK  status: ('A' for Active; 'I' for Inactive)
REMARK    1  A    between atoms: C_2  and  C_13
REMARK    2  A    between atoms: N_3  and  C_4
REMARK                            x       y       z     vdW  Elec       q    Type
REMARK                         _______ _______ _______ _____ _____    ______ ____
ROOT
ATOM      1  O   UNL     1       2.413   8.616  17.280  0.00  0.00    +0.000 OA
ATOM      2  C   UNL     1       2.628   7.753  18.124  0.00  0.00    +0.000 C 
ATOM      3  N   UNL     1       2.183   7.742  19.433  0.00  0.00    +0.000 N 
ATOM      4  H   UNL     1       2.645   7.098  20.063  0.00  0.00    +0.000 HD
ENDROOT
BRANCH   3   5
ATOM      5  C   UNL     1       1.316   8.681  20.039  0.00  0.00    +0.000 A 
ATOM      6  C   UNL     1       0.608   9.665  19.271  0.00  0.00    +0.000 A 
ATOM      7  C   UNL     1      -0.243  10.652  19.818  0.00  0.00    +0.000 A 
ATOM      8  C   UNL     1      -0.302  10.540  21.196  0.00  0.00    +0.000 A 
ATOM      9  C   UNL     1      -1.011  11.357  22.030  0.00  0.00    +0.000 A 
ATOM     10  N   UNL     1      -0.757  10.873  23.281  0.00  0.00    +0.000 N 
ATOM     11  N   UNL     1       0.053   9.794  23.309  0.00  0.00    +0.000 NA
ATOM     12  C   UNL     1       0.363   9.567  22.020  0.00  0.00    +0.000 A 
ATOM     13  C   UNL     1       1.190   8.586  21.448  0.00  0.00    +0.000 A 
ATOM     14  H   UNL     1      -1.101  11.230  24.166  0.00  0.00    +0.000 HD
ENDBRANCH   3   5
BRANCH   2  15
ATOM     15  C   UNL     1       3.549   6.643  17.773  0.00  0.00    +0.000 A 
ATOM     16  C   UNL     1       4.892   6.859  17.424  0.00  0.00    +0.000 A 
ATOM     17  C   UNL     1       5.717   5.791  17.073  0.00  0.00    +0.000 A 
ATOM     18  C   UNL     1       5.223   4.480  17.059  0.00  0.00    +0.000 A 
ATOM     19  C   UNL     1       3.883   4.237  17.422  0.00  0.00    +0.000 A 
ATOM     20  C   UNL     1       3.076   3.071  17.515  0.00  0.00    +0.000 A 
ATOM     21  C   UNL     1       1.823   3.456  17.934  0.00  0.00    +0.000 A 
ATOM     22  N   UNL     1       1.841   4.814  18.113  0.00  0.00    +0.000 N 
ATOM     23  C   UNL     1       3.081   5.319  17.784  0.00  0.00    +0.000 A 
ATOM     24  H   UNL     1       1.076   5.387  18.453  0.00  0.00    +0.000 HD
ENDBRANCH   2  15
TORSDOF 2
ENDMDL
