MODEL 1
REMARK VINA RESULT:      -9.2      0.000      0.000
REMARK  Name = 
REMARK  4 active torsions:
REMARK  status: ('A' for Active; 'I' for Inactive)
REMARK    1  A    between atoms: C_1  and  N_2
REMARK    2  A    between atoms: C_6  and  C_7
REMARK    3  A    between atoms: C_9  and  N_10
REMARK    4  A    between atoms: C_17  and  C_18
REMARK                            x       y       z     vdW  Elec       q    Type
REMARK                         _______ _______ _______ _____ _____    ______ ____
ROOT
ATOM      1  N   UNL     1       2.042   7.198  19.773  0.00  0.00    +0.000 N 
ATOM      2  C   UNL     1       1.364   7.687  20.973  0.00  0.00    +0.000 C 
ATOM      3  C   UNL     1       0.909   9.062  20.606  0.00  0.00    +0.000 A 
ATOM      4  C   UNL     1       1.308   9.343  19.304  0.00  0.00    +0.000 A 
ATOM      5  C   UNL     1       0.999  10.526  18.660  0.00  0.00    +0.000 A 
ATOM      6  C   UNL     1       0.253  11.467  19.365  0.00  0.00    +0.000 A 
ATOM      7  C   UNL     1      -0.150  11.207  20.688  0.00  0.00    +0.000 A 
ATOM      8  C   UNL     1       0.175   9.996  21.335  0.00  0.00    +0.000 A 
ATOM      9  C   UNL     1       2.038   8.189  18.776  0.00  0.00    +0.000 C 
ATOM     10  O   UNL     1       2.493   8.193  17.645  0.00  0.00    +0.000 OA
ENDROOT
BRANCH   1  13
ATOM     11  C   UNL     1       4.454   4.555  18.785  0.00  0.00    +0.000 C 
ATOM     12  C   UNL     1       3.905   5.759  19.053  0.00  0.00    +0.000 C 
ATOM     13  C   UNL     1       2.591   5.923  19.667  0.00  0.00    +0.000 C 
ATOM     14  C   UNL     1       1.999   4.827  20.177  0.00  0.00    +0.000 C 
ATOM     15  C   UNL     1       2.587   3.448  20.106  0.00  0.00    +0.000 C 
ATOM     16  C   UNL     1       3.671   3.290  19.039  0.00  0.00    +0.000 C 
BRANCH  11  22
ATOM     17  C   UNL     1       5.070   4.382  15.868  0.00  0.00    +0.000 C 
ATOM     18  N   UNL     1       6.030   4.475  16.937  0.00  0.00    +0.000 N 
ATOM     19  C   UNL     1       7.384   4.457  16.797  0.00  0.00    +0.000 A 
ATOM     20  N   UNL     1       7.947   4.560  17.977  0.00  0.00    +0.000 NA
ATOM     21  N   UNL     1       6.941   4.632  18.915  0.00  0.00    +0.000 NA
ATOM     22  C   UNL     1       5.786   4.570  18.285  0.00  0.00    +0.000 A 
ENDBRANCH  11  22
ENDBRANCH   1  13
BRANCH   8  23
ATOM     23  C   UNL     1      -0.278   9.758  22.752  0.00  0.00    +0.000 C 
ATOM     24  F   UNL     1       0.745   9.526  23.619  0.00  0.00    +0.000 F 
ATOM     25  F   UNL     1      -0.968  10.814  23.260  0.00  0.00    +0.000 F 
ATOM     26  F   UNL     1      -1.104   8.682  22.856  0.00  0.00    +0.000 F 
ENDBRANCH   8  23
TORSDOF 3
ENDMDL
MODEL 2
REMARK VINA RESULT:      -8.6      0.898      1.442
REMARK  Name = 
REMARK  4 active torsions:
REMARK  status: ('A' for Active; 'I' for Inactive)
REMARK    1  A    between atoms: C_1  and  N_2
REMARK    2  A    between atoms: C_6  and  C_7
REMARK    3  A    between atoms: C_9  and  N_10
REMARK    4  A    between atoms: C_17  and  C_18
REMARK                            x       y       z     vdW  Elec       q    Type
REMARK                         _______ _______ _______ _____ _____    ______ ____
ROOT
ATOM      1  N   UNL     1       2.282   7.269  19.322  0.00  0.00    +0.000 N 
ATOM      2  C   UNL     1       1.614   7.659  20.563  0.00  0.00    +0.000 C 
ATOM      3  C   UNL     1       1.057   9.015  20.273  0.00  0.00    +0.000 A 
ATOM      4  C   UNL     1       1.393   9.377  18.974  0.00  0.00    +0.000 A 
ATOM      5  C   UNL     1       0.986  10.564  18.393  0.00  0.00    +0.000 A 
ATOM      6  C   UNL     1       0.205  11.422  19.163  0.00  0.00    +0.000 A 
ATOM      7  C   UNL     1      -0.136  11.078  20.484  0.00  0.00    +0.000 A 
ATOM      8  C   UNL     1       0.289   9.866  21.065  0.00  0.00    +0.000 A 
ATOM      9  C   UNL     1       2.180   8.299  18.372  0.00  0.00    +0.000 C 
ATOM     10  O   UNL     1       2.596   8.383  17.229  0.00  0.00    +0.000 OA
ENDROOT
BRANCH   1  13
ATOM     11  C   UNL     1       4.309   4.645  17.652  0.00  0.00    +0.000 C 
ATOM     12  C   UNL     1       3.770   5.839  17.980  0.00  0.00    +0.000 C 
ATOM     13  C   UNL     1       2.910   6.039  19.142  0.00  0.00    +0.000 C 
ATOM     14  C   UNL     1       2.825   5.036  20.036  0.00  0.00    +0.000 C 
ATOM     15  C   UNL     1       3.520   3.716  19.881  0.00  0.00    +0.000 C 
ATOM     16  C   UNL     1       3.963   3.411  18.450  0.00  0.00    +0.000 C 
BRANCH  11  22
ATOM     17  C   UNL     1       7.266   4.852  18.008  0.00  0.00    +0.000 C 
ATOM     18  N   UNL     1       6.564   4.754  16.755  0.00  0.00    +0.000 N 
ATOM     19  C   UNL     1       7.132   4.783  15.518  0.00  0.00    +0.000 A 
ATOM     20  N   UNL     1       6.197   4.672  14.605  0.00  0.00    +0.000 NA
ATOM     21  N   UNL     1       4.987   4.584  15.255  0.00  0.00    +0.000 NA
ATOM     22  C   UNL     1       5.210   4.644  16.552  0.00  0.00    +0.000 A 
ENDBRANCH  11  22
ENDBRANCH   1  13
BRANCH   8  23
ATOM     23  C   UNL     1      -0.100   9.536  22.483  0.00  0.00    +0.000 C 
ATOM     24  F   UNL     1       0.963   9.283  23.295  0.00  0.00    +0.000 F 
ATOM     25  F   UNL     1      -0.793  10.545  23.078  0.00  0.00    +0.000 F 
ATOM     26  F   UNL     1      -0.895   8.436  22.559  0.00  0.00    +0.000 F 
ENDBRANCH   8  23
TORSDOF 3
ENDMDL
MODEL 3
REMARK VINA RESULT:      -8.5      1.394      1.679
REMARK  Name = 
REMARK  4 active torsions:
REMARK  status: ('A' for Active; 'I' for Inactive)
REMARK    1  A    between atoms: C_1  and  N_2
REMARK    2  A    between atoms: C_6  and  C_7
REMARK    3  A    between atoms: C_9  and  N_10
REMARK    4  A    between atoms: C_17  and  C_18
REMARK                            x       y       z     vdW  Elec       q    Type
REMARK                         _______ _______ _______ _____ _____    ______ ____
ROOT
ATOM      1  N   UNL     1       1.859   7.977  19.162  0.00  0.00    +0.000 N 
ATOM      2  C   UNL     1       1.265   8.144  20.489  0.00  0.00    +0.000 C 
ATOM      3  C   UNL     1       0.640   9.501  20.444  0.00  0.00    +0.000 A 
ATOM      4  C   UNL     1       0.871  10.069  19.196  0.00  0.00    +0.000 A 
ATOM      5  C   UNL     1       0.381  11.309  18.831  0.00  0.00    +0.000 A 
ATOM      6  C   UNL     1      -0.376  12.004  19.770  0.00  0.00    +0.000 A 
ATOM      7  C   UNL     1      -0.611  11.452  21.043  0.00  0.00    +0.000 A 
ATOM      8  C   UNL     1      -0.102  10.187  21.404  0.00  0.00    +0.000 A 
ATOM      9  C   UNL     1       1.653   9.131  18.389  0.00  0.00    +0.000 C 
ATOM     10  O   UNL     1       1.985   9.404  17.248  0.00  0.00    +0.000 OA
ENDROOT
BRANCH   1  13
ATOM     11  C   UNL     1       4.692   5.659  18.546  0.00  0.00    +0.000 C 
ATOM     12  C   UNL     1       3.946   6.680  19.020  0.00  0.00    +0.000 C 
ATOM     13  C   UNL     1       2.517   6.818  18.757  0.00  0.00    +0.000 C 
ATOM     14  C   UNL     1       1.881   5.772  18.198  0.00  0.00    +0.000 C 
ATOM     15  C   UNL     1       2.562   4.501  17.785  0.00  0.00    +0.000 C 
ATOM     16  C   UNL     1       4.077   4.632  17.626  0.00  0.00    +0.000 C 
BRANCH  11  22
ATOM     17  C   UNL     1       6.891   7.055  17.087  0.00  0.00    +0.000 C 
ATOM     18  N   UNL     1       7.032   6.259  18.278  0.00  0.00    +0.000 N 
ATOM     19  C   UNL     1       8.201   5.974  18.914  0.00  0.00    +0.000 A 
ATOM     20  N   UNL     1       7.957   5.224  19.962  0.00  0.00    +0.000 NA
ATOM     21  N   UNL     1       6.599   4.997  20.007  0.00  0.00    +0.000 NA
ATOM     22  C   UNL     1       6.045   5.614  18.983  0.00  0.00    +0.000 A 
ENDBRANCH  11  22
ENDBRANCH   1  13
BRANCH   8  23
ATOM     23  C   UNL     1      -0.379   9.632  22.777  0.00  0.00    +0.000 C 
ATOM     24  F   UNL     1      -0.987   8.414  22.759  0.00  0.00    +0.000 F 
ATOM     25  F   UNL     1       0.756   9.472  23.510  0.00  0.00    +0.000 F 
ATOM     26  F   UNL     1      -1.191  10.441  23.508  0.00  0.00    +0.000 F 
ENDBRANCH   8  23
TORSDOF 3
ENDMDL
MODEL 4
REMARK VINA RESULT:      -8.4      1.211      1.577
REMARK  Name = 
REMARK  4 active torsions:
REMARK  status: ('A' for Active; 'I' for Inactive)
REMARK    1  A    between atoms: C_1  and  N_2
REMARK    2  A    between atoms: C_6  and  C_7
REMARK    3  A    between atoms: C_9  and  N_10
REMARK    4  A    between atoms: C_17  and  C_18
REMARK                            x       y       z     vdW  Elec       q    Type
REMARK                         _______ _______ _______ _____ _____    ______ ____
ROOT
ATOM      1  N   UNL     1       1.789   7.952  19.221  0.00  0.00    +0.000 N 
ATOM      2  C   UNL     1       1.191   8.149  20.542  0.00  0.00    +0.000 C 
ATOM      3  C   UNL     1       0.720   9.567  20.526  0.00  0.00    +0.000 A 
ATOM      4  C   UNL     1       1.036  10.139  19.299  0.00  0.00    +0.000 A 
ATOM      5  C   UNL     1       0.692  11.434  18.960  0.00  0.00    +0.000 A 
ATOM      6  C   UNL     1      -0.002  12.184  19.906  0.00  0.00    +0.000 A 
ATOM      7  C   UNL     1      -0.321  11.627  21.159  0.00  0.00    +0.000 A 
ATOM      8  C   UNL     1       0.039  10.305  21.492  0.00  0.00    +0.000 A 
ATOM      9  C   UNL     1       1.725   9.142  18.478  0.00  0.00    +0.000 C 
ATOM     10  O   UNL     1       2.107   9.407  17.351  0.00  0.00    +0.000 OA
ENDROOT
BRANCH   1  13
ATOM     11  C   UNL     1       4.156   5.622  17.564  0.00  0.00    +0.000 C 
ATOM     12  C   UNL     1       3.623   6.726  18.131  0.00  0.00    +0.000 C 
ATOM     13  C   UNL     1       2.324   6.739  18.794  0.00  0.00    +0.000 C 
ATOM     14  C   UNL     1       1.732   5.554  19.033  0.00  0.00    +0.000 C 
ATOM     15  C   UNL     1       2.306   4.232  18.615  0.00  0.00    +0.000 C 
ATOM     16  C   UNL     1       3.367   4.336  17.518  0.00  0.00    +0.000 C 
BRANCH  11  22
ATOM     17  C   UNL     1       6.572   5.375  19.301  0.00  0.00    +0.000 C 
ATOM     18  N   UNL     1       6.564   5.646  17.887  0.00  0.00    +0.000 N 
ATOM     19  C   UNL     1       7.660   5.878  17.113  0.00  0.00    +0.000 A 
ATOM     20  N   UNL     1       7.283   6.089  15.874  0.00  0.00    +0.000 NA
ATOM     21  N   UNL     1       5.909   6.011  15.836  0.00  0.00    +0.000 NA
ATOM     22  C   UNL     1       5.477   5.753  17.055  0.00  0.00    +0.000 A 
ENDBRANCH  11  22
ENDBRANCH   1  13
BRANCH   8  23
ATOM     23  C   UNL     1      -0.324   9.747  22.844  0.00  0.00    +0.000 C 
ATOM     24  F   UNL     1       0.755   9.495  23.637  0.00  0.00    +0.000 F 
ATOM     25  F   UNL     1      -1.121  10.588  23.555  0.00  0.00    +0.000 F 
ATOM     26  F   UNL     1      -1.000   8.571  22.754  0.00  0.00    +0.000 F 
ENDBRANCH   8  23
TORSDOF 3
ENDMDL
MODEL 5
REMARK VINA RESULT:      -8.4      2.136      3.218
REMARK  Name = 
REMARK  4 active torsions:
REMARK  status: ('A' for Active; 'I' for Inactive)
REMARK    1  A    between atoms: C_1  and  N_2
REMARK    2  A    between atoms: C_6  and  C_7
REMARK    3  A    between atoms: C_9  and  N_10
REMARK    4  A    between atoms: C_17  and  C_18
REMARK                            x       y       z     vdW  Elec       q    Type
REMARK                         _______ _______ _______ _____ _____    ______ ____
ROOT
ATOM      1  N   UNL     1       1.940   8.595  18.975  0.00  0.00    +0.000 N 
ATOM      2  C   UNL     1       1.320   8.553  20.299  0.00  0.00    +0.000 C 
ATOM      3  C   UNL     1       0.670   9.891  20.445  0.00  0.00    +0.000 A 
ATOM      4  C   UNL     1       0.911  10.643  19.301  0.00  0.00    +0.000 A 
ATOM      5  C   UNL     1       0.404  11.915  19.114  0.00  0.00    +0.000 A 
ATOM      6  C   UNL     1      -0.382  12.450  20.131  0.00  0.00    +0.000 A 
ATOM      7  C   UNL     1      -0.629  11.710  21.302  0.00  0.00    +0.000 A 
ATOM      8  C   UNL     1      -0.102  10.414  21.481  0.00  0.00    +0.000 A 
ATOM      9  C   UNL     1       1.725   9.849  18.378  0.00  0.00    +0.000 C 
ATOM     10  O   UNL     1       2.071  10.295  17.298  0.00  0.00    +0.000 OA
ENDROOT
BRANCH   1  13
ATOM     11  C   UNL     1       2.810   5.060  18.253  0.00  0.00    +0.000 C 
ATOM     12  C   UNL     1       2.137   6.165  18.639  0.00  0.00    +0.000 C 
ATOM     13  C   UNL     1       2.627   7.521  18.416  0.00  0.00    +0.000 C 
ATOM     14  C   UNL     1       3.691   7.676  17.605  0.00  0.00    +0.000 C 
ATOM     15  C   UNL     1       4.426   6.537  16.962  0.00  0.00    +0.000 C 
ATOM     16  C   UNL     1       4.180   5.184  17.631  0.00  0.00    +0.000 C 
BRANCH  11  22
ATOM     17  C   UNL     1       3.913   2.912  20.009  0.00  0.00    +0.000 C 
ATOM     18  N   UNL     1       2.689   2.849  19.254  0.00  0.00    +0.000 N 
ATOM     19  C   UNL     1       1.850   1.780  19.182  0.00  0.00    +0.000 A 
ATOM     20  N   UNL     1       0.835   2.072  18.404  0.00  0.00    +0.000 NA
ATOM     21  N   UNL     1       1.019   3.356  17.942  0.00  0.00    +0.000 NA
ATOM     22  C   UNL     1       2.144   3.819  18.448  0.00  0.00    +0.000 A 
ENDBRANCH  11  22
ENDBRANCH   1  13
BRANCH   8  23
ATOM     23  C   UNL     1      -0.392   9.655  22.750  0.00  0.00    +0.000 C 
ATOM     24  F   UNL     1       0.713   9.427  23.513  0.00  0.00    +0.000 F 
ATOM     25  F   UNL     1      -1.274  10.308  23.554  0.00  0.00    +0.000 F 
ATOM     26  F   UNL     1      -0.935   8.432  22.509  0.00  0.00    +0.000 F 
ENDBRANCH   8  23
TORSDOF 3
ENDMDL
MODEL 6
REMARK VINA RESULT:      -8.2      1.008      1.029
REMARK  Name = 
REMARK  4 active torsions:
REMARK  status: ('A' for Active; 'I' for Inactive)
REMARK    1  A    between atoms: C_1  and  N_2
REMARK    2  A    between atoms: C_6  and  C_7
REMARK    3  A    between atoms: C_9  and  N_10
REMARK    4  A    between atoms: C_17  and  C_18
REMARK                            x       y       z     vdW  Elec       q    Type
REMARK                         _______ _______ _______ _____ _____    ______ ____
ROOT
ATOM      1  N   UNL     1       1.993   7.737  19.464  0.00  0.00    +0.000 N 
ATOM      2  C   UNL     1       1.366   8.050  20.748  0.00  0.00    +0.000 C 
ATOM      3  C   UNL     1       0.722   9.381  20.529  0.00  0.00    +0.000 A 
ATOM      4  C   UNL     1       0.974   9.801  19.228  0.00  0.00    +0.000 A 
ATOM      5  C   UNL     1       0.474  10.979  18.706  0.00  0.00    +0.000 A 
ATOM      6  C   UNL     1      -0.315  11.768  19.540  0.00  0.00    +0.000 A 
ATOM      7  C   UNL     1      -0.571  11.367  20.864  0.00  0.00    +0.000 A 
ATOM      8  C   UNL     1      -0.052  10.163  21.384  0.00  0.00    +0.000 A 
ATOM      9  C   UNL     1       1.788   8.787  18.555  0.00  0.00    +0.000 C 
ATOM     10  O   UNL     1       2.143   8.929  17.397  0.00  0.00    +0.000 OA
ENDROOT
BRANCH   1  13
ATOM     11  C   UNL     1       4.476   5.449  17.920  0.00  0.00    +0.000 C 
ATOM     12  C   UNL     1       3.836   6.567  18.327  0.00  0.00    +0.000 C 
ATOM     13  C   UNL     1       2.678   6.550  19.215  0.00  0.00    +0.000 C 
ATOM     14  C   UNL     1       2.370   5.387  19.818  0.00  0.00    +0.000 C 
ATOM     15  C   UNL     1       3.114   4.104  19.592  0.00  0.00    +0.000 C 
ATOM     16  C   UNL     1       3.951   4.089  18.312  0.00  0.00    +0.000 C 
BRANCH  11  22
ATOM     17  C   UNL     1       5.019   3.908  15.422  0.00  0.00    +0.000 C 
ATOM     18  N   UNL     1       5.873   4.908  16.007  0.00  0.00    +0.000 N 
ATOM     19  C   UNL     1       7.093   5.289  15.539  0.00  0.00    +0.000 A 
ATOM     20  N   UNL     1       7.589   6.221  16.318  0.00  0.00    +0.000 NA
ATOM     21  N   UNL     1       6.681   6.447  17.329  0.00  0.00    +0.000 NA
ATOM     22  C   UNL     1       5.651   5.646  17.144  0.00  0.00    +0.000 A 
ENDBRANCH  11  22
ENDBRANCH   1  13
BRANCH   8  23
ATOM     23  C   UNL     1      -0.353   9.769  22.807  0.00  0.00    +0.000 C 
ATOM     24  F   UNL     1       0.761   9.566  23.563  0.00  0.00    +0.000 F 
ATOM     25  F   UNL     1      -1.082  10.712  23.462  0.00  0.00    +0.000 F 
ATOM     26  F   UNL     1      -1.070   8.616  22.884  0.00  0.00    +0.000 F 
ENDBRANCH   8  23
TORSDOF 3
ENDMDL
MODEL 7
REMARK VINA RESULT:      -8.1      4.075      7.907
REMARK  Name = 
REMARK  4 active torsions:
REMARK  status: ('A' for Active; 'I' for Inactive)
REMARK    1  A    between atoms: C_1  and  N_2
REMARK    2  A    between atoms: C_6  and  C_7
REMARK    3  A    between atoms: C_9  and  N_10
REMARK    4  A    between atoms: C_17  and  C_18
REMARK                            x       y       z     vdW  Elec       q    Type
REMARK                         _______ _______ _______ _____ _____    ______ ____
ROOT
ATOM      1  N   UNL     1       2.295   7.020  19.511  0.00  0.00    +0.000 N 
ATOM      2  C   UNL     1       3.269   7.232  18.441  0.00  0.00    +0.000 C 
ATOM      3  C   UNL     1       3.611   5.854  17.975  0.00  0.00    +0.000 A 
ATOM      4  C   UNL     1       2.899   4.928  18.729  0.00  0.00    +0.000 A 
ATOM      5  C   UNL     1       2.967   3.565  18.509  0.00  0.00    +0.000 A 
ATOM      6  C   UNL     1       3.794   3.120  17.481  0.00  0.00    +0.000 A 
ATOM      7  C   UNL     1       4.533   4.040  16.715  0.00  0.00    +0.000 A 
ATOM      8  C   UNL     1       4.456   5.429  16.952  0.00  0.00    +0.000 A 
ATOM      9  C   UNL     1       2.084   5.646  19.711  0.00  0.00    +0.000 C 
ATOM     10  O   UNL     1       1.366   5.048  20.494  0.00  0.00    +0.000 OA
ENDROOT
BRANCH   1  13
ATOM     11  C   UNL     1       0.539  10.249  20.033  0.00  0.00    +0.000 C 
ATOM     12  C   UNL     1       1.040   9.137  19.454  0.00  0.00    +0.000 C 
ATOM     13  C   UNL     1       1.677   8.059  20.203  0.00  0.00    +0.000 C 
ATOM     14  C   UNL     1       1.568   8.082  21.545  0.00  0.00    +0.000 C 
ATOM     15  C   UNL     1       0.877   9.172  22.310  0.00  0.00    +0.000 C 
ATOM     16  C   UNL     1       0.697  10.468  21.519  0.00  0.00    +0.000 C 
BRANCH  11  22
ATOM     17  C   UNL     1       1.728  12.848  19.172  0.00  0.00    +0.000 C 
ATOM     18  N   UNL     1       0.430  12.345  18.809  0.00  0.00    +0.000 N 
ATOM     19  C   UNL     1      -0.492  12.992  18.044  0.00  0.00    +0.000 A 
ATOM     20  N   UNL     1      -1.560  12.242  17.918  0.00  0.00    +0.000 NA
ATOM     21  N   UNL     1      -1.343  11.083  18.628  0.00  0.00    +0.000 NA
ATOM     22  C   UNL     1      -0.145  11.152  19.173  0.00  0.00    +0.000 A 
ENDBRANCH  11  22
ENDBRANCH   1  13
BRANCH   8  23
ATOM     23  C   UNL     1       5.262   6.380  16.107  0.00  0.00    +0.000 C 
ATOM     24  F   UNL     1       6.121   7.154  16.826  0.00  0.00    +0.000 F 
ATOM     25  F   UNL     1       6.025   5.734  15.183  0.00  0.00    +0.000 F 
ATOM     26  F   UNL     1       4.477   7.245  15.410  0.00  0.00    +0.000 F 
ENDBRANCH   8  23
TORSDOF 3
ENDMDL
MODEL 8
REMARK VINA RESULT:      -7.9      3.620      7.609
REMARK  Name = 
REMARK  4 active torsions:
REMARK  status: ('A' for Active; 'I' for Inactive)
REMARK    1  A    between atoms: C_1  and  N_2
REMARK    2  A    between atoms: C_6  and  C_7
REMARK    3  A    between atoms: C_9  and  N_10
REMARK    4  A    between atoms: C_17  and  C_18
REMARK                            x       y       z     vdW  Elec       q    Type
REMARK                         _______ _______ _______ _____ _____    ______ ____
ROOT
ATOM      1  N   UNL     1       2.299   7.044  19.287  0.00  0.00    +0.000 N 
ATOM      2  C   UNL     1       2.155   5.615  19.562  0.00  0.00    +0.000 C 
ATOM      3  C   UNL     1       3.026   4.954  18.542  0.00  0.00    +0.000 A 
ATOM      4  C   UNL     1       3.609   5.928  17.740  0.00  0.00    +0.000 A 
ATOM      5  C   UNL     1       4.503   5.634  16.727  0.00  0.00    +0.000 A 
ATOM      6  C   UNL     1       4.820   4.295  16.517  0.00  0.00    +0.000 A 
ATOM      7  C   UNL     1       4.231   3.293  17.311  0.00  0.00    +0.000 A 
ATOM      8  C   UNL     1       3.318   3.607  18.339  0.00  0.00    +0.000 A 
ATOM      9  C   UNL     1       3.145   7.244  18.184  0.00  0.00    +0.000 C 
ATOM     10  O   UNL     1       3.518   8.265  17.631  0.00  0.00    +0.000 OA
ENDROOT
BRANCH   1  13
ATOM     11  C   UNL     1       0.578  10.252  20.014  0.00  0.00    +0.000 C 
ATOM     12  C   UNL     1       1.078   9.180  19.362  0.00  0.00    +0.000 C 
ATOM     13  C   UNL     1       1.678   8.037  20.042  0.00  0.00    +0.000 C 
ATOM     14  C   UNL     1       1.533   7.957  21.377  0.00  0.00    +0.000 C 
ATOM     15  C   UNL     1       0.837   8.995  22.208  0.00  0.00    +0.000 C 
ATOM     16  C   UNL     1       0.699  10.352  21.516  0.00  0.00    +0.000 C 
BRANCH  11  22
ATOM     17  C   UNL     1       1.870  12.849  19.308  0.00  0.00    +0.000 C 
ATOM     18  N   UNL     1       0.553  12.420  18.916  0.00  0.00    +0.000 N 
ATOM     19  C   UNL     1      -0.341  13.147  18.192  0.00  0.00    +0.000 A 
ATOM     20  N   UNL     1      -1.438  12.448  18.022  0.00  0.00    +0.000 NA
ATOM     21  N   UNL     1      -1.267  11.241  18.662  0.00  0.00    +0.000 NA
ATOM     22  C   UNL     1      -0.069  11.230  19.209  0.00  0.00    +0.000 A 
ENDBRANCH  11  22
ENDBRANCH   1  13
BRANCH   8  23
ATOM     23  C   UNL     1       2.712   2.503  19.166  0.00  0.00    +0.000 C 
ATOM     24  F   UNL     1       3.069   2.548  20.480  0.00  0.00    +0.000 F 
ATOM     25  F   UNL     1       1.352   2.527  19.148  0.00  0.00    +0.000 F 
ATOM     26  F   UNL     1       3.074   1.268  18.726  0.00  0.00    +0.000 F 
ENDBRANCH   8  23
TORSDOF 3
ENDMDL
MODEL 9
REMARK VINA RESULT:      -7.9      3.228      7.607
REMARK  Name = 
REMARK  4 active torsions:
REMARK  status: ('A' for Active; 'I' for Inactive)
REMARK    1  A    between atoms: C_1  and  N_2
REMARK    2  A    between atoms: C_6  and  C_7
REMARK    3  A    between atoms: C_9  and  N_10
REMARK    4  A    between atoms: C_17  and  C_18
REMARK                            x       y       z     vdW  Elec       q    Type
REMARK                         _______ _______ _______ _____ _____    ______ ____
ROOT
ATOM      1  N   UNL     1       2.463   6.952  18.364  0.00  0.00    +0.000 N 
ATOM      2  C   UNL     1       1.726   5.794  18.870  0.00  0.00    +0.000 C 
ATOM      3  C   UNL     1       2.510   4.617  18.388  0.00  0.00    +0.000 A 
ATOM      4  C   UNL     1       3.601   5.067  17.652  0.00  0.00    +0.000 A 
ATOM      5  C   UNL     1       4.544   4.216  17.106  0.00  0.00    +0.000 A 
ATOM      6  C   UNL     1       4.374   2.849  17.314  0.00  0.00    +0.000 A 
ATOM      7  C   UNL     1       3.270   2.374  18.045  0.00  0.00    +0.000 A 
ATOM      8  C   UNL     1       2.314   3.253  18.594  0.00  0.00    +0.000 A 
ATOM      9  C   UNL     1       3.572   6.530  17.612  0.00  0.00    +0.000 C 
ATOM     10  O   UNL     1       4.430   7.162  17.020  0.00  0.00    +0.000 OA
ENDROOT
BRANCH   1  13
ATOM     11  C   UNL     1       0.917   9.810  20.158  0.00  0.00    +0.000 C 
ATOM     12  C   UNL     1       1.432   8.593  19.881  0.00  0.00    +0.000 C 
ATOM     13  C   UNL     1       2.093   8.269  18.621  0.00  0.00    +0.000 C 
ATOM     14  C   UNL     1       2.385   9.287  17.789  0.00  0.00    +0.000 C 
ATOM     15  C   UNL     1       2.028  10.719  18.061  0.00  0.00    +0.000 C 
ATOM     16  C   UNL     1       0.929  10.896  19.109  0.00  0.00    +0.000 C 
BRANCH  11  22
ATOM     17  C   UNL     1      -1.444  11.546  20.728  0.00  0.00    +0.000 C 
ATOM     18  N   UNL     1      -0.677  10.808  21.697  0.00  0.00    +0.000 N 
ATOM     19  C   UNL     1      -0.876  10.812  23.043  0.00  0.00    +0.000 A 
ATOM     20  N   UNL     1       0.006  10.029  23.618  0.00  0.00    +0.000 NA
ATOM     21  N   UNL     1       0.812   9.511  22.629  0.00  0.00    +0.000 NA
ATOM     22  C   UNL     1       0.404   9.991  21.472  0.00  0.00    +0.000 A 
ENDBRANCH  11  22
ENDBRANCH   1  13
BRANCH   8  23
ATOM     23  C   UNL     1       1.148   2.702  19.373  0.00  0.00    +0.000 C 
ATOM     24  F   UNL     1       0.478   3.645  20.091  0.00  0.00    +0.000 F 
ATOM     25  F   UNL     1       0.220   2.114  18.570  0.00  0.00    +0.000 F 
ATOM     26  F   UNL     1       1.527   1.753  20.270  0.00  0.00    +0.000 F 
ENDBRANCH   8  23
TORSDOF 3
ENDMDL
