MODEL 1
REMARK VINA RESULT:      -8.5      0.000      0.000
REMARK  Name = 
REMARK  6 active torsions:
REMARK  status: ('A' for Active; 'I' for Inactive)
REMARK    1  A    between atoms: C_1  and  N_2
REMARK    2  A    between atoms: C_6  and  C_7
REMARK    3  A    between atoms: C_7  and  C_8
REMARK    4  A    between atoms: C_8  and  C_9
REMARK    5  A    between atoms: C_13  and  N_14
REMARK    6  A    between atoms: C_22  and  C_23
REMARK                            x       y       z     vdW  Elec       q    Type
REMARK                         _______ _______ _______ _____ _____    ______ ____
ROOT
ATOM      1  C   UNL     1       1.825   8.272  19.529  0.00  0.00    +0.000 A 
ATOM      2  C   UNL     1       2.383   8.815  18.353  0.00  0.00    +0.000 A 
ATOM      3  C   UNL     1       2.983   8.015  17.385  0.00  0.00    +0.000 A 
ATOM      4  C   UNL     1       3.142   6.657  17.620  0.00  0.00    +0.000 A 
ATOM      5  C   UNL     1       2.822   6.136  18.881  0.00  0.00    +0.000 A 
ATOM      6  C   UNL     1       2.040   6.900  19.750  0.00  0.00    +0.000 A 
ENDROOT
BRANCH   5   7
ATOM      7  N   UNL     1       3.654   5.091  19.460  0.00  0.00    +0.000 N 
ATOM      8  C   UNL     1       5.066   5.553  19.532  0.00  0.00    +0.000 C 
ATOM      9  C   UNL     1       5.600   5.106  18.202  0.00  0.00    +0.000 A 
ATOM     10  C   UNL     1       4.850   3.987  17.813  0.00  0.00    +0.000 A 
ATOM     11  C   UNL     1       4.925   3.432  16.550  0.00  0.00    +0.000 A 
ATOM     12  C   UNL     1       5.775   4.054  15.649  0.00  0.00    +0.000 A 
ATOM     13  F   UNL     1       5.804   3.631  14.379  0.00  0.00    +0.000 F 
ATOM     14  C   UNL     1       6.532   5.182  16.007  0.00  0.00    +0.000 A 
ATOM     15  C   UNL     1       6.459   5.735  17.303  0.00  0.00    +0.000 A 
ATOM     16  C   UNL     1       3.696   3.877  18.729  0.00  0.00    +0.000 C 
ATOM     17  O   UNL     1       2.845   3.005  18.657  0.00  0.00    +0.000 OA
BRANCH  15  18
ATOM     18  C   UNL     1       7.188   7.023  17.592  0.00  0.00    +0.000 C 
ATOM     19  F   UNL     1       7.947   6.992  18.717  0.00  0.00    +0.000 F 
ATOM     20  F   UNL     1       8.034   7.366  16.583  0.00  0.00    +0.000 F 
ATOM     21  F   UNL     1       6.336   8.075  17.742  0.00  0.00    +0.000 F 
ENDBRANCH  15  18
ENDBRANCH   5   7
BRANCH   1  22
ATOM     22  C   UNL     1       1.011   9.182  20.564  0.00  0.00    +0.000 C 
ATOM     23  C   UNL     1      -0.268   8.590  21.225  0.00  0.00    +0.000 C 
ATOM     24  O   UNL     1       0.316   8.633  22.544  0.00  0.00    +0.000 OA
ATOM     25  C   UNL     1       1.536   9.195  22.027  0.00  0.00    +0.000 C 
BRANCH  22  26
ATOM     26  C   UNL     1       0.854  10.594  19.959  0.00  0.00    +0.000 C 
BRANCH  26  32
ATOM     27  C   UNL     1      -1.544  12.130  21.374  0.00  0.00    +0.000 C 
ATOM     28  N   UNL     1      -1.477  11.653  20.022  0.00  0.00    +0.000 N 
ATOM     29  C   UNL     1      -2.566  11.874  19.101  0.00  0.00    +0.000 C 
ATOM     30  C   UNL     1      -2.319  10.735  18.111  0.00  0.00    +0.000 C 
ATOM     31  N   UNL     1      -0.887  10.343  18.266  0.00  0.00    +0.000 NA
ATOM     32  C   UNL     1      -0.528  10.871  19.412  0.00  0.00    +0.000 C 
ENDBRANCH  26  32
ENDBRANCH  22  26
ENDBRANCH   1  22
TORSDOF 5
ENDMDL
MODEL 2
REMARK VINA RESULT:      -8.3      3.678      8.348
REMARK  Name = 
REMARK  6 active torsions:
REMARK  status: ('A' for Active; 'I' for Inactive)
REMARK    1  A    between atoms: C_1  and  N_2
REMARK    2  A    between atoms: C_6  and  C_7
REMARK    3  A    between atoms: C_7  and  C_8
REMARK    4  A    between atoms: C_8  and  C_9
REMARK    5  A    between atoms: C_13  and  N_14
REMARK    6  A    between atoms: C_22  and  C_23
REMARK                            x       y       z     vdW  Elec       q    Type
REMARK                         _______ _______ _______ _____ _____    ______ ____
ROOT
ATOM      1  C   UNL     1       2.527   7.297  18.612  0.00  0.00    +0.000 A 
ATOM      2  C   UNL     1       2.551   8.220  17.546  0.00  0.00    +0.000 A 
ATOM      3  C   UNL     1       2.166   9.547  17.713  0.00  0.00    +0.000 A 
ATOM      4  C   UNL     1       1.637   9.961  18.927  0.00  0.00    +0.000 A 
ATOM      5  C   UNL     1       1.372   9.009  19.920  0.00  0.00    +0.000 A 
ATOM      6  C   UNL     1       1.949   7.742  19.815  0.00  0.00    +0.000 A 
ENDROOT
BRANCH   5   7
ATOM      7  N   UNL     1       0.180   9.143  20.745  0.00  0.00    +0.000 N 
ATOM      8  C   UNL     1      -1.037   9.030  19.897  0.00  0.00    +0.000 C 
ATOM      9  C   UNL     1      -1.266  10.460  19.503  0.00  0.00    +0.000 A 
ATOM     10  C   UNL     1      -0.737  11.259  20.526  0.00  0.00    +0.000 A 
ATOM     11  C   UNL     1      -0.586  12.628  20.412  0.00  0.00    +0.000 A 
ATOM     12  C   UNL     1      -0.968  13.194  19.206  0.00  0.00    +0.000 A 
ATOM     13  F   UNL     1      -0.740  14.497  18.996  0.00  0.00    +0.000 F 
ATOM     14  C   UNL     1      -1.493  12.419  18.160  0.00  0.00    +0.000 A 
ATOM     15  C   UNL     1      -1.654  11.023  18.289  0.00  0.00    +0.000 A 
ATOM     16  C   UNL     1       0.048  10.383  21.421  0.00  0.00    +0.000 C 
ATOM     17  O   UNL     1       0.643  10.773  22.412  0.00  0.00    +0.000 OA
BRANCH  15  18
ATOM     18  C   UNL     1      -2.095  10.223  17.090  0.00  0.00    +0.000 C 
ATOM     19  F   UNL     1      -2.384  10.973  15.995  0.00  0.00    +0.000 F 
ATOM     20  F   UNL     1      -1.142   9.337  16.691  0.00  0.00    +0.000 F 
ATOM     21  F   UNL     1      -3.210   9.484  17.345  0.00  0.00    +0.000 F 
ENDBRANCH  15  18
ENDBRANCH   5   7
BRANCH   1  22
ATOM     22  C   UNL     1       3.108   5.815  18.447  0.00  0.00    +0.000 C 
ATOM     23  C   UNL     1       4.169   5.554  17.338  0.00  0.00    +0.000 C 
ATOM     24  O   UNL     1       5.188   5.218  18.304  0.00  0.00    +0.000 OA
ATOM     25  C   UNL     1       4.273   5.424  19.397  0.00  0.00    +0.000 C 
BRANCH  22  26
ATOM     26  C   UNL     1       1.929   4.819  18.485  0.00  0.00    +0.000 C 
BRANCH  26  32
ATOM     27  C   UNL     1       3.255   1.936  18.698  0.00  0.00    +0.000 C 
ATOM     28  N   UNL     1       2.657   2.712  19.747  0.00  0.00    +0.000 N 
ATOM     29  C   UNL     1       2.631   2.229  21.106  0.00  0.00    +0.000 C 
ATOM     30  C   UNL     1       1.442   3.021  21.653  0.00  0.00    +0.000 C 
ATOM     31  N   UNL     1       1.269   4.199  20.753  0.00  0.00    +0.000 NA
ATOM     32  C   UNL     1       1.956   3.890  19.678  0.00  0.00    +0.000 C 
ENDBRANCH  26  32
ENDBRANCH  22  26
ENDBRANCH   1  22
TORSDOF 5
ENDMDL
MODEL 3
REMARK VINA RESULT:      -8.3      3.456      8.024
REMARK  Name = 
REMARK  6 active torsions:
REMARK  status: ('A' for Active; 'I' for Inactive)
REMARK    1  A    between atoms: C_1  and  N_2
REMARK    2  A    between atoms: C_6  and  C_7
REMARK    3  A    between atoms: C_7  and  C_8
REMARK    4  A    between atoms: C_8  and  C_9
REMARK    5  A    between atoms: C_13  and  N_14
REMARK    6  A    between atoms: C_22  and  C_23
REMARK                            x       y       z     vdW  Elec       q    Type
REMARK                         _______ _______ _______ _____ _____    ______ ____
ROOT
ATOM      1  C   UNL     1       2.399   5.832  18.996  0.00  0.00    +0.000 A 
ATOM      2  C   UNL     1       2.343   6.597  17.813  0.00  0.00    +0.000 A 
ATOM      3  C   UNL     1       2.190   7.980  17.837  0.00  0.00    +0.000 A 
ATOM      4  C   UNL     1       1.974   8.626  19.047  0.00  0.00    +0.000 A 
ATOM      5  C   UNL     1       1.777   7.863  20.205  0.00  0.00    +0.000 A 
ATOM      6  C   UNL     1       2.137   6.514  20.198  0.00  0.00    +0.000 A 
ENDROOT
BRANCH   5   7
ATOM      7  N   UNL     1       0.801   8.298  21.195  0.00  0.00    +0.000 N 
ATOM      8  C   UNL     1      -0.485   8.627  20.525  0.00  0.00    +0.000 C 
ATOM      9  C   UNL     1      -0.300  10.083  20.210  0.00  0.00    +0.000 A 
ATOM     10  C   UNL     1       0.578  10.603  21.171  0.00  0.00    +0.000 A 
ATOM     11  C   UNL     1       1.137  11.864  21.077  0.00  0.00    +0.000 A 
ATOM     12  C   UNL     1       0.805  12.606  19.954  0.00  0.00    +0.000 A 
ATOM     13  F   UNL     1       1.402  13.787  19.752  0.00  0.00    +0.000 F 
ATOM     14  C   UNL     1      -0.065  12.108  18.971  0.00  0.00    +0.000 A 
ATOM     15  C   UNL     1      -0.640  10.825  19.080  0.00  0.00    +0.000 A 
ATOM     16  C   UNL     1       1.153   9.466  21.919  0.00  0.00    +0.000 C 
ATOM     17  O   UNL     1       1.960   9.581  22.827  0.00  0.00    +0.000 OA
BRANCH  15  18
ATOM     18  C   UNL     1      -1.458  10.288  17.933  0.00  0.00    +0.000 C 
ATOM     19  F   UNL     1      -2.591   9.642  18.310  0.00  0.00    +0.000 F 
ATOM     20  F   UNL     1      -1.858  11.276  17.087  0.00  0.00    +0.000 F 
ATOM     21  F   UNL     1      -0.758   9.403  17.170  0.00  0.00    +0.000 F 
ENDBRANCH  15  18
ENDBRANCH   5   7
BRANCH   1  22
ATOM     22  C   UNL     1       2.720   4.264  18.963  0.00  0.00    +0.000 C 
ATOM     23  C   UNL     1       2.909   3.517  20.315  0.00  0.00    +0.000 C 
ATOM     24  O   UNL     1       1.746   2.690  20.094  0.00  0.00    +0.000 OA
ATOM     25  C   UNL     1       1.497   3.316  18.821  0.00  0.00    +0.000 C 
BRANCH  22  26
ATOM     26  C   UNL     1       3.815   4.010  17.905  0.00  0.00    +0.000 C 
BRANCH  26  32
ATOM     27  C   UNL     1       5.394   5.867  15.862  0.00  0.00    +0.000 C 
ATOM     28  N   UNL     1       5.648   5.680  17.262  0.00  0.00    +0.000 N 
ATOM     29  C   UNL     1       6.708   6.399  17.927  0.00  0.00    +0.000 C 
ATOM     30  C   UNL     1       6.966   5.467  19.112  0.00  0.00    +0.000 C 
ATOM     31  N   UNL     1       5.733   4.643  19.279  0.00  0.00    +0.000 NA
ATOM     32  C   UNL     1       5.087   4.793  18.146  0.00  0.00    +0.000 C 
ENDBRANCH  26  32
ENDBRANCH  22  26
ENDBRANCH   1  22
TORSDOF 5
ENDMDL
MODEL 4
REMARK VINA RESULT:      -8.3      6.244      8.753
REMARK  Name = 
REMARK  6 active torsions:
REMARK  status: ('A' for Active; 'I' for Inactive)
REMARK    1  A    between atoms: C_1  and  N_2
REMARK    2  A    between atoms: C_6  and  C_7
REMARK    3  A    between atoms: C_7  and  C_8
REMARK    4  A    between atoms: C_8  and  C_9
REMARK    5  A    between atoms: C_13  and  N_14
REMARK    6  A    between atoms: C_22  and  C_23
REMARK                            x       y       z     vdW  Elec       q    Type
REMARK                         _______ _______ _______ _____ _____    ______ ____
ROOT
ATOM      1  C   UNL     1      -3.805  11.292  18.046  0.00  0.00    +0.000 A 
ATOM      2  C   UNL     1      -3.770  10.579  16.829  0.00  0.00    +0.000 A 
ATOM      3  C   UNL     1      -2.660   9.833  16.444  0.00  0.00    +0.000 A 
ATOM      4  C   UNL     1      -1.507   9.871  17.215  0.00  0.00    +0.000 A 
ATOM      5  C   UNL     1      -1.431  10.763  18.292  0.00  0.00    +0.000 A 
ATOM      6  C   UNL     1      -2.606  11.338  18.781  0.00  0.00    +0.000 A 
ENDROOT
BRANCH   5   7
ATOM      7  N   UNL     1      -0.176  11.447  18.572  0.00  0.00    +0.000 N 
ATOM      8  C   UNL     1       0.588  10.699  19.606  0.00  0.00    +0.000 C 
ATOM      9  C   UNL     1       0.077  11.324  20.872  0.00  0.00    +0.000 A 
ATOM     10  C   UNL     1      -0.312  12.633  20.557  0.00  0.00    +0.000 A 
ATOM     11  C   UNL     1      -1.018  13.440  21.429  0.00  0.00    +0.000 A 
ATOM     12  C   UNL     1      -1.357  12.882  22.652  0.00  0.00    +0.000 A 
ATOM     13  F   UNL     1      -2.137  13.574  23.492  0.00  0.00    +0.000 F 
ATOM     14  C   UNL     1      -0.989  11.570  22.992  0.00  0.00    +0.000 A 
ATOM     15  C   UNL     1      -0.258  10.757  22.101  0.00  0.00    +0.000 A 
ATOM     16  C   UNL     1      -0.306  12.763  19.085  0.00  0.00    +0.000 C 
ATOM     17  O   UNL     1      -0.602  13.785  18.486  0.00  0.00    +0.000 OA
BRANCH  15  18
ATOM     18  C   UNL     1      -0.007   9.315  22.462  0.00  0.00    +0.000 C 
ATOM     19  F   UNL     1      -0.767   8.427  21.771  0.00  0.00    +0.000 F 
ATOM     20  F   UNL     1       1.285   8.951  22.235  0.00  0.00    +0.000 F 
ATOM     21  F   UNL     1      -0.241   9.065  23.779  0.00  0.00    +0.000 F 
ENDBRANCH  15  18
ENDBRANCH   5   7
BRANCH   1  22
ATOM     22  C   UNL     1      -5.136  12.026  18.546  0.00  0.00    +0.000 C 
ATOM     23  C   UNL     1      -6.041  12.722  17.488  0.00  0.00    +0.000 C 
ATOM     24  O   UNL     1      -7.140  11.821  17.743  0.00  0.00    +0.000 OA
ATOM     25  C   UNL     1      -6.383  11.122  18.749  0.00  0.00    +0.000 C 
BRANCH  22  26
ATOM     26  C   UNL     1      -4.790  12.877  19.787  0.00  0.00    +0.000 C 
BRANCH  26  32
ATOM     27  C   UNL     1      -7.073  15.074  20.066  0.00  0.00    +0.000 C 
ATOM     28  N   UNL     1      -6.935  13.847  20.797  0.00  0.00    +0.000 N 
ATOM     29  C   UNL     1      -7.915  13.454  21.780  0.00  0.00    +0.000 C 
ATOM     30  C   UNL     1      -7.071  12.517  22.645  0.00  0.00    +0.000 C 
ATOM     31  N   UNL     1      -5.921  12.082  21.800  0.00  0.00    +0.000 NA
ATOM     32  C   UNL     1      -5.903  12.942  20.809  0.00  0.00    +0.000 C 
ENDBRANCH  26  32
ENDBRANCH  22  26
ENDBRANCH   1  22
TORSDOF 5
ENDMDL
MODEL 5
REMARK VINA RESULT:      -8.2      1.717      2.400
REMARK  Name = 
REMARK  6 active torsions:
REMARK  status: ('A' for Active; 'I' for Inactive)
REMARK    1  A    between atoms: C_1  and  N_2
REMARK    2  A    between atoms: C_6  and  C_7
REMARK    3  A    between atoms: C_7  and  C_8
REMARK    4  A    between atoms: C_8  and  C_9
REMARK    5  A    between atoms: C_13  and  N_14
REMARK    6  A    between atoms: C_22  and  C_23
REMARK                            x       y       z     vdW  Elec       q    Type
REMARK                         _______ _______ _______ _____ _____    ______ ____
ROOT
ATOM      1  C   UNL     1       1.399   9.106  19.245  0.00  0.00    +0.000 A 
ATOM      2  C   UNL     1       2.065   9.411  18.040  0.00  0.00    +0.000 A 
ATOM      3  C   UNL     1       2.799   8.456  17.342  0.00  0.00    +0.000 A 
ATOM      4  C   UNL     1       2.980   7.195  17.890  0.00  0.00    +0.000 A 
ATOM      5  C   UNL     1       2.540   6.945  19.197  0.00  0.00    +0.000 A 
ATOM      6  C   UNL     1       1.638   7.831  19.789  0.00  0.00    +0.000 A 
ENDROOT
BRANCH   5   7
ATOM      7  N   UNL     1       3.340   6.105  20.077  0.00  0.00    +0.000 N 
ATOM      8  C   UNL     1       4.603   5.716  19.394  0.00  0.00    +0.000 C 
ATOM      9  C   UNL     1       4.198   4.444  18.708  0.00  0.00    +0.000 A 
ATOM     10  C   UNL     1       3.166   3.877  19.468  0.00  0.00    +0.000 A 
ATOM     11  C   UNL     1       2.409   2.806  19.031  0.00  0.00    +0.000 A 
ATOM     12  C   UNL     1       2.702   2.315  17.768  0.00  0.00    +0.000 A 
ATOM     13  F   UNL     1       1.929   1.353  17.246  0.00  0.00    +0.000 F 
ATOM     14  C   UNL     1       3.724   2.868  16.980  0.00  0.00    +0.000 A 
ATOM     15  C   UNL     1       4.499   3.953  17.438  0.00  0.00    +0.000 A 
ATOM     16  C   UNL     1       2.733   4.881  20.461  0.00  0.00    +0.000 C 
ATOM     17  O   UNL     1       1.845   4.700  21.278  0.00  0.00    +0.000 OA
BRANCH  15  18
ATOM     18  C   UNL     1       5.491   4.594  16.500  0.00  0.00    +0.000 C 
ATOM     19  F   UNL     1       6.700   4.854  17.060  0.00  0.00    +0.000 F 
ATOM     20  F   UNL     1       5.745   3.810  15.416  0.00  0.00    +0.000 F 
ATOM     21  F   UNL     1       5.041   5.781  16.007  0.00  0.00    +0.000 F 
ENDBRANCH  15  18
ENDBRANCH   5   7
BRANCH   1  22
ATOM     22  C   UNL     1       0.441  10.169  19.962  0.00  0.00    +0.000 C 
ATOM     23  C   UNL     1      -0.642   9.644  20.949  0.00  0.00    +0.000 C 
ATOM     24  O   UNL     1      -0.030  10.310  22.075  0.00  0.00    +0.000 OA
ATOM     25  C   UNL     1       1.008  10.853  21.237  0.00  0.00    +0.000 C 
BRANCH  22  26
ATOM     26  C   UNL     1      -0.058  11.174  18.901  0.00  0.00    +0.000 C 
BRANCH  26  32
ATOM     27  C   UNL     1      -2.805  12.450  19.871  0.00  0.00    +0.000 C 
ATOM     28  N   UNL     1      -2.586  11.561  18.766  0.00  0.00    +0.000 N 
ATOM     29  C   UNL     1      -3.675  11.161  17.908  0.00  0.00    +0.000 C 
ATOM     30  C   UNL     1      -3.117   9.848  17.356  0.00  0.00    +0.000 C 
ATOM     31  N   UNL     1      -1.637   9.911  17.531  0.00  0.00    +0.000 NA
ATOM     32  C   UNL     1      -1.453  10.882  18.396  0.00  0.00    +0.000 C 
ENDBRANCH  26  32
ENDBRANCH  22  26
ENDBRANCH   1  22
TORSDOF 5
ENDMDL
MODEL 6
REMARK VINA RESULT:      -8.2      0.616      1.311
REMARK  Name = 
REMARK  6 active torsions:
REMARK  status: ('A' for Active; 'I' for Inactive)
REMARK    1  A    between atoms: C_1  and  N_2
REMARK    2  A    between atoms: C_6  and  C_7
REMARK    3  A    between atoms: C_7  and  C_8
REMARK    4  A    between atoms: C_8  and  C_9
REMARK    5  A    between atoms: C_13  and  N_14
REMARK    6  A    between atoms: C_22  and  C_23
REMARK                            x       y       z     vdW  Elec       q    Type
REMARK                         _______ _______ _______ _____ _____    ______ ____
ROOT
ATOM      1  C   UNL     1       1.813   8.303  19.614  0.00  0.00    +0.000 A 
ATOM      2  C   UNL     1       2.338   8.839  18.420  0.00  0.00    +0.000 A 
ATOM      3  C   UNL     1       2.894   8.032  17.432  0.00  0.00    +0.000 A 
ATOM      4  C   UNL     1       3.042   6.671  17.660  0.00  0.00    +0.000 A 
ATOM      5  C   UNL     1       2.757   6.154  18.931  0.00  0.00    +0.000 A 
ATOM      6  C   UNL     1       2.016   6.927  19.826  0.00  0.00    +0.000 A 
ENDROOT
BRANCH   5   7
ATOM      7  N   UNL     1       3.594   5.097  19.481  0.00  0.00    +0.000 N 
ATOM      8  C   UNL     1       5.010   5.551  19.536  0.00  0.00    +0.000 C 
ATOM      9  C   UNL     1       5.519   5.121  18.192  0.00  0.00    +0.000 A 
ATOM     10  C   UNL     1       4.758   4.011  17.798  0.00  0.00    +0.000 A 
ATOM     11  C   UNL     1       4.809   3.475  16.526  0.00  0.00    +0.000 A 
ATOM     12  C   UNL     1       5.648   4.106  15.621  0.00  0.00    +0.000 A 
ATOM     13  F   UNL     1       5.654   3.702  14.344  0.00  0.00    +0.000 F 
ATOM     14  C   UNL     1       6.415   5.225  15.983  0.00  0.00    +0.000 A 
ATOM     15  C   UNL     1       6.366   5.760  17.287  0.00  0.00    +0.000 A 
ATOM     16  C   UNL     1       3.619   3.893  18.732  0.00  0.00    +0.000 C 
ATOM     17  O   UNL     1       2.762   3.026  18.662  0.00  0.00    +0.000 OA
BRANCH  15  18
ATOM     18  C   UNL     1       7.105   7.040  17.583  0.00  0.00    +0.000 C 
ATOM     19  F   UNL     1       7.848   7.004  18.720  0.00  0.00    +0.000 F 
ATOM     20  F   UNL     1       7.971   7.370  16.586  0.00  0.00    +0.000 F 
ATOM     21  F   UNL     1       6.264   8.102  17.716  0.00  0.00    +0.000 F 
ENDBRANCH  15  18
ENDBRANCH   5   7
BRANCH   1  22
ATOM     22  C   UNL     1       1.047   9.222  20.676  0.00  0.00    +0.000 C 
ATOM     23  C   UNL     1      -0.301   8.710  21.265  0.00  0.00    +0.000 C 
ATOM     24  O   UNL     1       0.241   8.628  22.601  0.00  0.00    +0.000 OA
ATOM     25  C   UNL     1       1.522   9.108  22.151  0.00  0.00    +0.000 C 
BRANCH  22  26
ATOM     26  C   UNL     1       1.033  10.673  20.150  0.00  0.00    +0.000 C 
BRANCH  26  32
ATOM     27  C   UNL     1      -1.815  11.422  18.949  0.00  0.00    +0.000 C 
ATOM     28  N   UNL     1      -1.305  11.715  20.258  0.00  0.00    +0.000 N 
ATOM     29  C   UNL     1      -2.115  12.401  21.234  0.00  0.00    +0.000 C 
ATOM     30  C   UNL     1      -1.022  12.991  22.127  0.00  0.00    +0.000 C 
ATOM     31  N   UNL     1       0.205  12.177  21.888  0.00  0.00    +0.000 NA
ATOM     32  C   UNL     1      -0.044  11.535  20.770  0.00  0.00    +0.000 C 
ENDBRANCH  26  32
ENDBRANCH  22  26
ENDBRANCH   1  22
TORSDOF 5
ENDMDL
MODEL 7
REMARK VINA RESULT:      -8.2      1.868      2.579
REMARK  Name = 
REMARK  6 active torsions:
REMARK  status: ('A' for Active; 'I' for Inactive)
REMARK    1  A    between atoms: C_1  and  N_2
REMARK    2  A    between atoms: C_6  and  C_7
REMARK    3  A    between atoms: C_7  and  C_8
REMARK    4  A    between atoms: C_8  and  C_9
REMARK    5  A    between atoms: C_13  and  N_14
REMARK    6  A    between atoms: C_22  and  C_23
REMARK                            x       y       z     vdW  Elec       q    Type
REMARK                         _______ _______ _______ _____ _____    ______ ____
ROOT
ATOM      1  C   UNL     1       1.135   8.992  19.748  0.00  0.00    +0.000 A 
ATOM      2  C   UNL     1       1.630   9.439  18.505  0.00  0.00    +0.000 A 
ATOM      3  C   UNL     1       2.349   8.604  17.655  0.00  0.00    +0.000 A 
ATOM      4  C   UNL     1       2.692   7.327  18.076  0.00  0.00    +0.000 A 
ATOM      5  C   UNL     1       2.428   6.947  19.398  0.00  0.00    +0.000 A 
ATOM      6  C   UNL     1       1.535   7.706  20.156  0.00  0.00    +0.000 A 
ENDROOT
BRANCH   5   7
ATOM      7  N   UNL     1       3.389   6.118  20.113  0.00  0.00    +0.000 N 
ATOM      8  C   UNL     1       4.574   5.862  19.252  0.00  0.00    +0.000 C 
ATOM      9  C   UNL     1       4.167   4.606  18.540  0.00  0.00    +0.000 A 
ATOM     10  C   UNL     1       3.282   3.922  19.385  0.00  0.00    +0.000 A 
ATOM     11  C   UNL     1       2.546   2.826  18.977  0.00  0.00    +0.000 A 
ATOM     12  C   UNL     1       2.703   2.430  17.658  0.00  0.00    +0.000 A 
ATOM     13  F   UNL     1       1.933   1.446  17.175  0.00  0.00    +0.000 F 
ATOM     14  C   UNL     1       3.575   3.101  16.785  0.00  0.00    +0.000 A 
ATOM     15  C   UNL     1       4.332   4.212  17.213  0.00  0.00    +0.000 A 
ATOM     16  C   UNL     1       2.918   4.834  20.489  0.00  0.00    +0.000 C 
ATOM     17  O   UNL     1       2.157   4.542  21.397  0.00  0.00    +0.000 OA
BRANCH  15  18
ATOM     18  C   UNL     1       5.149   4.975  16.201  0.00  0.00    +0.000 C 
ATOM     19  F   UNL     1       4.725   6.248  15.990  0.00  0.00    +0.000 F 
ATOM     20  F   UNL     1       6.454   5.076  16.573  0.00  0.00    +0.000 F 
ATOM     21  F   UNL     1       5.152   4.372  14.981  0.00  0.00    +0.000 F 
ENDBRANCH  15  18
ENDBRANCH   5   7
BRANCH   1  22
ATOM     22  C   UNL     1       0.187   9.913  20.650  0.00  0.00    +0.000 C 
ATOM     23  C   UNL     1      -0.305   9.355  22.018  0.00  0.00    +0.000 C 
ATOM     24  O   UNL     1       0.406  10.368  22.760  0.00  0.00    +0.000 OA
ATOM     25  C   UNL     1       0.902  10.963  21.546  0.00  0.00    +0.000 C 
BRANCH  22  26
ATOM     26  C   UNL     1      -0.907  10.523  19.749  0.00  0.00    +0.000 C 
BRANCH  26  32
ATOM     27  C   UNL     1      -2.570  12.679  21.393  0.00  0.00    +0.000 C 
ATOM     28  N   UNL     1      -1.491  12.908  20.476  0.00  0.00    +0.000 N 
ATOM     29  C   UNL     1      -1.004  14.243  20.221  0.00  0.00    +0.000 C 
ATOM     30  C   UNL     1      -0.375  14.044  18.841  0.00  0.00    +0.000 C 
ATOM     31  N   UNL     1      -0.111  12.582  18.703  0.00  0.00    +0.000 NA
ATOM     32  C   UNL     1      -0.840  12.030  19.646  0.00  0.00    +0.000 C 
ENDBRANCH  26  32
ENDBRANCH  22  26
ENDBRANCH   1  22
TORSDOF 5
ENDMDL
MODEL 8
REMARK VINA RESULT:      -8.2      0.474      1.271
REMARK  Name = 
REMARK  6 active torsions:
REMARK  status: ('A' for Active; 'I' for Inactive)
REMARK    1  A    between atoms: C_1  and  N_2
REMARK    2  A    between atoms: C_6  and  C_7
REMARK    3  A    between atoms: C_7  and  C_8
REMARK    4  A    between atoms: C_8  and  C_9
REMARK    5  A    between atoms: C_13  and  N_14
REMARK    6  A    between atoms: C_22  and  C_23
REMARK                            x       y       z     vdW  Elec       q    Type
REMARK                         _______ _______ _______ _____ _____    ______ ____
ROOT
ATOM      1  C   UNL     1       1.799   8.336  19.583  0.00  0.00    +0.000 A 
ATOM      2  C   UNL     1       2.344   8.870  18.398  0.00  0.00    +0.000 A 
ATOM      3  C   UNL     1       2.914   8.061  17.419  0.00  0.00    +0.000 A 
ATOM      4  C   UNL     1       3.057   6.701  17.652  0.00  0.00    +0.000 A 
ATOM      5  C   UNL     1       2.751   6.185  18.918  0.00  0.00    +0.000 A 
ATOM      6  C   UNL     1       1.996   6.960  19.801  0.00  0.00    +0.000 A 
ENDROOT
BRANCH   5   7
ATOM      7  N   UNL     1       3.577   5.127  19.483  0.00  0.00    +0.000 N 
ATOM      8  C   UNL     1       4.995   5.572  19.542  0.00  0.00    +0.000 C 
ATOM      9  C   UNL     1       5.510   5.127  18.205  0.00  0.00    +0.000 A 
ATOM     10  C   UNL     1       4.744   4.018  17.817  0.00  0.00    +0.000 A 
ATOM     11  C   UNL     1       4.798   3.470  16.550  0.00  0.00    +0.000 A 
ATOM     12  C   UNL     1       5.647   4.089  15.644  0.00  0.00    +0.000 A 
ATOM     13  F   UNL     1       5.658   3.673  14.371  0.00  0.00    +0.000 F 
ATOM     14  C   UNL     1       6.420   5.205  16.001  0.00  0.00    +0.000 A 
ATOM     15  C   UNL     1       6.366   5.751  17.300  0.00  0.00    +0.000 A 
ATOM     16  C   UNL     1       3.598   3.916  18.744  0.00  0.00    +0.000 C 
ATOM     17  O   UNL     1       2.736   3.055  18.676  0.00  0.00    +0.000 OA
BRANCH  15  18
ATOM     18  C   UNL     1       7.113   7.029  17.589  0.00  0.00    +0.000 C 
ATOM     19  F   UNL     1       7.994   7.390  16.622  0.00  0.00    +0.000 F 
ATOM     20  F   UNL     1       6.271   8.088  17.738  0.00  0.00    +0.000 F 
ATOM     21  F   UNL     1       7.831   6.956  18.744  0.00  0.00    +0.000 F 
ENDBRANCH  15  18
ENDBRANCH   5   7
BRANCH   1  22
ATOM     22  C   UNL     1       1.017   9.258  20.633  0.00  0.00    +0.000 C 
ATOM     23  C   UNL     1      -0.340   8.748  21.201  0.00  0.00    +0.000 C 
ATOM     24  O   UNL     1       0.180   8.667  22.545  0.00  0.00    +0.000 OA
ATOM     25  C   UNL     1       1.469   9.145  22.115  0.00  0.00    +0.000 C 
BRANCH  22  26
ATOM     26  C   UNL     1       1.014  10.708  20.105  0.00  0.00    +0.000 C 
BRANCH  26  32
ATOM     27  C   UNL     1      -1.012  10.210  17.704  0.00  0.00    +0.000 C 
ATOM     28  N   UNL     1      -1.248  10.928  18.924  0.00  0.00    +0.000 N 
ATOM     29  C   UNL     1      -2.540  11.507  19.206  0.00  0.00    +0.000 C 
ATOM     30  C   UNL     1      -2.137  12.598  20.198  0.00  0.00    +0.000 C 
ATOM     31  N   UNL     1      -0.811  12.197  20.753  0.00  0.00    +0.000 NA
ATOM     32  C   UNL     1      -0.372  11.284  19.918  0.00  0.00    +0.000 C 
ENDBRANCH  26  32
ENDBRANCH  22  26
ENDBRANCH   1  22
TORSDOF 5
ENDMDL
MODEL 9
REMARK VINA RESULT:      -8.1      3.754      8.403
REMARK  Name = 
REMARK  6 active torsions:
REMARK  status: ('A' for Active; 'I' for Inactive)
REMARK    1  A    between atoms: C_1  and  N_2
REMARK    2  A    between atoms: C_6  and  C_7
REMARK    3  A    between atoms: C_7  and  C_8
REMARK    4  A    between atoms: C_8  and  C_9
REMARK    5  A    between atoms: C_13  and  N_14
REMARK    6  A    between atoms: C_22  and  C_23
REMARK                            x       y       z     vdW  Elec       q    Type
REMARK                         _______ _______ _______ _____ _____    ______ ____
ROOT
ATOM      1  C   UNL     1       2.592   7.142  18.640  0.00  0.00    +0.000 A 
ATOM      2  C   UNL     1       2.469   8.114  17.626  0.00  0.00    +0.000 A 
ATOM      3  C   UNL     1       2.031   9.408  17.895  0.00  0.00    +0.000 A 
ATOM      4  C   UNL     1       1.596   9.734  19.171  0.00  0.00    +0.000 A 
ATOM      5  C   UNL     1       1.474   8.723  20.133  0.00  0.00    +0.000 A 
ATOM      6  C   UNL     1       2.105   7.497  19.912  0.00  0.00    +0.000 A 
ENDROOT
BRANCH   5   7
ATOM      7  N   UNL     1       0.358   8.750  21.068  0.00  0.00    +0.000 N 
ATOM      8  C   UNL     1      -0.916   8.953  20.327  0.00  0.00    +0.000 C 
ATOM      9  C   UNL     1      -1.022  10.449  20.308  0.00  0.00    +0.000 A 
ATOM     10  C   UNL     1      -0.348  10.925  21.441  0.00  0.00    +0.000 A 
ATOM     11  C   UNL     1      -0.064  12.261  21.644  0.00  0.00    +0.000 A 
ATOM     12  C   UNL     1      -0.462  13.138  20.646  0.00  0.00    +0.000 A 
ATOM     13  F   UNL     1      -0.116  14.428  20.734  0.00  0.00    +0.000 F 
ATOM     14  C   UNL     1      -1.131  12.690  19.496  0.00  0.00    +0.000 A 
ATOM     15  C   UNL     1      -1.427  11.325  19.301  0.00  0.00    +0.000 A 
ATOM     16  C   UNL     1       0.399   9.793  22.029  0.00  0.00    +0.000 C 
ATOM     17  O   UNL     1       1.094   9.875  23.028  0.00  0.00    +0.000 OA
BRANCH  15  18
ATOM     18  C   UNL     1      -2.024  10.884  17.989  0.00  0.00    +0.000 C 
ATOM     19  F   UNL     1      -3.155  10.143  18.113  0.00  0.00    +0.000 F 
ATOM     20  F   UNL     1      -2.359  11.942  17.201  0.00  0.00    +0.000 F 
ATOM     21  F   UNL     1      -1.159  10.130  17.256  0.00  0.00    +0.000 F 
ENDBRANCH  15  18
ENDBRANCH   5   7
BRANCH   1  22
ATOM     22  C   UNL     1       3.232   5.705  18.347  0.00  0.00    +0.000 C 
ATOM     23  C   UNL     1       4.299   5.584  17.220  0.00  0.00    +0.000 C 
ATOM     24  O   UNL     1       5.334   5.208  18.153  0.00  0.00    +0.000 OA
ATOM     25  C   UNL     1       4.416   5.282  19.260  0.00  0.00    +0.000 C 
BRANCH  22  26
ATOM     26  C   UNL     1       2.095   4.662  18.299  0.00  0.00    +0.000 C 
BRANCH  26  32
ATOM     27  C   UNL     1       3.408   1.798  18.738  0.00  0.00    +0.000 C 
ATOM     28  N   UNL     1       2.722   2.612  19.701  0.00  0.00    +0.000 N 
ATOM     29  C   UNL     1       2.585   2.183  21.072  0.00  0.00    +0.000 C 
ATOM     30  C   UNL     1       1.352   2.989  21.486  0.00  0.00    +0.000 C 
ATOM     31  N   UNL     1       1.251   4.129  20.529  0.00  0.00    +0.000 NA
ATOM     32  C   UNL     1       2.025   3.782  19.527  0.00  0.00    +0.000 C 
ENDBRANCH  26  32
ENDBRANCH  22  26
ENDBRANCH   1  22
TORSDOF 5
ENDMDL
