MODEL 1
REMARK VINA RESULT:      -9.6      0.000      0.000
REMARK  Name = 
REMARK  7 active torsions:
REMARK  status: ('A' for Active; 'I' for Inactive)
REMARK    1  A    between atoms: C_1  and  C_2
REMARK    2  A    between atoms: C_2  and  S_3
REMARK    3  A    between atoms: C_2  and  C_10
REMARK    4  A    between atoms: S_3  and  C_4
REMARK    5  A    between atoms: N_8  and  C_9
REMARK    6  A    between atoms: C_14  and  N_15
REMARK    7  A    between atoms: C_16  and  C_18
REMARK                            x       y       z     vdW  Elec       q    Type
REMARK                         _______ _______ _______ _____ _____    ______ ____
ROOT
ATOM      1  N   UNL     1       1.321  10.470  19.531  0.00  0.00    +0.000 N 
ATOM      2  C   UNL     1       1.910   9.391  18.504  0.00  0.00    +0.000 C 
ATOM      3  O   UNL     1       2.236   9.929  17.416  0.00  0.00    +0.000 OA
ATOM      4  H   UNL     1       1.466  11.398  19.123  0.00  0.00    +0.000 HD
ENDROOT
BRANCH   2   5
ATOM      5  C   UNL     1       2.310   7.696  18.626  0.00  0.00    +0.000 A 
ATOM      6  C   UNL     1       3.104   6.510  17.742  0.00  0.00    +0.000 A 
ATOM      7  C   UNL     1       3.249   4.968  18.119  0.00  0.00    +0.000 A 
ATOM      8  C   UNL     1       2.495   4.942  19.263  0.00  0.00    +0.000 A 
ATOM      9  C   UNL     1       2.315   6.079  20.145  0.00  0.00    +0.000 A 
ATOM     10  N   UNL     1       2.025   7.391  19.858  0.00  0.00    +0.000 NA
ATOM     11  C   UNL     1       1.116   4.360  18.875  0.00  0.00    +0.000 C 
ATOM     12  C   UNL     1       0.975   3.186  19.822  0.00  0.00    +0.000 C 
ATOM     13  C   UNL     1       1.560   1.998  19.080  0.00  0.00    +0.000 C 
ATOM     14  C   UNL     1       2.855   1.640  19.236  0.00  0.00    +0.000 C 
ATOM     15  C   UNL     1       3.700   1.705  18.044  0.00  0.00    +0.000 C 
ATOM     16  C   UNL     1       3.771   3.244  17.615  0.00  0.00    +0.000 C 
ENDBRANCH   2   5
BRANCH   1  21
ATOM     17  C   UNL     1      -1.596  11.760  22.274  0.00  0.00    +0.000 A 
ATOM     18  C   UNL     1      -1.313  10.749  23.193  0.00  0.00    +0.000 A 
ATOM     19  C   UNL     1      -0.259   9.796  22.980  0.00  0.00    +0.000 A 
ATOM     20  C   UNL     1       0.579   9.718  21.830  0.00  0.00    +0.000 A 
ATOM     21  C   UNL     1       0.448  10.637  20.820  0.00  0.00    +0.000 A 
ATOM     22  C   UNL     1      -0.685  11.696  21.069  0.00  0.00    +0.000 A 
BRANCH  17  24
ATOM     23  C   UNL     1      -2.306  14.064  23.622  0.00  0.00    +0.000 C 
ATOM     24  C   UNL     1      -2.783  12.851  22.821  0.00  0.00    +0.000 C 
BRANCH  24  25
ATOM     25  S   UNL     1      -4.157  13.408  21.583  0.00  0.00    +0.000 S 
BRANCH  25  26
ATOM     26  C   UNL     1      -5.821  12.750  21.976  0.00  0.00    +0.000 A 
ATOM     27  N   UNL     1      -6.486  11.746  21.441  0.00  0.00    +0.000 NA
ATOM     28  N   UNL     1      -7.721  11.591  22.129  0.00  0.00    +0.000 NA
ATOM     29  C   UNL     1      -7.832  12.511  23.072  0.00  0.00    +0.000 A 
ATOM     30  N   UNL     1      -6.671  13.299  22.953  0.00  0.00    +0.000 N 
ATOM     31  C   UNL     1      -6.420  14.494  23.715  0.00  0.00    +0.000 C 
ENDBRANCH  25  26
ENDBRANCH  24  25
ENDBRANCH  17  24
ENDBRANCH   1  21
TORSDOF 5
ENDMDL
MODEL 2
REMARK VINA RESULT:      -9.0      4.723     11.263
REMARK  Name = 
REMARK  7 active torsions:
REMARK  status: ('A' for Active; 'I' for Inactive)
REMARK    1  A    between atoms: C_1  and  C_2
REMARK    2  A    between atoms: C_2  and  S_3
REMARK    3  A    between atoms: C_2  and  C_10
REMARK    4  A    between atoms: S_3  and  C_4
REMARK    5  A    between atoms: N_8  and  C_9
REMARK    6  A    between atoms: C_14  and  N_15
REMARK    7  A    between atoms: C_16  and  C_18
REMARK                            x       y       z     vdW  Elec       q    Type
REMARK                         _______ _______ _______ _____ _____    ______ ____
ROOT
ATOM      1  N   UNL     1       0.631   9.176  21.282  0.00  0.00    +0.000 N 
ATOM      2  C   UNL     1       0.121  10.686  21.439  0.00  0.00    +0.000 C 
ATOM      3  O   UNL     1      -0.766  10.777  22.324  0.00  0.00    +0.000 OA
ATOM      4  H   UNL     1       0.215   8.628  22.042  0.00  0.00    +0.000 HD
ENDROOT
BRANCH   2   5
ATOM      5  C   UNL     1       0.623  12.211  20.753  0.00  0.00    +0.000 A 
ATOM      6  C   UNL     1      -0.057  13.565  20.030  0.00  0.00    +0.000 A 
ATOM      7  C   UNL     1       0.717  14.821  19.426  0.00  0.00    +0.000 A 
ATOM      8  C   UNL     1       2.009  14.402  19.612  0.00  0.00    +0.000 A 
ATOM      9  C   UNL     1       2.428  13.498  20.666  0.00  0.00    +0.000 A 
ATOM     10  N   UNL     1       1.872  12.320  21.100  0.00  0.00    +0.000 NA
ATOM     11  C   UNL     1       2.509  13.877  18.246  0.00  0.00    +0.000 C 
ATOM     12  C   UNL     1       3.756  14.705  18.010  0.00  0.00    +0.000 C 
ATOM     13  C   UNL     1       3.288  15.928  17.243  0.00  0.00    +0.000 C 
ATOM     14  C   UNL     1       2.956  17.075  17.881  0.00  0.00    +0.000 C 
ATOM     15  C   UNL     1       1.571  17.523  17.745  0.00  0.00    +0.000 C 
ATOM     16  C   UNL     1       0.658  16.411  18.444  0.00  0.00    +0.000 C 
ENDBRANCH   2   5
BRANCH   1  21
ATOM     17  C   UNL     1       2.191   5.690  19.516  0.00  0.00    +0.000 A 
ATOM     18  C   UNL     1       2.555   6.340  18.335  0.00  0.00    +0.000 A 
ATOM     19  C   UNL     1       2.374   7.754  18.155  0.00  0.00    +0.000 A 
ATOM     20  C   UNL     1       1.779   8.648  19.090  0.00  0.00    +0.000 A 
ATOM     21  C   UNL     1       1.362   8.187  20.313  0.00  0.00    +0.000 A 
ATOM     22  C   UNL     1       1.588   6.647  20.521  0.00  0.00    +0.000 A 
BRANCH  17  24
ATOM     23  C   UNL     1       1.518   3.012  19.547  0.00  0.00    +0.000 C 
ATOM     24  C   UNL     1       2.643   4.050  19.546  0.00  0.00    +0.000 C 
BRANCH  24  25
ATOM     25  S   UNL     1       4.048   3.463  18.358  0.00  0.00    +0.000 S 
BRANCH  25  26
ATOM     26  C   UNL     1       5.631   4.358  18.583  0.00  0.00    +0.000 A 
ATOM     27  N   UNL     1       6.142   4.925  19.657  0.00  0.00    +0.000 NA
ATOM     28  N   UNL     1       7.426   5.445  19.339  0.00  0.00    +0.000 NA
ATOM     29  C   UNL     1       7.701   5.223  18.065  0.00  0.00    +0.000 A 
ATOM     30  N   UNL     1       6.553   4.593  17.547  0.00  0.00    +0.000 N 
ATOM     31  C   UNL     1       6.364   4.265  16.159  0.00  0.00    +0.000 C 
ENDBRANCH  25  26
ENDBRANCH  24  25
ENDBRANCH  17  24
ENDBRANCH   1  21
TORSDOF 5
ENDMDL
MODEL 3
REMARK VINA RESULT:      -9.0      3.570     10.798
REMARK  Name = 
REMARK  7 active torsions:
REMARK  status: ('A' for Active; 'I' for Inactive)
REMARK    1  A    between atoms: C_1  and  C_2
REMARK    2  A    between atoms: C_2  and  S_3
REMARK    3  A    between atoms: C_2  and  C_10
REMARK    4  A    between atoms: S_3  and  C_4
REMARK    5  A    between atoms: N_8  and  C_9
REMARK    6  A    between atoms: C_14  and  N_15
REMARK    7  A    between atoms: C_16  and  C_18
REMARK                            x       y       z     vdW  Elec       q    Type
REMARK                         _______ _______ _______ _____ _____    ______ ____
ROOT
ATOM      1  N   UNL     1       1.045   9.164  21.830  0.00  0.00    +0.000 N 
ATOM      2  C   UNL     1      -0.024  10.003  22.679  0.00  0.00    +0.000 C 
ATOM      3  O   UNL     1      -0.102   9.579  23.858  0.00  0.00    +0.000 OA
ATOM      4  H   UNL     1       1.538   8.543  22.479  0.00  0.00    +0.000 HD
ENDROOT
BRANCH   2   5
ATOM      5  C   UNL     1      -0.976  11.430  22.354  0.00  0.00    +0.000 A 
ATOM      6  C   UNL     1      -1.465  12.836  23.130  0.00  0.00    +0.000 A 
ATOM      7  C   UNL     1      -2.431  13.965  22.552  0.00  0.00    +0.000 A 
ATOM      8  C   UNL     1      -2.755  13.392  21.350  0.00  0.00    +0.000 A 
ATOM      9  C   UNL     1      -1.894  12.475  20.626  0.00  0.00    +0.000 A 
ATOM     10  N   UNL     1      -1.178  11.391  21.069  0.00  0.00    +0.000 NA
ATOM     11  C   UNL     1      -4.159  12.766  21.518  0.00  0.00    +0.000 C 
ATOM     12  C   UNL     1      -4.949  13.422  20.403  0.00  0.00    +0.000 C 
ATOM     13  C   UNL     1      -5.554  14.670  21.019  0.00  0.00    +0.000 C 
ATOM     14  C   UNL     1      -4.931  15.868  20.938  0.00  0.00    +0.000 C 
ATOM     15  C   UNL     1      -4.525  16.483  22.201  0.00  0.00    +0.000 C 
ATOM     16  C   UNL     1      -3.428  15.518  22.850  0.00  0.00    +0.000 C 
ENDBRANCH   2   5
BRANCH   1  21
ATOM     17  C   UNL     1       2.475   7.081  18.466  0.00  0.00    +0.000 A 
ATOM     18  C   UNL     1       2.095   8.081  17.569  0.00  0.00    +0.000 A 
ATOM     19  C   UNL     1       1.500   9.314  18.007  0.00  0.00    +0.000 A 
ATOM     20  C   UNL     1       1.182   9.658  19.353  0.00  0.00    +0.000 A 
ATOM     21  C   UNL     1       1.489   8.796  20.374  0.00  0.00    +0.000 A 
ATOM     22  C   UNL     1       2.166   7.462  19.897  0.00  0.00    +0.000 A 
BRANCH  17  24
ATOM     23  C   UNL     1       4.799   5.674  17.965  0.00  0.00    +0.000 C 
ATOM     24  C   UNL     1       3.292   5.787  17.721  0.00  0.00    +0.000 C 
BRANCH  24  25
ATOM     25  S   UNL     1       2.501   4.028  17.813  0.00  0.00    +0.000 S 
BRANCH  25  26
ATOM     26  C   UNL     1       2.116   3.475  19.518  0.00  0.00    +0.000 A 
ATOM     27  N   UNL     1       1.037   3.666  20.250  0.00  0.00    +0.000 NA
ATOM     28  N   UNL     1       1.196   2.991  21.491  0.00  0.00    +0.000 NA
ATOM     29  C   UNL     1       2.380   2.404  21.539  0.00  0.00    +0.000 A 
ATOM     30  N   UNL     1       3.009   2.750  20.327  0.00  0.00    +0.000 N 
ATOM     31  C   UNL     1       4.369   2.416  19.994  0.00  0.00    +0.000 C 
ENDBRANCH  25  26
ENDBRANCH  24  25
ENDBRANCH  17  24
ENDBRANCH   1  21
TORSDOF 5
ENDMDL
MODEL 4
REMARK VINA RESULT:      -9.0      4.338     10.592
REMARK  Name = 
REMARK  7 active torsions:
REMARK  status: ('A' for Active; 'I' for Inactive)
REMARK    1  A    between atoms: C_1  and  C_2
REMARK    2  A    between atoms: C_2  and  S_3
REMARK    3  A    between atoms: C_2  and  C_10
REMARK    4  A    between atoms: S_3  and  C_4
REMARK    5  A    between atoms: N_8  and  C_9
REMARK    6  A    between atoms: C_14  and  N_15
REMARK    7  A    between atoms: C_16  and  C_18
REMARK                            x       y       z     vdW  Elec       q    Type
REMARK                         _______ _______ _______ _____ _____    ______ ____
ROOT
ATOM      1  N   UNL     1       0.929   8.018  21.180  0.00  0.00    +0.000 N 
ATOM      2  C   UNL     1      -0.118   9.113  21.701  0.00  0.00    +0.000 C 
ATOM      3  O   UNL     1      -0.896   8.627  22.559  0.00  0.00    +0.000 OA
ATOM      4  H   UNL     1       0.823   7.184  21.767  0.00  0.00    +0.000 HD
ENDROOT
BRANCH   2   5
ATOM      5  C   UNL     1      -0.310  10.827  21.433  0.00  0.00    +0.000 A 
ATOM      6  C   UNL     1      -1.511  11.998  21.499  0.00  0.00    +0.000 A 
ATOM      7  C   UNL     1      -1.371  13.539  21.116  0.00  0.00    +0.000 A 
ATOM      8  C   UNL     1      -0.073  13.547  20.677  0.00  0.00    +0.000 A 
ATOM      9  C   UNL     1       0.950  12.630  21.144  0.00  0.00    +0.000 A 
ATOM     10  N   UNL     1       0.909  11.270  21.327  0.00  0.00    +0.000 NA
ATOM     11  C   UNL     1      -0.124  13.526  19.132  0.00  0.00    +0.000 C 
ATOM     12  C   UNL     1       0.682  14.754  18.758  0.00  0.00    +0.000 C 
ATOM     13  C   UNL     1      -0.326  15.885  18.666  0.00  0.00    +0.000 C 
ATOM     14  C   UNL     1      -0.582  16.688  19.724  0.00  0.00    +0.000 C 
ATOM     15  C   UNL     1      -1.945  16.665  20.250  0.00  0.00    +0.000 C 
ATOM     16  C   UNL     1      -2.196  15.190  20.813  0.00  0.00    +0.000 C 
ENDBRANCH   2   5
BRANCH   1  21
ATOM     17  C   UNL     1       3.708   6.042  18.716  0.00  0.00    +0.000 A 
ATOM     18  C   UNL     1       3.568   6.955  17.669  0.00  0.00    +0.000 A 
ATOM     19  C   UNL     1       2.721   8.110  17.771  0.00  0.00    +0.000 A 
ATOM     20  C   UNL     1       1.899   8.450  18.884  0.00  0.00    +0.000 A 
ATOM     21  C   UNL     1       1.909   7.668  20.011  0.00  0.00    +0.000 A 
ATOM     22  C   UNL     1       2.859   6.421  19.909  0.00  0.00    +0.000 A 
BRANCH  17  24
ATOM     23  C   UNL     1       6.330   5.177  18.770  0.00  0.00    +0.000 C 
ATOM     24  C   UNL     1       4.880   4.846  18.412  0.00  0.00    +0.000 C 
BRANCH  24  25
ATOM     25  S   UNL     1       4.495   3.028  18.940  0.00  0.00    +0.000 S 
BRANCH  25  26
ATOM     26  C   UNL     1       3.148   2.884  20.175  0.00  0.00    +0.000 A 
ATOM     27  N   UNL     1       3.202   2.620  21.464  0.00  0.00    +0.000 NA
ATOM     28  N   UNL     1       1.887   2.672  22.002  0.00  0.00    +0.000 NA
ATOM     29  C   UNL     1       1.016   2.943  21.044  0.00  0.00    +0.000 A 
ATOM     30  N   UNL     1       1.782   3.018  19.864  0.00  0.00    +0.000 N 
ATOM     31  C   UNL     1       1.229   3.187  18.547  0.00  0.00    +0.000 C 
ENDBRANCH  25  26
ENDBRANCH  24  25
ENDBRANCH  17  24
ENDBRANCH   1  21
TORSDOF 5
ENDMDL
MODEL 5
REMARK VINA RESULT:      -8.8      3.901     11.006
REMARK  Name = 
REMARK  7 active torsions:
REMARK  status: ('A' for Active; 'I' for Inactive)
REMARK    1  A    between atoms: C_1  and  C_2
REMARK    2  A    between atoms: C_2  and  S_3
REMARK    3  A    between atoms: C_2  and  C_10
REMARK    4  A    between atoms: S_3  and  C_4
REMARK    5  A    between atoms: N_8  and  C_9
REMARK    6  A    between atoms: C_14  and  N_15
REMARK    7  A    between atoms: C_16  and  C_18
REMARK                            x       y       z     vdW  Elec       q    Type
REMARK                         _______ _______ _______ _____ _____    ______ ____
ROOT
ATOM      1  N   UNL     1       2.166   9.742  18.312  0.00  0.00    +0.000 N 
ATOM      2  C   UNL     1       1.800  11.292  18.489  0.00  0.00    +0.000 C 
ATOM      3  O   UNL     1       2.539  12.018  17.779  0.00  0.00    +0.000 OA
ATOM      4  H   UNL     1       2.841   9.669  17.545  0.00  0.00    +0.000 HD
ENDROOT
BRANCH   2   5
ATOM      5  C   UNL     1       0.535  12.148  19.335  0.00  0.00    +0.000 A 
ATOM      6  C   UNL     1       0.102  13.724  19.717  0.00  0.00    +0.000 A 
ATOM      7  C   UNL     1      -1.141  14.191  20.599  0.00  0.00    +0.000 A 
ATOM      8  C   UNL     1      -1.630  12.966  20.969  0.00  0.00    +0.000 A 
ATOM      9  C   UNL     1      -1.478  11.757  20.180  0.00  0.00    +0.000 A 
ATOM     10  N   UNL     1      -0.376  11.243  19.544  0.00  0.00    +0.000 NA
ATOM     11  C   UNL     1      -1.144  12.708  22.414  0.00  0.00    +0.000 C 
ATOM     12  C   UNL     1      -2.440  12.454  23.157  0.00  0.00    +0.000 C 
ATOM     13  C   UNL     1      -2.885  13.813  23.667  0.00  0.00    +0.000 C 
ATOM     14  C   UNL     1      -3.741  14.585  22.958  0.00  0.00    +0.000 C 
ATOM     15  C   UNL     1      -3.233  15.879  22.504  0.00  0.00    +0.000 C 
ATOM     16  C   UNL     1      -2.044  15.572  21.478  0.00  0.00    +0.000 C 
ENDBRANCH   2   5
BRANCH   1  21
ATOM     17  C   UNL     1       2.513   5.630  19.128  0.00  0.00    +0.000 A 
ATOM     18  C   UNL     1       1.944   5.739  20.399  0.00  0.00    +0.000 A 
ATOM     19  C   UNL     1       1.448   6.988  20.908  0.00  0.00    +0.000 A 
ATOM     20  C   UNL     1       1.508   8.246  20.243  0.00  0.00    +0.000 A 
ATOM     21  C   UNL     1       2.032   8.332  18.979  0.00  0.00    +0.000 A 
ATOM     22  C   UNL     1       2.546   6.961  18.411  0.00  0.00    +0.000 A 
BRANCH  17  24
ATOM     23  C   UNL     1       2.344   3.519  17.355  0.00  0.00    +0.000 C 
ATOM     24  C   UNL     1       2.883   4.026  18.695  0.00  0.00    +0.000 C 
BRANCH  24  25
ATOM     25  S   UNL     1       4.699   3.410  18.922  0.00  0.00    +0.000 S 
BRANCH  25  26
ATOM     26  C   UNL     1       5.959   4.728  18.734  0.00  0.00    +0.000 A 
ATOM     27  N   UNL     1       6.819   5.212  19.606  0.00  0.00    +0.000 NA
ATOM     28  N   UNL     1       7.627   6.191  18.963  0.00  0.00    +0.000 NA
ATOM     29  C   UNL     1       7.252   6.330  17.703  0.00  0.00    +0.000 A 
ATOM     30  N   UNL     1       6.154   5.462  17.549  0.00  0.00    +0.000 N 
ATOM     31  C   UNL     1       5.354   5.368  16.357  0.00  0.00    +0.000 C 
ENDBRANCH  25  26
ENDBRANCH  24  25
ENDBRANCH  17  24
ENDBRANCH   1  21
TORSDOF 5
ENDMDL
MODEL 6
REMARK VINA RESULT:      -8.8      4.251     11.456
REMARK  Name = 
REMARK  7 active torsions:
REMARK  status: ('A' for Active; 'I' for Inactive)
REMARK    1  A    between atoms: C_1  and  C_2
REMARK    2  A    between atoms: C_2  and  S_3
REMARK    3  A    between atoms: C_2  and  C_10
REMARK    4  A    between atoms: S_3  and  C_4
REMARK    5  A    between atoms: N_8  and  C_9
REMARK    6  A    between atoms: C_14  and  N_15
REMARK    7  A    between atoms: C_16  and  C_18
REMARK                            x       y       z     vdW  Elec       q    Type
REMARK                         _______ _______ _______ _____ _____    ______ ____
ROOT
ATOM      1  N   UNL     1       1.268   8.782  21.615  0.00  0.00    +0.000 N 
ATOM      2  C   UNL     1       0.550  10.180  21.929  0.00  0.00    +0.000 C 
ATOM      3  O   UNL     1       0.121  10.217  23.109  0.00  0.00    +0.000 OA
ATOM      4  H   UNL     1       1.341   8.267  22.498  0.00  0.00    +0.000 HD
ENDROOT
BRANCH   2   5
ATOM      5  C   UNL     1       0.367  11.672  21.041  0.00  0.00    +0.000 A 
ATOM      6  C   UNL     1       1.323  12.878  20.370  0.00  0.00    +0.000 A 
ATOM      7  C   UNL     1       0.823  14.206  19.643  0.00  0.00    +0.000 A 
ATOM      8  C   UNL     1      -0.528  14.067  19.821  0.00  0.00    +0.000 A 
ATOM      9  C   UNL     1      -1.206  12.790  19.947  0.00  0.00    +0.000 A 
ATOM     10  N   UNL     1      -0.887  11.684  20.695  0.00  0.00    +0.000 NA
ATOM     11  C   UNL     1      -0.920  14.983  21.004  0.00  0.00    +0.000 C 
ATOM     12  C   UNL     1      -1.993  15.864  20.398  0.00  0.00    +0.000 C 
ATOM     13  C   UNL     1      -1.258  17.074  19.849  0.00  0.00    +0.000 C 
ATOM     14  C   UNL     1      -0.848  17.124  18.561  0.00  0.00    +0.000 C 
ATOM     15  C   UNL     1       0.593  17.221  18.335  0.00  0.00    +0.000 C 
ATOM     16  C   UNL     1       1.238  15.869  18.896  0.00  0.00    +0.000 C 
ENDBRANCH   2   5
BRANCH   1  21
ATOM     17  C   UNL     1       2.148   5.360  19.332  0.00  0.00    +0.000 A 
ATOM     18  C   UNL     1       2.376   6.086  18.162  0.00  0.00    +0.000 A 
ATOM     19  C   UNL     1       2.313   7.521  18.128  0.00  0.00    +0.000 A 
ATOM     20  C   UNL     1       1.975   8.370  19.222  0.00  0.00    +0.000 A 
ATOM     21  C   UNL     1       1.723   7.832  20.458  0.00  0.00    +0.000 A 
ATOM     22  C   UNL     1       1.822   6.265  20.500  0.00  0.00    +0.000 A 
BRANCH  17  24
ATOM     23  C   UNL     1       1.204   2.784  19.013  0.00  0.00    +0.000 C 
ATOM     24  C   UNL     1       2.429   3.691  19.152  0.00  0.00    +0.000 C 
BRANCH  24  25
ATOM     25  S   UNL     1       3.788   3.119  17.906  0.00  0.00    +0.000 S 
BRANCH  25  26
ATOM     26  C   UNL     1       5.402   3.955  18.133  0.00  0.00    +0.000 A 
ATOM     27  N   UNL     1       5.965   4.434  19.223  0.00  0.00    +0.000 NA
ATOM     28  N   UNL     1       7.252   4.942  18.894  0.00  0.00    +0.000 NA
ATOM     29  C   UNL     1       7.477   4.801  17.598  0.00  0.00    +0.000 A 
ATOM     30  N   UNL     1       6.294   4.237  17.081  0.00  0.00    +0.000 N 
ATOM     31  C   UNL     1       6.048   4.009  15.682  0.00  0.00    +0.000 C 
ENDBRANCH  25  26
ENDBRANCH  24  25
ENDBRANCH  17  24
ENDBRANCH   1  21
TORSDOF 5
ENDMDL
MODEL 7
REMARK VINA RESULT:      -8.7      3.856     11.166
REMARK  Name = 
REMARK  7 active torsions:
REMARK  status: ('A' for Active; 'I' for Inactive)
REMARK    1  A    between atoms: C_1  and  C_2
REMARK    2  A    between atoms: C_2  and  S_3
REMARK    3  A    between atoms: C_2  and  C_10
REMARK    4  A    between atoms: S_3  and  C_4
REMARK    5  A    between atoms: N_8  and  C_9
REMARK    6  A    between atoms: C_14  and  N_15
REMARK    7  A    between atoms: C_16  and  C_18
REMARK                            x       y       z     vdW  Elec       q    Type
REMARK                         _______ _______ _______ _____ _____    ______ ____
ROOT
ATOM      1  N   UNL     1       1.831   9.693  18.530  0.00  0.00    +0.000 N 
ATOM      2  C   UNL     1       1.251  11.107  19.013  0.00  0.00    +0.000 C 
ATOM      3  O   UNL     1       1.776  12.055  18.378  0.00  0.00    +0.000 OA
ATOM      4  H   UNL     1       2.412   9.863  17.703  0.00  0.00    +0.000 HD
ENDROOT
BRANCH   2   5
ATOM      5  C   UNL     1      -0.021  11.582  20.109  0.00  0.00    +0.000 A 
ATOM      6  C   UNL     1      -1.640  12.028  20.063  0.00  0.00    +0.000 A 
ATOM      7  C   UNL     1      -2.544  12.485  21.294  0.00  0.00    +0.000 A 
ATOM      8  C   UNL     1      -1.601  12.468  22.288  0.00  0.00    +0.000 A 
ATOM      9  C   UNL     1      -0.435  11.604  22.289  0.00  0.00    +0.000 A 
ATOM     10  N   UNL     1       0.461  11.319  21.289  0.00  0.00    +0.000 NA
ATOM     11  C   UNL     1      -1.164  13.933  22.514  0.00  0.00    +0.000 C 
ATOM     12  C   UNL     1      -1.426  14.132  23.993  0.00  0.00    +0.000 C 
ATOM     13  C   UNL     1      -2.847  14.658  24.083  0.00  0.00    +0.000 C 
ATOM     14  C   UNL     1      -3.896  13.825  24.269  0.00  0.00    +0.000 C 
ATOM     15  C   UNL     1      -4.895  13.781  23.203  0.00  0.00    +0.000 C 
ATOM     16  C   UNL     1      -4.160  13.197  21.908  0.00  0.00    +0.000 C 
ENDBRANCH   2   5
BRANCH   1  21
ATOM     17  C   UNL     1       2.915   5.629  18.568  0.00  0.00    +0.000 A 
ATOM     18  C   UNL     1       2.492   5.432  19.884  0.00  0.00    +0.000 A 
ATOM     19  C   UNL     1       1.871   6.477  20.650  0.00  0.00    +0.000 A 
ATOM     20  C   UNL     1       1.652   7.816  20.217  0.00  0.00    +0.000 A 
ATOM     21  C   UNL     1       2.001   8.194  18.945  0.00  0.00    +0.000 A 
ATOM     22  C   UNL     1       2.653   7.042  18.098  0.00  0.00    +0.000 A 
BRANCH  17  24
ATOM     23  C   UNL     1       2.429   3.248  17.254  0.00  0.00    +0.000 C 
ATOM     24  C   UNL     1       3.479   4.205  17.824  0.00  0.00    +0.000 C 
BRANCH  24  25
ATOM     25  S   UNL     1       4.955   4.339  16.586  0.00  0.00    +0.000 S 
BRANCH  25  26
ATOM     26  C   UNL     1       6.024   5.801  16.862  0.00  0.00    +0.000 A 
ATOM     27  N   UNL     1       5.903   7.037  16.421  0.00  0.00    +0.000 NA
ATOM     28  N   UNL     1       6.960   7.824  16.956  0.00  0.00    +0.000 NA
ATOM     29  C   UNL     1       7.748   7.072  17.707  0.00  0.00    +0.000 A 
ATOM     30  N   UNL     1       7.214   5.773  17.612  0.00  0.00    +0.000 N 
ATOM     31  C   UNL     1       7.820   4.602  18.187  0.00  0.00    +0.000 C 
ENDBRANCH  25  26
ENDBRANCH  24  25
ENDBRANCH  17  24
ENDBRANCH   1  21
TORSDOF 5
ENDMDL
MODEL 8
REMARK VINA RESULT:      -8.7      1.125      1.552
REMARK  Name = 
REMARK  7 active torsions:
REMARK  status: ('A' for Active; 'I' for Inactive)
REMARK    1  A    between atoms: C_1  and  C_2
REMARK    2  A    between atoms: C_2  and  S_3
REMARK    3  A    between atoms: C_2  and  C_10
REMARK    4  A    between atoms: S_3  and  C_4
REMARK    5  A    between atoms: N_8  and  C_9
REMARK    6  A    between atoms: C_14  and  N_15
REMARK    7  A    between atoms: C_16  and  C_18
REMARK                            x       y       z     vdW  Elec       q    Type
REMARK                         _______ _______ _______ _____ _____    ______ ____
ROOT
ATOM      1  N   UNL     1       1.277  10.430  19.490  0.00  0.00    +0.000 N 
ATOM      2  C   UNL     1       1.830   9.357  18.437  0.00  0.00    +0.000 C 
ATOM      3  O   UNL     1       2.069   9.892  17.326  0.00  0.00    +0.000 OA
ATOM      4  H   UNL     1       1.368  11.358  19.065  0.00  0.00    +0.000 HD
ENDROOT
BRANCH   2   5
ATOM      5  C   UNL     1       2.286   7.676  18.548  0.00  0.00    +0.000 A 
ATOM      6  C   UNL     1       3.024   6.494  17.611  0.00  0.00    +0.000 A 
ATOM      7  C   UNL     1       3.247   4.963  17.998  0.00  0.00    +0.000 A 
ATOM      8  C   UNL     1       2.608   4.940  19.210  0.00  0.00    +0.000 A 
ATOM      9  C   UNL     1       2.483   6.090  20.086  0.00  0.00    +0.000 A 
ATOM     10  N   UNL     1       2.131   7.388  19.807  0.00  0.00    +0.000 NA
ATOM     11  C   UNL     1       1.215   4.316  18.969  0.00  0.00    +0.000 C 
ATOM     12  C   UNL     1       1.199   3.157  19.945  0.00  0.00    +0.000 C 
ATOM     13  C   UNL     1       1.742   1.970  19.170  0.00  0.00    +0.000 C 
ATOM     14  C   UNL     1       3.056   1.649  19.204  0.00  0.00    +0.000 C 
ATOM     15  C   UNL     1       3.779   1.713  17.935  0.00  0.00    +0.000 C 
ATOM     16  C   UNL     1       3.766   3.245  17.475  0.00  0.00    +0.000 C 
ENDBRANCH   2   5
BRANCH   1  21
ATOM     17  C   UNL     1      -1.226  11.899  22.536  0.00  0.00    +0.000 A 
ATOM     18  C   UNL     1      -1.170  10.719  23.279  0.00  0.00    +0.000 A 
ATOM     19  C   UNL     1      -0.367   9.599  22.874  0.00  0.00    +0.000 A 
ATOM     20  C   UNL     1       0.414   9.515  21.685  0.00  0.00    +0.000 A 
ATOM     21  C   UNL     1       0.484  10.585  20.831  0.00  0.00    +0.000 A 
ATOM     22  C   UNL     1      -0.371  11.820  21.291  0.00  0.00    +0.000 A 
BRANCH  17  24
ATOM     23  C   UNL     1      -1.915  14.561  22.797  0.00  0.00    +0.000 C 
ATOM     24  C   UNL     1      -2.122  13.130  23.297  0.00  0.00    +0.000 C 
BRANCH  24  25
ATOM     25  S   UNL     1      -4.005  12.834  23.611  0.00  0.00    +0.000 S 
BRANCH  25  26
ATOM     26  C   UNL     1      -5.100  13.971  22.680  0.00  0.00    +0.000 A 
ATOM     27  N   UNL     1      -5.518  15.183  22.980  0.00  0.00    +0.000 NA
ATOM     28  N   UNL     1      -6.310  15.678  21.907  0.00  0.00    +0.000 NA
ATOM     29  C   UNL     1      -6.403  14.765  20.955  0.00  0.00    +0.000 A 
ATOM     30  N   UNL     1      -5.699  13.649  21.448  0.00  0.00    +0.000 N 
ATOM     31  C   UNL     1      -5.631  12.374  20.784  0.00  0.00    +0.000 C 
ENDBRANCH  25  26
ENDBRANCH  24  25
ENDBRANCH  17  24
ENDBRANCH   1  21
TORSDOF 5
ENDMDL
MODEL 9
REMARK VINA RESULT:      -8.6      1.984      2.684
REMARK  Name = 
REMARK  7 active torsions:
REMARK  status: ('A' for Active; 'I' for Inactive)
REMARK    1  A    between atoms: C_1  and  C_2
REMARK    2  A    between atoms: C_2  and  S_3
REMARK    3  A    between atoms: C_2  and  C_10
REMARK    4  A    between atoms: S_3  and  C_4
REMARK    5  A    between atoms: N_8  and  C_9
REMARK    6  A    between atoms: C_14  and  N_15
REMARK    7  A    between atoms: C_16  and  C_18
REMARK                            x       y       z     vdW  Elec       q    Type
REMARK                         _______ _______ _______ _____ _____    ______ ____
ROOT
ATOM      1  N   UNL     1       1.288  10.507  19.508  0.00  0.00    +0.000 N 
ATOM      2  C   UNL     1       1.854   9.435  18.461  0.00  0.00    +0.000 C 
ATOM      3  O   UNL     1       2.123   9.974  17.358  0.00  0.00    +0.000 OA
ATOM      4  H   UNL     1       1.397  11.436  19.090  0.00  0.00    +0.000 HD
ENDROOT
BRANCH   2   5
ATOM      5  C   UNL     1       2.291   7.748  18.572  0.00  0.00    +0.000 A 
ATOM      6  C   UNL     1       3.076   6.575  17.663  0.00  0.00    +0.000 A 
ATOM      7  C   UNL     1       3.266   5.038  18.038  0.00  0.00    +0.000 A 
ATOM      8  C   UNL     1       2.555   5.000  19.209  0.00  0.00    +0.000 A 
ATOM      9  C   UNL     1       2.385   6.138  20.095  0.00  0.00    +0.000 A 
ATOM     10  N   UNL     1       2.059   7.442  19.815  0.00  0.00    +0.000 NA
ATOM     11  C   UNL     1       1.174   4.390  18.875  0.00  0.00    +0.000 C 
ATOM     12  C   UNL     1       1.092   3.217  19.830  0.00  0.00    +0.000 C 
ATOM     13  C   UNL     1       1.674   2.038  19.070  0.00  0.00    +0.000 C 
ATOM     14  C   UNL     1       2.981   1.706  19.178  0.00  0.00    +0.000 C 
ATOM     15  C   UNL     1       3.779   1.785  17.956  0.00  0.00    +0.000 C 
ATOM     16  C   UNL     1       3.803   3.323  17.520  0.00  0.00    +0.000 C 
ENDBRANCH   2   5
BRANCH   1  21
ATOM     17  C   UNL     1      -1.486  11.808  22.391  0.00  0.00    +0.000 A 
ATOM     18  C   UNL     1      -1.205  10.759  23.270  0.00  0.00    +0.000 A 
ATOM     19  C   UNL     1      -0.192   9.780  22.990  0.00  0.00    +0.000 A 
ATOM     20  C   UNL     1       0.602   9.709  21.809  0.00  0.00    +0.000 A 
ATOM     21  C   UNL     1       0.467  10.662  20.832  0.00  0.00    +0.000 A 
ATOM     22  C   UNL     1      -0.620  11.750  21.153  0.00  0.00    +0.000 A 
BRANCH  17  24
ATOM     23  C   UNL     1      -3.870  12.348  23.677  0.00  0.00    +0.000 C 
ATOM     24  C   UNL     1      -2.615  12.919  23.012  0.00  0.00    +0.000 C 
BRANCH  24  25
ATOM     25  S   UNL     1      -1.961  14.402  24.062  0.00  0.00    +0.000 S 
BRANCH  25  26
ATOM     26  C   UNL     1      -3.229  15.677  24.417  0.00  0.00    +0.000 A 
ATOM     27  N   UNL     1      -4.497  15.736  24.063  0.00  0.00    +0.000 NA
ATOM     28  N   UNL     1      -5.082  16.900  24.632  0.00  0.00    +0.000 NA
ATOM     29  C   UNL     1      -4.173  17.575  25.315  0.00  0.00    +0.000 A 
ATOM     30  N   UNL     1      -2.975  16.856  25.141  0.00  0.00    +0.000 N 
ATOM     31  C   UNL     1      -1.690  17.289  25.625  0.00  0.00    +0.000 C 
ENDBRANCH  25  26
ENDBRANCH  24  25
ENDBRANCH  17  24
ENDBRANCH   1  21
TORSDOF 5
ENDMDL
