MODEL 1
REMARK VINA RESULT:      -8.7      0.000      0.000
REMARK  Name = 
REMARK  5 active torsions:
REMARK  status: ('A' for Active; 'I' for Inactive)
REMARK    1  A    between atoms: C_1  and  N_2
REMARK    2  A    between atoms: C_3  and  C_4
REMARK    3  A    between atoms: N_6  and  C_7
REMARK    4  A    between atoms: C_7  and  C_8
REMARK    5  A    between atoms: C_10  and  C_11
REMARK                            x       y       z     vdW  Elec       q    Type
REMARK                         _______ _______ _______ _____ _____    ______ ____
ROOT
ATOM      1  C   UNL     1       1.797   7.761  19.979  0.00  0.00    +0.000 C 
ATOM      2  O   UNL     1       1.525   7.619  21.170  0.00  0.00    +0.000 OA
ATOM      3  N   UNL     1       1.556   8.934  19.303  0.00  0.00    +0.000 N 
ATOM      4  H   UNL     1       1.954   9.072  18.386  0.00  0.00    +0.000 HD
ENDROOT
BRANCH   1   7
ATOM      5  C   UNL     1       1.854   4.802  20.752  0.00  0.00    +0.000 C 
ATOM      6  N   UNL     1       2.398   5.297  19.501  0.00  0.00    +0.000 N 
ATOM      7  C   UNL     1       2.490   6.658  19.198  0.00  0.00    +0.000 A 
ATOM      8  C   UNL     1       3.235   7.093  18.169  0.00  0.00    +0.000 A 
ATOM      9  C   UNL     1       3.973   6.149  17.338  0.00  0.00    +0.000 A 
ATOM     10  C   UNL     1       4.864   6.584  16.348  0.00  0.00    +0.000 A 
ATOM     11  C   UNL     1       5.547   5.655  15.554  0.00  0.00    +0.000 A 
ATOM     12  C   UNL     1       5.326   4.290  15.727  0.00  0.00    +0.000 A 
ATOM     13  C   UNL     1       4.445   3.848  16.713  0.00  0.00    +0.000 A 
ATOM     14  C   UNL     1       3.783   4.778  17.523  0.00  0.00    +0.000 A 
ATOM     15  C   UNL     1       2.935   4.314  18.654  0.00  0.00    +0.000 A 
ATOM     16  O   UNL     1       2.772   3.108  18.821  0.00  0.00    +0.000 OA
ENDBRANCH   1   7
BRANCH   3  17
ATOM     17  C   UNL     1       0.895  10.055  19.936  0.00  0.00    +0.000 C 
BRANCH  17  18
ATOM     18  C   UNL     1       0.037  10.770  18.940  0.00  0.00    +0.000 C 
ATOM     19  C   UNL     1      -0.692  12.020  19.353  0.00  0.00    +0.000 C 
ATOM     20  C   UNL     1      -1.475  10.759  19.074  0.00  0.00    +0.000 C 
BRANCH  20  21
ATOM     21  C   UNL     1      -2.356  10.669  17.851  0.00  0.00    +0.000 A 
ATOM     22  C   UNL     1      -3.513  11.454  17.722  0.00  0.00    +0.000 A 
ATOM     23  C   UNL     1      -4.288  11.424  16.560  0.00  0.00    +0.000 A 
ATOM     24  C   UNL     1      -3.917  10.608  15.494  0.00  0.00    +0.000 A 
ATOM     25  C   UNL     1      -2.783   9.810  15.602  0.00  0.00    +0.000 A 
ATOM     26  C   UNL     1      -2.013   9.843  16.768  0.00  0.00    +0.000 A 
ENDBRANCH  20  21
ENDBRANCH  17  18
ENDBRANCH   3  17
TORSDOF 4
ENDMDL
MODEL 2
REMARK VINA RESULT:      -8.6      2.779      8.076
REMARK  Name = 
REMARK  5 active torsions:
REMARK  status: ('A' for Active; 'I' for Inactive)
REMARK    1  A    between atoms: C_1  and  N_2
REMARK    2  A    between atoms: C_3  and  C_4
REMARK    3  A    between atoms: N_6  and  C_7
REMARK    4  A    between atoms: C_7  and  C_8
REMARK    5  A    between atoms: C_10  and  C_11
REMARK                            x       y       z     vdW  Elec       q    Type
REMARK                         _______ _______ _______ _____ _____    ______ ____
ROOT
ATOM      1  C   UNL     1       2.382   6.025  19.903  0.00  0.00    +0.000 C 
ATOM      2  O   UNL     1       3.593   5.869  20.040  0.00  0.00    +0.000 OA
ATOM      3  N   UNL     1       1.524   4.974  19.674  0.00  0.00    +0.000 N 
ATOM      4  H   UNL     1       0.528   5.118  19.747  0.00  0.00    +0.000 HD
ENDROOT
BRANCH   1   7
ATOM      5  C   UNL     1       2.653   8.335  17.916  0.00  0.00    +0.000 C 
ATOM      6  N   UNL     1       1.782   8.394  19.075  0.00  0.00    +0.000 N 
ATOM      7  C   UNL     1       1.748   7.397  20.053  0.00  0.00    +0.000 A 
ATOM      8  C   UNL     1       1.144   7.601  21.235  0.00  0.00    +0.000 A 
ATOM      9  C   UNL     1       0.505   8.879  21.529  0.00  0.00    +0.000 A 
ATOM     10  C   UNL     1      -0.009   9.167  22.800  0.00  0.00    +0.000 A 
ATOM     11  C   UNL     1      -0.631  10.396  23.050  0.00  0.00    +0.000 A 
ATOM     12  C   UNL     1      -0.765  11.333  22.027  0.00  0.00    +0.000 A 
ATOM     13  C   UNL     1      -0.251  11.058  20.761  0.00  0.00    +0.000 A 
ATOM     14  C   UNL     1       0.394   9.839  20.521  0.00  0.00    +0.000 A 
ATOM     15  C   UNL     1       1.048   9.585  19.209  0.00  0.00    +0.000 A 
ATOM     16  O   UNL     1       0.956  10.431  18.323  0.00  0.00    +0.000 OA
ENDBRANCH   1   7
BRANCH   3  17
ATOM     17  C   UNL     1       2.008   3.621  19.506  0.00  0.00    +0.000 C 
BRANCH  17  18
ATOM     18  C   UNL     1       2.605   3.459  18.143  0.00  0.00    +0.000 C 
ATOM     19  C   UNL     1       3.264   2.157  17.772  0.00  0.00    +0.000 C 
ATOM     20  C   UNL     1       4.110   3.393  17.961  0.00  0.00    +0.000 C 
BRANCH  20  21
ATOM     21  C   UNL     1       4.773   4.048  16.772  0.00  0.00    +0.000 A 
ATOM     22  C   UNL     1       4.757   5.441  16.600  0.00  0.00    +0.000 A 
ATOM     23  C   UNL     1       5.434   6.051  15.541  0.00  0.00    +0.000 A 
ATOM     24  C   UNL     1       6.148   5.277  14.629  0.00  0.00    +0.000 A 
ATOM     25  C   UNL     1       6.167   3.893  14.770  0.00  0.00    +0.000 A 
ATOM     26  C   UNL     1       5.488   3.289  15.831  0.00  0.00    +0.000 A 
ENDBRANCH  20  21
ENDBRANCH  17  18
ENDBRANCH   3  17
TORSDOF 4
ENDMDL
MODEL 3
REMARK VINA RESULT:      -8.4      1.170      1.818
REMARK  Name = 
REMARK  5 active torsions:
REMARK  status: ('A' for Active; 'I' for Inactive)
REMARK    1  A    between atoms: C_1  and  N_2
REMARK    2  A    between atoms: C_3  and  C_4
REMARK    3  A    between atoms: N_6  and  C_7
REMARK    4  A    between atoms: C_7  and  C_8
REMARK    5  A    between atoms: C_10  and  C_11
REMARK                            x       y       z     vdW  Elec       q    Type
REMARK                         _______ _______ _______ _____ _____    ______ ____
ROOT
ATOM      1  C   UNL     1       1.882   8.150  19.481  0.00  0.00    +0.000 C 
ATOM      2  O   UNL     1       1.764   8.228  20.702  0.00  0.00    +0.000 OA
ATOM      3  N   UNL     1       1.476   9.154  18.635  0.00  0.00    +0.000 N 
ATOM      4  H   UNL     1       1.751   9.131  17.664  0.00  0.00    +0.000 HD
ENDROOT
BRANCH   1   7
ATOM      5  C   UNL     1       1.727   5.264  20.486  0.00  0.00    +0.000 C 
ATOM      6  N   UNL     1       2.374   5.628  19.239  0.00  0.00    +0.000 N 
ATOM      7  C   UNL     1       2.560   6.953  18.837  0.00  0.00    +0.000 A 
ATOM      8  C   UNL     1       3.390   7.264  17.828  0.00  0.00    +0.000 A 
ATOM      9  C   UNL     1       4.124   6.219  17.124  0.00  0.00    +0.000 A 
ATOM     10  C   UNL     1       5.098   6.526  16.164  0.00  0.00    +0.000 A 
ATOM     11  C   UNL     1       5.776   5.502  15.493  0.00  0.00    +0.000 A 
ATOM     12  C   UNL     1       5.469   4.168  15.757  0.00  0.00    +0.000 A 
ATOM     13  C   UNL     1       4.507   3.854  16.715  0.00  0.00    +0.000 A 
ATOM     14  C   UNL     1       3.848   4.879  17.404  0.00  0.00    +0.000 A 
ATOM     15  C   UNL     1       2.907   4.552  18.509  0.00  0.00    +0.000 A 
ATOM     16  O   UNL     1       2.668   3.374  18.759  0.00  0.00    +0.000 OA
ENDBRANCH   1   7
BRANCH   3  17
ATOM     17  C   UNL     1       0.811  10.341  19.128  0.00  0.00    +0.000 C 
BRANCH  17  18
ATOM     18  C   UNL     1      -0.666  10.223  18.916  0.00  0.00    +0.000 C 
ATOM     19  C   UNL     1      -1.200  10.007  17.525  0.00  0.00    +0.000 C 
ATOM     20  C   UNL     1      -1.437  11.328  18.217  0.00  0.00    +0.000 C 
BRANCH  20  21
ATOM     21  C   UNL     1      -2.825  11.707  18.673  0.00  0.00    +0.000 A 
ATOM     22  C   UNL     1      -3.036  12.429  19.859  0.00  0.00    +0.000 A 
ATOM     23  C   UNL     1      -4.313  12.845  20.242  0.00  0.00    +0.000 A 
ATOM     24  C   UNL     1      -5.414  12.549  19.440  0.00  0.00    +0.000 A 
ATOM     25  C   UNL     1      -5.234  11.823  18.267  0.00  0.00    +0.000 A 
ATOM     26  C   UNL     1      -3.953  11.409  17.890  0.00  0.00    +0.000 A 
ENDBRANCH  20  21
ENDBRANCH  17  18
ENDBRANCH   3  17
TORSDOF 4
ENDMDL
MODEL 4
REMARK VINA RESULT:      -8.4      1.053      1.530
REMARK  Name = 
REMARK  5 active torsions:
REMARK  status: ('A' for Active; 'I' for Inactive)
REMARK    1  A    between atoms: C_1  and  N_2
REMARK    2  A    between atoms: C_3  and  C_4
REMARK    3  A    between atoms: N_6  and  C_7
REMARK    4  A    between atoms: C_7  and  C_8
REMARK    5  A    between atoms: C_10  and  C_11
REMARK                            x       y       z     vdW  Elec       q    Type
REMARK                         _______ _______ _______ _____ _____    ______ ____
ROOT
ATOM      1  C   UNL     1       2.184   6.486  19.749  0.00  0.00    +0.000 C 
ATOM      2  O   UNL     1       1.639   6.037  20.755  0.00  0.00    +0.000 OA
ATOM      3  N   UNL     1       2.115   7.816  19.404  0.00  0.00    +0.000 N 
ATOM      4  H   UNL     1       2.718   8.175  18.679  0.00  0.00    +0.000 HD
ENDROOT
BRANCH   1   7
ATOM      5  C   UNL     1       2.866   3.554  20.292  0.00  0.00    +0.000 C 
ATOM      6  N   UNL     1       3.230   4.229  19.060  0.00  0.00    +0.000 N 
ATOM      7  C   UNL     1       3.035   5.598  18.858  0.00  0.00    +0.000 A 
ATOM      8  C   UNL     1       3.620   6.240  17.834  0.00  0.00    +0.000 A 
ATOM      9  C   UNL     1       4.481   5.520  16.902  0.00  0.00    +0.000 A 
ATOM     10  C   UNL     1       5.211   6.189  15.912  0.00  0.00    +0.000 A 
ATOM     11  C   UNL     1       6.017   5.470  15.021  0.00  0.00    +0.000 A 
ATOM     12  C   UNL     1       6.079   4.080  15.099  0.00  0.00    +0.000 A 
ATOM     13  C   UNL     1       5.361   3.407  16.086  0.00  0.00    +0.000 A 
ATOM     14  C   UNL     1       4.576   4.129  16.991  0.00  0.00    +0.000 A 
ATOM     15  C   UNL     1       3.901   3.431  18.118  0.00  0.00    +0.000 A 
ATOM     16  O   UNL     1       3.988   2.209  18.201  0.00  0.00    +0.000 OA
ENDBRANCH   1   7
BRANCH   3  17
ATOM     17  C   UNL     1       1.330   8.760  20.170  0.00  0.00    +0.000 C 
BRANCH  17  18
ATOM     18  C   UNL     1       0.671   9.740  19.250  0.00  0.00    +0.000 C 
ATOM     19  C   UNL     1       0.504  11.170  19.688  0.00  0.00    +0.000 C 
ATOM     20  C   UNL     1      -0.711  10.283  19.562  0.00  0.00    +0.000 C 
BRANCH  20  21
ATOM     21  C   UNL     1      -1.713  10.522  18.458  0.00  0.00    +0.000 A 
ATOM     22  C   UNL     1      -1.661   9.803  17.253  0.00  0.00    +0.000 A 
ATOM     23  C   UNL     1      -2.632   9.971  16.262  0.00  0.00    +0.000 A 
ATOM     24  C   UNL     1      -3.684  10.862  16.459  0.00  0.00    +0.000 A 
ATOM     25  C   UNL     1      -3.750  11.597  17.638  0.00  0.00    +0.000 A 
ATOM     26  C   UNL     1      -2.775  11.426  18.625  0.00  0.00    +0.000 A 
ENDBRANCH  20  21
ENDBRANCH  17  18
ENDBRANCH   3  17
TORSDOF 4
ENDMDL
MODEL 5
REMARK VINA RESULT:      -8.4      2.580      8.376
REMARK  Name = 
REMARK  5 active torsions:
REMARK  status: ('A' for Active; 'I' for Inactive)
REMARK    1  A    between atoms: C_1  and  N_2
REMARK    2  A    between atoms: C_3  and  C_4
REMARK    3  A    between atoms: N_6  and  C_7
REMARK    4  A    between atoms: C_7  and  C_8
REMARK    5  A    between atoms: C_10  and  C_11
REMARK                            x       y       z     vdW  Elec       q    Type
REMARK                         _______ _______ _______ _____ _____    ______ ____
ROOT
ATOM      1  C   UNL     1       1.265  10.305  18.204  0.00  0.00    +0.000 C 
ATOM      2  O   UNL     1       2.217  11.052  17.992  0.00  0.00    +0.000 OA
ATOM      3  N   UNL     1       1.352   8.940  18.061  0.00  0.00    +0.000 N 
ATOM      4  H   UNL     1       0.611   8.352  18.415  0.00  0.00    +0.000 HD
ENDROOT
BRANCH   1   7
ATOM      5  C   UNL     1       0.807  11.585  20.945  0.00  0.00    +0.000 C 
ATOM      6  N   UNL     1      -0.217  11.543  19.917  0.00  0.00    +0.000 N 
ATOM      7  C   UNL     1      -0.058  10.850  18.714  0.00  0.00    +0.000 A 
ATOM      8  C   UNL     1      -1.105  10.602  17.911  0.00  0.00    +0.000 A 
ATOM      9  C   UNL     1      -2.443  11.050  18.278  0.00  0.00    +0.000 A 
ATOM     10  C   UNL     1      -3.570  10.686  17.530  0.00  0.00    +0.000 A 
ATOM     11  C   UNL     1      -4.841  11.144  17.897  0.00  0.00    +0.000 A 
ATOM     12  C   UNL     1      -4.990  11.988  18.996  0.00  0.00    +0.000 A 
ATOM     13  C   UNL     1      -3.875  12.351  19.750  0.00  0.00    +0.000 A 
ATOM     14  C   UNL     1      -2.610  11.870  19.396  0.00  0.00    +0.000 A 
ATOM     15  C   UNL     1      -1.433  12.155  20.262  0.00  0.00    +0.000 A 
ATOM     16  O   UNL     1      -1.580  12.871  21.249  0.00  0.00    +0.000 OA
ENDBRANCH   1   7
BRANCH   3  17
ATOM     17  C   UNL     1       2.556   8.302  17.576  0.00  0.00    +0.000 C 
BRANCH  17  18
ATOM     18  C   UNL     1       2.920   7.156  18.467  0.00  0.00    +0.000 C 
ATOM     19  C   UNL     1       4.048   6.239  18.072  0.00  0.00    +0.000 C 
ATOM     20  C   UNL     1       2.628   5.727  18.046  0.00  0.00    +0.000 C 
BRANCH  20  21
ATOM     21  C   UNL     1       2.172   4.703  19.058  0.00  0.00    +0.000 A 
ATOM     22  C   UNL     1       2.502   4.820  20.418  0.00  0.00    +0.000 A 
ATOM     23  C   UNL     1       2.018   3.913  21.365  0.00  0.00    +0.000 A 
ATOM     24  C   UNL     1       1.186   2.868  20.971  0.00  0.00    +0.000 A 
ATOM     25  C   UNL     1       0.857   2.722  19.627  0.00  0.00    +0.000 A 
ATOM     26  C   UNL     1       1.345   3.631  18.685  0.00  0.00    +0.000 A 
ENDBRANCH  20  21
ENDBRANCH  17  18
ENDBRANCH   3  17
TORSDOF 4
ENDMDL
MODEL 6
REMARK VINA RESULT:      -8.3      1.644      2.943
REMARK  Name = 
REMARK  5 active torsions:
REMARK  status: ('A' for Active; 'I' for Inactive)
REMARK    1  A    between atoms: C_1  and  N_2
REMARK    2  A    between atoms: C_3  and  C_4
REMARK    3  A    between atoms: N_6  and  C_7
REMARK    4  A    between atoms: C_7  and  C_8
REMARK    5  A    between atoms: C_10  and  C_11
REMARK                            x       y       z     vdW  Elec       q    Type
REMARK                         _______ _______ _______ _____ _____    ______ ____
ROOT
ATOM      1  C   UNL     1       1.476   8.483  20.630  0.00  0.00    +0.000 C 
ATOM      2  O   UNL     1       1.560   8.640  21.846  0.00  0.00    +0.000 OA
ATOM      3  N   UNL     1       1.088   9.492  19.781  0.00  0.00    +0.000 N 
ATOM      4  H   UNL     1       1.204   9.379  18.785  0.00  0.00    +0.000 HD
ENDROOT
BRANCH   1   7
ATOM      5  C   UNL     1       2.800   8.177  17.888  0.00  0.00    +0.000 C 
ATOM      6  N   UNL     1       2.589   7.058  18.788  0.00  0.00    +0.000 N 
ATOM      7  C   UNL     1       1.873   7.167  19.983  0.00  0.00    +0.000 A 
ATOM      8  C   UNL     1       1.463   6.076  20.651  0.00  0.00    +0.000 A 
ATOM      9  C   UNL     1       1.756   4.742  20.141  0.00  0.00    +0.000 A 
ATOM     10  C   UNL     1       1.224   3.593  20.741  0.00  0.00    +0.000 A 
ATOM     11  C   UNL     1       1.536   2.324  20.240  0.00  0.00    +0.000 A 
ATOM     12  C   UNL     1       2.398   2.193  19.153  0.00  0.00    +0.000 A 
ATOM     13  C   UNL     1       2.927   3.330  18.545  0.00  0.00    +0.000 A 
ATOM     14  C   UNL     1       2.594   4.599  19.032  0.00  0.00    +0.000 A 
ATOM     15  C   UNL     1       3.058   5.820  18.318  0.00  0.00    +0.000 A 
ATOM     16  O   UNL     1       3.790   5.695  17.340  0.00  0.00    +0.000 OA
ENDBRANCH   1   7
BRANCH   3  17
ATOM     17  C   UNL     1       0.679  10.788  20.278  0.00  0.00    +0.000 C 
BRANCH  17  18
ATOM     18  C   UNL     1      -0.314  11.403  19.341  0.00  0.00    +0.000 C 
ATOM     19  C   UNL     1      -1.470  12.189  19.899  0.00  0.00    +0.000 C 
ATOM     20  C   UNL     1      -1.725  10.854  19.243  0.00  0.00    +0.000 C 
BRANCH  20  21
ATOM     21  C   UNL     1      -2.435  10.786  17.912  0.00  0.00    +0.000 A 
ATOM     22  C   UNL     1      -1.975   9.957  16.877  0.00  0.00    +0.000 A 
ATOM     23  C   UNL     1      -2.674   9.838  15.673  0.00  0.00    +0.000 A 
ATOM     24  C   UNL     1      -3.857  10.547  15.479  0.00  0.00    +0.000 A 
ATOM     25  C   UNL     1      -4.327  11.387  16.484  0.00  0.00    +0.000 A 
ATOM     26  C   UNL     1      -3.623  11.502  17.685  0.00  0.00    +0.000 A 
ENDBRANCH  20  21
ENDBRANCH  17  18
ENDBRANCH   3  17
TORSDOF 4
ENDMDL
MODEL 7
REMARK VINA RESULT:      -8.3      5.115      8.585
REMARK  Name = 
REMARK  5 active torsions:
REMARK  status: ('A' for Active; 'I' for Inactive)
REMARK    1  A    between atoms: C_1  and  N_2
REMARK    2  A    between atoms: C_3  and  C_4
REMARK    3  A    between atoms: N_6  and  C_7
REMARK    4  A    between atoms: C_7  and  C_8
REMARK    5  A    between atoms: C_10  and  C_11
REMARK                            x       y       z     vdW  Elec       q    Type
REMARK                         _______ _______ _______ _____ _____    ______ ____
ROOT
ATOM      1  C   UNL     1       5.888   6.437  16.988  0.00  0.00    +0.000 C 
ATOM      2  O   UNL     1       5.642   7.033  15.942  0.00  0.00    +0.000 OA
ATOM      3  N   UNL     1       7.032   6.667  17.715  0.00  0.00    +0.000 N 
ATOM      4  H   UNL     1       7.112   6.295  18.650  0.00  0.00    +0.000 HD
ENDROOT
BRANCH   1   7
ATOM      5  C   UNL     1       5.390   3.592  15.981  0.00  0.00    +0.000 C 
ATOM      6  N   UNL     1       4.772   4.118  17.184  0.00  0.00    +0.000 N 
ATOM      7  C   UNL     1       4.894   5.453  17.579  0.00  0.00    +0.000 A 
ATOM      8  C   UNL     1       4.102   5.972  18.532  0.00  0.00    +0.000 A 
ATOM      9  C   UNL     1       3.087   5.149  19.180  0.00  0.00    +0.000 A 
ATOM     10  C   UNL     1       2.159   5.698  20.074  0.00  0.00    +0.000 A 
ATOM     11  C   UNL     1       1.205   4.882  20.693  0.00  0.00    +0.000 A 
ATOM     12  C   UNL     1       1.189   3.511  20.444  0.00  0.00    +0.000 A 
ATOM     13  C   UNL     1       2.105   2.957  19.551  0.00  0.00    +0.000 A 
ATOM     14  C   UNL     1       3.040   3.779  18.913  0.00  0.00    +0.000 A 
ATOM     15  C   UNL     1       3.943   3.217  17.872  0.00  0.00    +0.000 A 
ATOM     16  O   UNL     1       3.898   2.013  17.632  0.00  0.00    +0.000 OA
ENDBRANCH   1   7
BRANCH   3  17
ATOM     17  C   UNL     1       8.058   7.577  17.252  0.00  0.00    +0.000 C 
BRANCH  17  18
ATOM     18  C   UNL     1       8.146   8.756  18.170  0.00  0.00    +0.000 C 
ATOM     19  C   UNL     1       7.446  10.036  17.800  0.00  0.00    +0.000 C 
ATOM     20  C   UNL     1       8.955   9.979  17.780  0.00  0.00    +0.000 C 
BRANCH  20  21
ATOM     21  C   UNL     1       9.756  10.735  18.813  0.00  0.00    +0.000 A 
ATOM     22  C   UNL     1      10.979  11.344  18.489  0.00  0.00    +0.000 A 
ATOM     23  C   UNL     1      11.684  12.106  19.425  0.00  0.00    +0.000 A 
ATOM     24  C   UNL     1      11.174  12.280  20.710  0.00  0.00    +0.000 A 
ATOM     25  C   UNL     1       9.971  11.676  21.059  0.00  0.00    +0.000 A 
ATOM     26  C   UNL     1       9.272  10.914  20.119  0.00  0.00    +0.000 A 
ENDBRANCH  20  21
ENDBRANCH  17  18
ENDBRANCH   3  17
TORSDOF 4
ENDMDL
MODEL 8
REMARK VINA RESULT:      -8.3      2.953      8.542
REMARK  Name = 
REMARK  5 active torsions:
REMARK  status: ('A' for Active; 'I' for Inactive)
REMARK    1  A    between atoms: C_1  and  N_2
REMARK    2  A    between atoms: C_3  and  C_4
REMARK    3  A    between atoms: N_6  and  C_7
REMARK    4  A    between atoms: C_7  and  C_8
REMARK    5  A    between atoms: C_10  and  C_11
REMARK                            x       y       z     vdW  Elec       q    Type
REMARK                         _______ _______ _______ _____ _____    ______ ____
ROOT
ATOM      1  C   UNL     1       1.337  10.039  18.946  0.00  0.00    +0.000 C 
ATOM      2  O   UNL     1       1.942  10.839  18.235  0.00  0.00    +0.000 OA
ATOM      3  N   UNL     1       1.539   8.681  18.867  0.00  0.00    +0.000 N 
ATOM      4  H   UNL     1       1.163   8.078  19.583  0.00  0.00    +0.000 HD
ENDROOT
BRANCH   1   7
ATOM      5  C   UNL     1       1.259   9.051  21.841  0.00  0.00    +0.000 C 
ATOM      6  N   UNL     1       0.436  10.147  21.363  0.00  0.00    +0.000 N 
ATOM      7  C   UNL     1       0.374  10.520  20.017  0.00  0.00    +0.000 A 
ATOM      8  C   UNL     1      -0.586  11.345  19.568  0.00  0.00    +0.000 A 
ATOM      9  C   UNL     1      -1.594  11.874  20.479  0.00  0.00    +0.000 A 
ATOM     10  C   UNL     1      -2.684  12.622  20.014  0.00  0.00    +0.000 A 
ATOM     11  C   UNL     1      -3.628  13.131  20.913  0.00  0.00    +0.000 A 
ATOM     12  C   UNL     1      -3.477  12.917  22.282  0.00  0.00    +0.000 A 
ATOM     13  C   UNL     1      -2.400  12.169  22.753  0.00  0.00    +0.000 A 
ATOM     14  C   UNL     1      -1.471  11.639  21.850  0.00  0.00    +0.000 A 
ATOM     15  C   UNL     1      -0.387  10.742  22.333  0.00  0.00    +0.000 A 
ATOM     16  O   UNL     1      -0.281  10.530  23.538  0.00  0.00    +0.000 OA
ENDBRANCH   1   7
BRANCH   3  17
ATOM     17  C   UNL     1       2.427   8.102  17.882  0.00  0.00    +0.000 C 
BRANCH  17  18
ATOM     18  C   UNL     1       3.041   6.849  18.424  0.00  0.00    +0.000 C 
ATOM     19  C   UNL     1       3.721   5.890  17.484  0.00  0.00    +0.000 C 
ATOM     20  C   UNL     1       2.418   5.495  18.136  0.00  0.00    +0.000 C 
BRANCH  20  21
ATOM     21  C   UNL     1       2.394   4.416  19.192  0.00  0.00    +0.000 A 
ATOM     22  C   UNL     1       3.492   3.565  19.395  0.00  0.00    +0.000 A 
ATOM     23  C   UNL     1       3.498   2.616  20.420  0.00  0.00    +0.000 A 
ATOM     24  C   UNL     1       2.403   2.502  21.273  0.00  0.00    +0.000 A 
ATOM     25  C   UNL     1       1.297   3.325  21.084  0.00  0.00    +0.000 A 
ATOM     26  C   UNL     1       1.296   4.270  20.056  0.00  0.00    +0.000 A 
ENDBRANCH  20  21
ENDBRANCH  17  18
ENDBRANCH   3  17
TORSDOF 4
ENDMDL
MODEL 9
REMARK VINA RESULT:      -8.2      1.444      2.088
REMARK  Name = 
REMARK  5 active torsions:
REMARK  status: ('A' for Active; 'I' for Inactive)
REMARK    1  A    between atoms: C_1  and  N_2
REMARK    2  A    between atoms: C_3  and  C_4
REMARK    3  A    between atoms: N_6  and  C_7
REMARK    4  A    between atoms: C_7  and  C_8
REMARK    5  A    between atoms: C_10  and  C_11
REMARK                            x       y       z     vdW  Elec       q    Type
REMARK                         _______ _______ _______ _____ _____    ______ ____
ROOT
ATOM      1  C   UNL     1       1.975   5.752  20.017  0.00  0.00    +0.000 C 
ATOM      2  O   UNL     1       1.114   5.130  20.634  0.00  0.00    +0.000 OA
ATOM      3  N   UNL     1       2.236   7.082  20.254  0.00  0.00    +0.000 N 
ATOM      4  H   UNL     1       3.063   7.506  19.860  0.00  0.00    +0.000 HD
ENDROOT
BRANCH   1   7
ATOM      5  C   UNL     1       2.767   2.797  20.064  0.00  0.00    +0.000 C 
ATOM      6  N   UNL     1       3.107   3.684  18.967  0.00  0.00    +0.000 N 
ATOM      7  C   UNL     1       2.861   5.059  18.996  0.00  0.00    +0.000 A 
ATOM      8  C   UNL     1       3.423   5.886  18.099  0.00  0.00    +0.000 A 
ATOM      9  C   UNL     1       4.312   5.366  17.067  0.00  0.00    +0.000 A 
ATOM     10  C   UNL     1       5.019   6.218  16.209  0.00  0.00    +0.000 A 
ATOM     11  C   UNL     1       5.853   5.690  15.217  0.00  0.00    +0.000 A 
ATOM     12  C   UNL     1       5.967   4.310  15.060  0.00  0.00    +0.000 A 
ATOM     13  C   UNL     1       5.273   3.454  15.914  0.00  0.00    +0.000 A 
ATOM     14  C   UNL     1       4.460   3.984  16.921  0.00  0.00    +0.000 A 
ATOM     15  C   UNL     1       3.810   3.082  17.910  0.00  0.00    +0.000 A 
ATOM     16  O   UNL     1       3.944   1.867  17.786  0.00  0.00    +0.000 OA
ENDBRANCH   1   7
BRANCH   3  17
ATOM     17  C   UNL     1       1.456   7.853  21.197  0.00  0.00    +0.000 C 
BRANCH  17  18
ATOM     18  C   UNL     1       1.077   9.168  20.591  0.00  0.00    +0.000 C 
ATOM     19  C   UNL     1       0.693  10.314  21.488  0.00  0.00    +0.000 C 
ATOM     20  C   UNL     1      -0.360   9.653  20.633  0.00  0.00    +0.000 C 
BRANCH  20  21
ATOM     21  C   UNL     1      -0.960  10.392  19.461  0.00  0.00    +0.000 A 
ATOM     22  C   UNL     1      -0.882  11.790  19.359  0.00  0.00    +0.000 A 
ATOM     23  C   UNL     1      -1.371  12.467  18.239  0.00  0.00    +0.000 A 
ATOM     24  C   UNL     1      -1.946  11.756  17.188  0.00  0.00    +0.000 A 
ATOM     25  C   UNL     1      -2.047  10.371  17.271  0.00  0.00    +0.000 A 
ATOM     26  C   UNL     1      -1.558   9.699  18.395  0.00  0.00    +0.000 A 
ENDBRANCH  20  21
ENDBRANCH  17  18
ENDBRANCH   3  17
TORSDOF 4
ENDMDL
