MODEL 1
REMARK VINA RESULT:      -8.2      0.000      0.000
REMARK  Name = 
REMARK  5 active torsions:
REMARK  status: ('A' for Active; 'I' for Inactive)
REMARK    1  A    between atoms: C_1  and  C_2
REMARK    2  A    between atoms: C_4  and  C_5
REMARK    3  A    between atoms: N_7  and  C_8
REMARK    4  A    between atoms: C_10  and  O_11
REMARK    5  A    between atoms: N_19  and  C_20
REMARK                            x       y       z     vdW  Elec       q    Type
REMARK                         _______ _______ _______ _____ _____    ______ ____
ROOT
ATOM      1  C   UNL     1       2.515   7.537  18.241  0.00  0.00    +0.000 C 
ATOM      2  O   UNL     1       3.434   7.499  17.458  0.00  0.00    +0.000 OA
ATOM      3  N   UNL     1       1.906   6.353  18.701  0.00  0.00    +0.000 N 
ATOM      4  H   UNL     1       1.240   6.506  19.446  0.00  0.00    +0.000 HD
ENDROOT
BRANCH   3   5
ATOM      5  C   UNL     1       2.379   4.998  18.337  0.00  0.00    +0.000 C 
ATOM      6  C   UNL     1       1.368   4.121  17.537  0.00  0.00    +0.000 C 
ATOM      7  C   UNL     1       1.994   2.886  18.222  0.00  0.00    +0.000 C 
ATOM      8  C   UNL     1       2.375   3.853  19.412  0.00  0.00    +0.000 C 
ATOM      9  C   UNL     1       3.766   3.610  20.019  0.00  0.00    +0.000 C 
ATOM     10  C   UNL     1       3.718   2.361  20.883  0.00  0.00    +0.000 C 
ATOM     11  O   UNL     1       2.767   2.553  21.933  0.00  0.00    +0.000 OA
ATOM     12  C   UNL     1       1.439   2.684  21.421  0.00  0.00    +0.000 C 
ATOM     13  C   UNL     1       1.316   3.914  20.524  0.00  0.00    +0.000 C 
BRANCH   7  14
ATOM     14  O   UNL     1       3.079   2.252  17.504  0.00  0.00    +0.000 OA
ATOM     15  H   UNL     1       3.771   2.927  17.381  0.00  0.00    +0.000 HD
ENDBRANCH   7  14
ENDBRANCH   3   5
BRANCH   1  19
ATOM     16  C   UNL     1       0.782  12.337  18.488  0.00  0.00    +0.000 C 
ATOM     17  C   UNL     1       1.124  10.927  18.806  0.00  0.00    +0.000 A 
ATOM     18  C   UNL     1       1.995  10.101  18.133  0.00  0.00    +0.000 A 
ATOM     19  C   UNL     1       1.934   8.824  18.755  0.00  0.00    +0.000 A 
ATOM     20  N   UNL     1       1.264   8.938  19.918  0.00  0.00    +0.000 NA
ATOM     21  N   UNL     1       0.751  10.209  19.916  0.00  0.00    +0.000 N 
BRANCH  21  22
ATOM     22  C   UNL     1      -0.033  10.673  20.993  0.00  0.00    +0.000 A 
ATOM     23  C   UNL     1       0.006   9.985  22.211  0.00  0.00    +0.000 A 
ATOM     24  C   UNL     1      -0.841  10.376  23.246  0.00  0.00    +0.000 A 
ATOM     25  C   UNL     1      -1.730  11.436  23.049  0.00  0.00    +0.000 A 
ATOM     26  C   UNL     1      -1.740  12.118  21.839  0.00  0.00    +0.000 A 
ATOM     27  F   UNL     1      -2.626  13.102  21.640  0.00  0.00    +0.000 F 
ATOM     28  C   UNL     1      -0.878  11.767  20.817  0.00  0.00    +0.000 A 
ENDBRANCH  21  22
ENDBRANCH   1  19
TORSDOF 4
ENDMDL
MODEL 2
REMARK VINA RESULT:      -8.1      3.888      8.664
REMARK  Name = 
REMARK  5 active torsions:
REMARK  status: ('A' for Active; 'I' for Inactive)
REMARK    1  A    between atoms: C_1  and  C_2
REMARK    2  A    between atoms: C_4  and  C_5
REMARK    3  A    between atoms: N_7  and  C_8
REMARK    4  A    between atoms: C_10  and  O_11
REMARK    5  A    between atoms: N_19  and  C_20
REMARK                            x       y       z     vdW  Elec       q    Type
REMARK                         _______ _______ _______ _____ _____    ______ ____
ROOT
ATOM      1  C   UNL     1       1.468   8.804  19.524  0.00  0.00    +0.000 C 
ATOM      2  O   UNL     1       1.466   8.913  20.727  0.00  0.00    +0.000 OA
ATOM      3  N   UNL     1       0.723   9.684  18.716  0.00  0.00    +0.000 N 
ATOM      4  H   UNL     1       0.906   9.576  17.728  0.00  0.00    +0.000 HD
ENDROOT
BRANCH   3   5
ATOM      5  C   UNL     1      -0.040  10.835  19.251  0.00  0.00    +0.000 C 
ATOM      6  C   UNL     1      -0.981  11.552  18.235  0.00  0.00    +0.000 C 
ATOM      7  C   UNL     1      -0.718  12.861  19.013  0.00  0.00    +0.000 C 
ATOM      8  C   UNL     1       0.666  12.226  19.431  0.00  0.00    +0.000 C 
ATOM      9  C   UNL     1       1.082  12.490  20.888  0.00  0.00    +0.000 C 
ATOM     10  C   UNL     1       1.561  13.928  21.013  0.00  0.00    +0.000 C 
ATOM     11  O   UNL     1       2.686  14.123  20.153  0.00  0.00    +0.000 OA
ATOM     12  C   UNL     1       2.326  13.986  18.777  0.00  0.00    +0.000 C 
ATOM     13  C   UNL     1       1.822  12.575  18.481  0.00  0.00    +0.000 C 
BRANCH   7  14
ATOM     14  O   UNL     1      -1.660  13.166  20.068  0.00  0.00    +0.000 OA
ATOM     15  H   UNL     1      -1.819  14.126  20.038  0.00  0.00    +0.000 HD
ENDBRANCH   7  14
ENDBRANCH   3   5
BRANCH   1  19
ATOM     16  C   UNL     1       4.905   6.368  16.633  0.00  0.00    +0.000 C 
ATOM     17  C   UNL     1       3.795   6.680  17.569  0.00  0.00    +0.000 A 
ATOM     18  C   UNL     1       3.161   7.888  17.749  0.00  0.00    +0.000 A 
ATOM     19  C   UNL     1       2.225   7.722  18.805  0.00  0.00    +0.000 A 
ATOM     20  N   UNL     1       2.099   6.409  19.073  0.00  0.00    +0.000 NA
ATOM     21  N   UNL     1       3.083   5.795  18.341  0.00  0.00    +0.000 N 
BRANCH  21  22
ATOM     22  C   UNL     1       3.257   4.397  18.395  0.00  0.00    +0.000 A 
ATOM     23  C   UNL     1       2.534   3.584  17.514  0.00  0.00    +0.000 A 
ATOM     24  C   UNL     1       2.624   2.199  17.628  0.00  0.00    +0.000 A 
ATOM     25  C   UNL     1       3.419   1.639  18.631  0.00  0.00    +0.000 A 
ATOM     26  C   UNL     1       4.145   2.461  19.483  0.00  0.00    +0.000 A 
ATOM     27  F   UNL     1       4.868   1.919  20.471  0.00  0.00    +0.000 F 
ATOM     28  C   UNL     1       4.096   3.836  19.356  0.00  0.00    +0.000 A 
ENDBRANCH  21  22
ENDBRANCH   1  19
TORSDOF 4
ENDMDL
MODEL 3
REMARK VINA RESULT:      -8.1      4.117      8.779
REMARK  Name = 
REMARK  5 active torsions:
REMARK  status: ('A' for Active; 'I' for Inactive)
REMARK    1  A    between atoms: C_1  and  C_2
REMARK    2  A    between atoms: C_4  and  C_5
REMARK    3  A    between atoms: N_7  and  C_8
REMARK    4  A    between atoms: C_10  and  O_11
REMARK    5  A    between atoms: N_19  and  C_20
REMARK                            x       y       z     vdW  Elec       q    Type
REMARK                         _______ _______ _______ _____ _____    ______ ____
ROOT
ATOM      1  C   UNL     1       1.382   8.052  20.415  0.00  0.00    +0.000 C 
ATOM      2  O   UNL     1       0.936   8.225  21.524  0.00  0.00    +0.000 OA
ATOM      3  N   UNL     1       1.096   8.954  19.372  0.00  0.00    +0.000 N 
ATOM      4  H   UNL     1       1.627   8.777  18.530  0.00  0.00    +0.000 HD
ENDROOT
BRANCH   3   5
ATOM      5  C   UNL     1       0.315  10.198  19.560  0.00  0.00    +0.000 C 
ATOM      6  C   UNL     1      -0.651  10.572  18.394  0.00  0.00    +0.000 C 
ATOM      7  C   UNL     1      -0.406  12.055  18.752  0.00  0.00    +0.000 C 
ATOM      8  C   UNL     1       0.995  11.593  19.316  0.00  0.00    +0.000 C 
ATOM      9  C   UNL     1       1.419  12.277  20.626  0.00  0.00    +0.000 C 
ATOM     10  C   UNL     1       1.869  13.697  20.319  0.00  0.00    +0.000 C 
ATOM     11  O   UNL     1       2.982  13.652  19.423  0.00  0.00    +0.000 OA
ATOM     12  C   UNL     1       2.611  13.114  18.152  0.00  0.00    +0.000 C 
ATOM     13  C   UNL     1       2.134  11.669  18.287  0.00  0.00    +0.000 C 
BRANCH   7  14
ATOM     14  O   UNL     1      -1.344  12.639  19.687  0.00  0.00    +0.000 OA
ATOM     15  H   UNL     1      -2.195  12.183  19.556  0.00  0.00    +0.000 HD
ENDBRANCH   7  14
ENDBRANCH   3   5
BRANCH   1  19
ATOM     16  C   UNL     1       3.096   3.267  19.901  0.00  0.00    +0.000 C 
ATOM     17  C   UNL     1       2.924   4.738  19.796  0.00  0.00    +0.000 A 
ATOM     18  C   UNL     1       2.141   5.552  20.582  0.00  0.00    +0.000 A 
ATOM     19  C   UNL     1       2.234   6.868  20.053  0.00  0.00    +0.000 A 
ATOM     20  N   UNL     1       3.237   6.907  19.155  0.00  0.00    +0.000 NA
ATOM     21  N   UNL     1       3.621   5.602  18.985  0.00  0.00    +0.000 N 
BRANCH  21  22
ATOM     22  C   UNL     1       4.654   5.264  18.088  0.00  0.00    +0.000 A 
ATOM     23  C   UNL     1       4.335   4.970  16.757  0.00  0.00    +0.000 A 
ATOM     24  C   UNL     1       5.336   4.538  15.891  0.00  0.00    +0.000 A 
ATOM     25  C   UNL     1       6.641   4.386  16.365  0.00  0.00    +0.000 A 
ATOM     26  C   UNL     1       6.943   4.701  17.684  0.00  0.00    +0.000 A 
ATOM     27  F   UNL     1       8.185   4.509  18.143  0.00  0.00    +0.000 F 
ATOM     28  C   UNL     1       5.968   5.169  18.544  0.00  0.00    +0.000 A 
ENDBRANCH  21  22
ENDBRANCH   1  19
TORSDOF 4
ENDMDL
MODEL 4
REMARK VINA RESULT:      -8.1      3.087      3.823
REMARK  Name = 
REMARK  5 active torsions:
REMARK  status: ('A' for Active; 'I' for Inactive)
REMARK    1  A    between atoms: C_1  and  C_2
REMARK    2  A    between atoms: C_4  and  C_5
REMARK    3  A    between atoms: N_7  and  C_8
REMARK    4  A    between atoms: C_10  and  O_11
REMARK    5  A    between atoms: N_19  and  C_20
REMARK                            x       y       z     vdW  Elec       q    Type
REMARK                         _______ _______ _______ _____ _____    ______ ____
ROOT
ATOM      1  C   UNL     1       1.613   8.592  19.764  0.00  0.00    +0.000 C 
ATOM      2  O   UNL     1       1.705   8.228  20.912  0.00  0.00    +0.000 OA
ATOM      3  N   UNL     1       2.378   7.985  18.749  0.00  0.00    +0.000 N 
ATOM      4  H   UNL     1       2.121   8.284  17.818  0.00  0.00    +0.000 HD
ENDROOT
BRANCH   3   5
ATOM      5  C   UNL     1       3.273   6.829  18.983  0.00  0.00    +0.000 C 
ATOM      6  C   UNL     1       4.184   6.426  17.783  0.00  0.00    +0.000 C 
ATOM      7  C   UNL     1       4.092   4.968  18.285  0.00  0.00    +0.000 C 
ATOM      8  C   UNL     1       2.700   5.368  18.913  0.00  0.00    +0.000 C 
ATOM      9  C   UNL     1       2.428   4.777  20.306  0.00  0.00    +0.000 C 
ATOM     10  C   UNL     1       2.080   3.304  20.158  0.00  0.00    +0.000 C 
ATOM     11  O   UNL     1       0.908   3.179  19.349  0.00  0.00    +0.000 OA
ATOM     12  C   UNL     1       1.142   3.625  18.012  0.00  0.00    +0.000 C 
ATOM     13  C   UNL     1       1.502   5.109  17.985  0.00  0.00    +0.000 C 
BRANCH   7  14
ATOM     14  O   UNL     1       5.139   4.549  19.192  0.00  0.00    +0.000 OA
ATOM     15  H   UNL     1       5.653   5.345  19.420  0.00  0.00    +0.000 HD
ENDBRANCH   7  14
ENDBRANCH   3   5
BRANCH   1  19
ATOM     16  C   UNL     1      -0.071  13.223  18.414  0.00  0.00    +0.000 C 
ATOM     17  C   UNL     1       0.029  11.767  18.688  0.00  0.00    +0.000 A 
ATOM     18  C   UNL     1       0.993  11.113  19.420  0.00  0.00    +0.000 A 
ATOM     19  C   UNL     1       0.718   9.721  19.335  0.00  0.00    +0.000 A 
ATOM     20  N   UNL     1      -0.508   9.551  18.805  0.00  0.00    +0.000 NA
ATOM     21  N   UNL     1      -0.896  10.797  18.386  0.00  0.00    +0.000 N 
BRANCH  21  22
ATOM     22  C   UNL     1      -2.144  10.992  17.758  0.00  0.00    +0.000 A 
ATOM     23  C   UNL     1      -3.189  11.578  18.481  0.00  0.00    +0.000 A 
ATOM     24  C   UNL     1      -4.450  11.681  17.901  0.00  0.00    +0.000 A 
ATOM     25  C   UNL     1      -4.662  11.182  16.614  0.00  0.00    +0.000 A 
ATOM     26  C   UNL     1      -3.608  10.621  15.904  0.00  0.00    +0.000 A 
ATOM     27  F   UNL     1      -3.828  10.104  14.689  0.00  0.00    +0.000 F 
ATOM     28  C   UNL     1      -2.341  10.549  16.451  0.00  0.00    +0.000 A 
ENDBRANCH  21  22
ENDBRANCH   1  19
TORSDOF 4
ENDMDL
MODEL 5
REMARK VINA RESULT:      -8.1      4.012      8.654
REMARK  Name = 
REMARK  5 active torsions:
REMARK  status: ('A' for Active; 'I' for Inactive)
REMARK    1  A    between atoms: C_1  and  C_2
REMARK    2  A    between atoms: C_4  and  C_5
REMARK    3  A    between atoms: N_7  and  C_8
REMARK    4  A    between atoms: C_10  and  O_11
REMARK    5  A    between atoms: N_19  and  C_20
REMARK                            x       y       z     vdW  Elec       q    Type
REMARK                         _______ _______ _______ _____ _____    ______ ____
ROOT
ATOM      1  C   UNL     1       1.411   7.976  20.451  0.00  0.00    +0.000 C 
ATOM      2  O   UNL     1       1.069   8.241  21.579  0.00  0.00    +0.000 OA
ATOM      3  N   UNL     1       1.016   8.782  19.366  0.00  0.00    +0.000 N 
ATOM      4  H   UNL     1       1.468   8.535  18.496  0.00  0.00    +0.000 HD
ENDROOT
BRANCH   3   5
ATOM      5  C   UNL     1       0.238  10.033  19.520  0.00  0.00    +0.000 C 
ATOM      6  C   UNL     1      -0.692  10.401  18.323  0.00  0.00    +0.000 C 
ATOM      7  C   UNL     1      -0.448  11.886  18.674  0.00  0.00    +0.000 C 
ATOM      8  C   UNL     1       0.933  11.421  19.283  0.00  0.00    +0.000 C 
ATOM      9  C   UNL     1       1.323  12.115  20.598  0.00  0.00    +0.000 C 
ATOM     10  C   UNL     1       1.792  13.528  20.291  0.00  0.00    +0.000 C 
ATOM     11  O   UNL     1       2.929  13.468  19.427  0.00  0.00    +0.000 OA
ATOM     12  C   UNL     1       2.592  12.920  18.151  0.00  0.00    +0.000 C 
ATOM     13  C   UNL     1       2.102  11.479  18.286  0.00  0.00    +0.000 C 
BRANCH   7  14
ATOM     14  O   UNL     1      -1.409  12.484  19.576  0.00  0.00    +0.000 OA
ATOM     15  H   UNL     1      -1.830  13.219  19.095  0.00  0.00    +0.000 HD
ENDBRANCH   7  14
ENDBRANCH   3   5
BRANCH   1  19
ATOM     16  C   UNL     1       3.018   3.148  19.986  0.00  0.00    +0.000 C 
ATOM     17  C   UNL     1       2.886   4.623  19.876  0.00  0.00    +0.000 A 
ATOM     18  C   UNL     1       2.103   5.457  20.640  0.00  0.00    +0.000 A 
ATOM     19  C   UNL     1       2.243   6.770  20.113  0.00  0.00    +0.000 A 
ATOM     20  N   UNL     1       3.270   6.783  19.243  0.00  0.00    +0.000 NA
ATOM     21  N   UNL     1       3.626   5.468  19.084  0.00  0.00    +0.000 N 
BRANCH  21  22
ATOM     22  C   UNL     1       4.675   5.104  18.216  0.00  0.00    +0.000 A 
ATOM     23  C   UNL     1       5.990   5.103  18.695  0.00  0.00    +0.000 A 
ATOM     24  C   UNL     1       7.039   4.843  17.818  0.00  0.00    +0.000 A 
ATOM     25  C   UNL     1       6.769   4.604  16.468  0.00  0.00    +0.000 A 
ATOM     26  C   UNL     1       5.456   4.590  16.015  0.00  0.00    +0.000 A 
ATOM     27  F   UNL     1       5.207   4.406  14.712  0.00  0.00    +0.000 F 
ATOM     28  C   UNL     1       4.402   4.806  16.881  0.00  0.00    +0.000 A 
ENDBRANCH  21  22
ENDBRANCH   1  19
TORSDOF 4
ENDMDL
MODEL 6
REMARK VINA RESULT:      -8.0      3.617      8.050
REMARK  Name = 
REMARK  5 active torsions:
REMARK  status: ('A' for Active; 'I' for Inactive)
REMARK    1  A    between atoms: C_1  and  C_2
REMARK    2  A    between atoms: C_4  and  C_5
REMARK    3  A    between atoms: N_7  and  C_8
REMARK    4  A    between atoms: C_10  and  O_11
REMARK    5  A    between atoms: N_19  and  C_20
REMARK                            x       y       z     vdW  Elec       q    Type
REMARK                         _______ _______ _______ _____ _____    ______ ____
ROOT
ATOM      1  C   UNL     1       2.005   9.748  18.231  0.00  0.00    +0.000 C 
ATOM      2  O   UNL     1       2.485  10.527  17.444  0.00  0.00    +0.000 OA
ATOM      3  N   UNL     1       1.094  10.180  19.215  0.00  0.00    +0.000 N 
ATOM      4  H   UNL     1       0.665   9.422  19.727  0.00  0.00    +0.000 HD
ENDROOT
BRANCH   3   5
ATOM      5  C   UNL     1       0.600  11.573  19.312  0.00  0.00    +0.000 C 
ATOM      6  C   UNL     1       1.616  12.612  19.877  0.00  0.00    +0.000 C 
ATOM      7  C   UNL     1       0.410  13.379  20.462  0.00  0.00    +0.000 C 
ATOM      8  C   UNL     1      -0.338  11.989  20.501  0.00  0.00    +0.000 C 
ATOM      9  C   UNL     1      -1.819  12.043  20.090  0.00  0.00    +0.000 C 
ATOM     10  C   UNL     1      -2.626  12.651  21.227  0.00  0.00    +0.000 C 
ATOM     11  O   UNL     1      -2.483  11.835  22.391  0.00  0.00    +0.000 OA
ATOM     12  C   UNL     1      -1.137  11.834  22.871  0.00  0.00    +0.000 C 
ATOM     13  C   UNL     1      -0.186  11.239  21.834  0.00  0.00    +0.000 C 
BRANCH   7  14
ATOM     14  O   UNL     1      -0.147  14.414  19.618  0.00  0.00    +0.000 OA
ATOM     15  H   UNL     1      -1.042  14.124  19.366  0.00  0.00    +0.000 HD
ENDBRANCH   7  14
ENDBRANCH   3   5
BRANCH   1  19
ATOM     16  C   UNL     1       4.532   5.343  17.668  0.00  0.00    +0.000 C 
ATOM     17  C   UNL     1       3.528   6.373  18.038  0.00  0.00    +0.000 A 
ATOM     18  C   UNL     1       3.406   7.648  17.535  0.00  0.00    +0.000 A 
ATOM     19  C   UNL     1       2.356   8.286  18.249  0.00  0.00    +0.000 A 
ATOM     20  N   UNL     1       1.689   7.359  18.963  0.00  0.00    +0.000 NA
ATOM     21  N   UNL     1       2.433   6.213  18.853  0.00  0.00    +0.000 N 
BRANCH  21  22
ATOM     22  C   UNL     1       2.032   5.027  19.500  0.00  0.00    +0.000 A 
ATOM     23  C   UNL     1       2.366   4.836  20.845  0.00  0.00    +0.000 A 
ATOM     24  C   UNL     1       2.063   3.625  21.462  0.00  0.00    +0.000 A 
ATOM     25  C   UNL     1       1.446   2.610  20.727  0.00  0.00    +0.000 A 
ATOM     26  C   UNL     1       1.105   2.825  19.398  0.00  0.00    +0.000 A 
ATOM     27  F   UNL     1       0.556   1.833  18.686  0.00  0.00    +0.000 F 
ATOM     28  C   UNL     1       1.363   4.035  18.784  0.00  0.00    +0.000 A 
ENDBRANCH  21  22
ENDBRANCH   1  19
TORSDOF 4
ENDMDL
MODEL 7
REMARK VINA RESULT:      -8.0      2.121      3.209
REMARK  Name = 
REMARK  5 active torsions:
REMARK  status: ('A' for Active; 'I' for Inactive)
REMARK    1  A    between atoms: C_1  and  C_2
REMARK    2  A    between atoms: C_4  and  C_5
REMARK    3  A    between atoms: N_7  and  C_8
REMARK    4  A    between atoms: C_10  and  O_11
REMARK    5  A    between atoms: N_19  and  C_20
REMARK                            x       y       z     vdW  Elec       q    Type
REMARK                         _______ _______ _______ _____ _____    ______ ____
ROOT
ATOM      1  C   UNL     1       2.781   6.593  19.708  0.00  0.00    +0.000 C 
ATOM      2  O   UNL     1       2.923   5.653  20.453  0.00  0.00    +0.000 OA
ATOM      3  N   UNL     1       3.516   6.685  18.510  0.00  0.00    +0.000 N 
ATOM      4  H   UNL     1       3.217   7.443  17.912  0.00  0.00    +0.000 HD
ENDROOT
BRANCH   3   5
ATOM      5  C   UNL     1       4.439   5.628  18.036  0.00  0.00    +0.000 C 
ATOM      6  C   UNL     1       4.659   5.566  16.493  0.00  0.00    +0.000 C 
ATOM      7  C   UNL     1       4.859   4.042  16.647  0.00  0.00    +0.000 C 
ATOM      8  C   UNL     1       3.939   4.143  17.927  0.00  0.00    +0.000 C 
ATOM      9  C   UNL     1       4.395   3.282  19.117  0.00  0.00    +0.000 C 
ATOM     10  C   UNL     1       4.054   1.828  18.833  0.00  0.00    +0.000 C 
ATOM     11  O   UNL     1       2.640   1.702  18.666  0.00  0.00    +0.000 OA
ATOM     12  C   UNL     1       2.182   2.406  17.510  0.00  0.00    +0.000 C 
ATOM     13  C   UNL     1       2.448   3.905  17.641  0.00  0.00    +0.000 C 
BRANCH   7  14
ATOM     14  O   UNL     1       6.224   3.603  16.838  0.00  0.00    +0.000 OA
ATOM     15  H   UNL     1       6.570   3.360  15.960  0.00  0.00    +0.000 HD
ENDBRANCH   7  14
ENDBRANCH   3   5
BRANCH   1  19
ATOM     16  C   UNL     1      -0.105   9.998  22.194  0.00  0.00    +0.000 C 
ATOM     17  C   UNL     1       0.637   9.255  21.143  0.00  0.00    +0.000 A 
ATOM     18  C   UNL     1       1.161   7.985  21.222  0.00  0.00    +0.000 A 
ATOM     19  C   UNL     1       1.851   7.736  20.005  0.00  0.00    +0.000 A 
ATOM     20  N   UNL     1       1.533   8.699  19.119  0.00  0.00    +0.000 NA
ATOM     21  N   UNL     1       0.826   9.630  19.835  0.00  0.00    +0.000 N 
BRANCH  21  22
ATOM     22  C   UNL     1       0.342  10.801  19.217  0.00  0.00    +0.000 A 
ATOM     23  C   UNL     1       1.097  11.977  19.298  0.00  0.00    +0.000 A 
ATOM     24  C   UNL     1       0.578  13.161  18.779  0.00  0.00    +0.000 A 
ATOM     25  C   UNL     1      -0.693  13.164  18.201  0.00  0.00    +0.000 A 
ATOM     26  C   UNL     1      -1.419  11.983  18.112  0.00  0.00    +0.000 A 
ATOM     27  F   UNL     1      -2.655  12.001  17.599  0.00  0.00    +0.000 F 
ATOM     28  C   UNL     1      -0.901  10.793  18.587  0.00  0.00    +0.000 A 
ENDBRANCH  21  22
ENDBRANCH   1  19
TORSDOF 4
ENDMDL
MODEL 8
REMARK VINA RESULT:      -7.9      2.192      3.289
REMARK  Name = 
REMARK  5 active torsions:
REMARK  status: ('A' for Active; 'I' for Inactive)
REMARK    1  A    between atoms: C_1  and  C_2
REMARK    2  A    between atoms: C_4  and  C_5
REMARK    3  A    between atoms: N_7  and  C_8
REMARK    4  A    between atoms: C_10  and  O_11
REMARK    5  A    between atoms: N_19  and  C_20
REMARK                            x       y       z     vdW  Elec       q    Type
REMARK                         _______ _______ _______ _____ _____    ______ ____
ROOT
ATOM      1  C   UNL     1       2.708   6.623  19.845  0.00  0.00    +0.000 C 
ATOM      2  O   UNL     1       2.888   5.696  20.597  0.00  0.00    +0.000 OA
ATOM      3  N   UNL     1       3.419   6.722  18.633  0.00  0.00    +0.000 N 
ATOM      4  H   UNL     1       3.090   7.466  18.033  0.00  0.00    +0.000 HD
ENDROOT
BRANCH   3   5
ATOM      5  C   UNL     1       4.361   5.685  18.153  0.00  0.00    +0.000 C 
ATOM      6  C   UNL     1       4.596   5.648  16.612  0.00  0.00    +0.000 C 
ATOM      7  C   UNL     1       4.815   4.124  16.746  0.00  0.00    +0.000 C 
ATOM      8  C   UNL     1       3.883   4.195  18.020  0.00  0.00    +0.000 C 
ATOM      9  C   UNL     1       4.339   3.323  19.201  0.00  0.00    +0.000 C 
ATOM     10  C   UNL     1       4.021   1.869  18.894  0.00  0.00    +0.000 C 
ATOM     11  O   UNL     1       2.610   1.726  18.712  0.00  0.00    +0.000 OA
ATOM     12  C   UNL     1       2.153   2.440  17.562  0.00  0.00    +0.000 C 
ATOM     13  C   UNL     1       2.398   3.940  17.716  0.00  0.00    +0.000 C 
BRANCH   7  14
ATOM     14  O   UNL     1       6.185   3.701  16.944  0.00  0.00    +0.000 OA
ATOM     15  H   UNL     1       6.224   2.753  16.725  0.00  0.00    +0.000 HD
ENDBRANCH   7  14
ENDBRANCH   3   5
BRANCH   1  19
ATOM     16  C   UNL     1      -0.355   9.869  22.333  0.00  0.00    +0.000 C 
ATOM     17  C   UNL     1       0.459   9.192  21.291  0.00  0.00    +0.000 A 
ATOM     18  C   UNL     1       0.984   7.921  21.329  0.00  0.00    +0.000 A 
ATOM     19  C   UNL     1       1.753   7.745  20.147  0.00  0.00    +0.000 A 
ATOM     20  N   UNL     1       1.488   8.758  19.300  0.00  0.00    +0.000 NA
ATOM     21  N   UNL     1       0.731   9.643  20.022  0.00  0.00    +0.000 N 
BRANCH  21  22
ATOM     22  C   UNL     1       0.281  10.848  19.444  0.00  0.00    +0.000 A 
ATOM     23  C   UNL     1      -0.976  10.884  18.831  0.00  0.00    +0.000 A 
ATOM     24  C   UNL     1      -1.384  12.039  18.170  0.00  0.00    +0.000 A 
ATOM     25  C   UNL     1      -0.528  13.141  18.112  0.00  0.00    +0.000 A 
ATOM     26  C   UNL     1       0.708  13.094  18.744  0.00  0.00    +0.000 A 
ATOM     27  F   UNL     1       1.543  14.136  18.645  0.00  0.00    +0.000 F 
ATOM     28  C   UNL     1       1.110  11.969  19.437  0.00  0.00    +0.000 A 
ENDBRANCH  21  22
ENDBRANCH   1  19
TORSDOF 4
ENDMDL
MODEL 9
REMARK VINA RESULT:      -7.9      3.808      8.325
REMARK  Name = 
REMARK  5 active torsions:
REMARK  status: ('A' for Active; 'I' for Inactive)
REMARK    1  A    between atoms: C_1  and  C_2
REMARK    2  A    between atoms: C_4  and  C_5
REMARK    3  A    between atoms: N_7  and  C_8
REMARK    4  A    between atoms: C_10  and  O_11
REMARK    5  A    between atoms: N_19  and  C_20
REMARK                            x       y       z     vdW  Elec       q    Type
REMARK                         _______ _______ _______ _____ _____    ______ ____
ROOT
ATOM      1  C   UNL     1       2.227   9.013  18.458  0.00  0.00    +0.000 C 
ATOM      2  O   UNL     1       2.311  10.058  17.859  0.00  0.00    +0.000 OA
ATOM      3  N   UNL     1       1.549   8.937  19.691  0.00  0.00    +0.000 N 
ATOM      4  H   UNL     1       1.434   7.991  20.029  0.00  0.00    +0.000 HD
ENDROOT
BRANCH   3   5
ATOM      5  C   UNL     1       0.833  10.081  20.299  0.00  0.00    +0.000 C 
ATOM      6  C   UNL     1      -0.181   9.720  21.428  0.00  0.00    +0.000 C 
ATOM      7  C   UNL     1      -1.017  10.940  20.980  0.00  0.00    +0.000 C 
ATOM      8  C   UNL     1      -0.383  10.733  19.548  0.00  0.00    +0.000 C 
ATOM      9  C   UNL     1       0.004  12.032  18.821  0.00  0.00    +0.000 C 
ATOM     10  C   UNL     1      -1.259  12.702  18.303  0.00  0.00    +0.000 C 
ATOM     11  O   UNL     1      -1.917  11.821  17.390  0.00  0.00    +0.000 OA
ATOM     12  C   UNL     1      -2.384  10.640  18.043  0.00  0.00    +0.000 C 
ATOM     13  C   UNL     1      -1.220   9.837  18.622  0.00  0.00    +0.000 C 
BRANCH   7  14
ATOM     14  O   UNL     1      -0.731  12.183  21.664  0.00  0.00    +0.000 OA
ATOM     15  H   UNL     1      -1.453  12.799  21.446  0.00  0.00    +0.000 HD
ENDBRANCH   7  14
ENDBRANCH   3   5
BRANCH   1  19
ATOM     16  C   UNL     1       5.417   5.702  16.229  0.00  0.00    +0.000 C 
ATOM     17  C   UNL     1       4.316   6.308  17.021  0.00  0.00    +0.000 A 
ATOM     18  C   UNL     1       3.860   7.605  16.972  0.00  0.00    +0.000 A 
ATOM     19  C   UNL     1       2.852   7.738  17.966  0.00  0.00    +0.000 A 
ATOM     20  N   UNL     1       2.519   6.512  18.414  0.00  0.00    +0.000 NA
ATOM     21  N   UNL     1       3.439   5.661  17.858  0.00  0.00    +0.000 N 
BRANCH  21  22
ATOM     22  C   UNL     1       3.401   4.278  18.130  0.00  0.00    +0.000 A 
ATOM     23  C   UNL     1       2.501   3.469  17.427  0.00  0.00    +0.000 A 
ATOM     24  C   UNL     1       2.386   2.122  17.761  0.00  0.00    +0.000 A 
ATOM     25  C   UNL     1       3.156   1.600  18.803  0.00  0.00    +0.000 A 
ATOM     26  C   UNL     1       4.057   2.414  19.476  0.00  0.00    +0.000 A 
ATOM     27  F   UNL     1       4.758   1.920  20.504  0.00  0.00    +0.000 F 
ATOM     28  C   UNL     1       4.211   3.743  19.130  0.00  0.00    +0.000 A 
ENDBRANCH  21  22
ENDBRANCH   1  19
TORSDOF 4
ENDMDL
