MODEL 1
REMARK VINA RESULT:      -8.0      0.000      0.000
REMARK  Name = 
REMARK  4 active torsions:
REMARK  status: ('A' for Active; 'I' for Inactive)
REMARK    1  A    between atoms: C_1  and  O_2
REMARK    2  A    between atoms: O_2  and  C_3
REMARK    3  A    between atoms: C_12  and  C_13
REMARK    4  A    between atoms: C_13  and  N_14
REMARK                            x       y       z     vdW  Elec       q    Type
REMARK                         _______ _______ _______ _____ _____    ______ ____
ROOT
ATOM      1  N   UNL     1       0.498   8.450  20.756  0.00  0.00    +0.000 N 
ATOM      2  C   UNL     1       0.619   9.782  21.066  0.00  0.00    +0.000 C 
ATOM      3  O   UNL     1       1.503  10.224  21.790  0.00  0.00    +0.000 OA
ATOM      4  N   UNL     1      -0.336  10.593  20.490  0.00  0.00    +0.000 N 
ATOM      5  C   UNL     1      -0.366  12.025  20.708  0.00  0.00    +0.000 C 
ATOM      6  C   UNL     1      -1.035  12.598  19.461  0.00  0.00    +0.000 C 
ATOM      7  C   UNL     1      -1.822  11.428  18.847  0.00  0.00    +0.000 C 
ATOM      8  C   UNL     1      -1.516  10.207  19.730  0.00  0.00    +0.000 C 
ATOM      9  O   UNL     1      -1.276  11.182  17.516  0.00  0.00    +0.000 OA
ATOM     10  C   UNL     1      -2.332  11.128  16.536  0.00  0.00    +0.000 C 
ATOM     11  C   UNL     1      -3.563  11.496  17.273  0.00  0.00    +0.000 A 
ATOM     12  C   UNL     1      -4.849  11.659  16.781  0.00  0.00    +0.000 A 
ATOM     13  C   UNL     1      -5.858  12.012  17.675  0.00  0.00    +0.000 A 
ATOM     14  C   UNL     1      -5.573  12.186  19.038  0.00  0.00    +0.000 A 
ATOM     15  C   UNL     1      -4.273  12.014  19.519  0.00  0.00    +0.000 A 
ATOM     16  C   UNL     1      -3.274  11.671  18.618  0.00  0.00    +0.000 A 
ATOM     17  H   UNL     1       0.007   8.237  19.908  0.00  0.00    +0.000 HD
ENDROOT
BRANCH   1  18
ATOM     18  C   UNL     1       1.498   7.455  21.101  0.00  0.00    +0.000 C 
BRANCH  18  28
ATOM     19  C   UNL     1       2.503   7.279  18.764  0.00  0.00    +0.000 A 
ATOM     20  C   UNL     1       3.003   6.517  17.702  0.00  0.00    +0.000 A 
ATOM     21  C   UNL     1       2.955   5.129  17.738  0.00  0.00    +0.000 A 
ATOM     22  C   UNL     1       2.419   4.466  18.841  0.00  0.00    +0.000 A 
ATOM     23  C   UNL     1       2.397   3.063  18.842  0.00  0.00    +0.000 A 
ATOM     24  C   UNL     1       1.900   2.359  19.932  0.00  0.00    +0.000 A 
ATOM     25  C   UNL     1       1.404   3.054  21.027  0.00  0.00    +0.000 A 
ATOM     26  C   UNL     1       1.405   4.451  21.028  0.00  0.00    +0.000 A 
ATOM     27  C   UNL     1       1.918   5.205  19.943  0.00  0.00    +0.000 A 
ATOM     28  C   UNL     1       1.972   6.635  19.909  0.00  0.00    +0.000 A 
BRANCH  19  30
ATOM     29  C   UNL     1       1.894   9.292  17.655  0.00  0.00    +0.000 C 
ATOM     30  O   UNL     1       2.535   8.655  18.762  0.00  0.00    +0.000 OA
ENDBRANCH  19  30
ENDBRANCH  18  28
ENDBRANCH   1  18
TORSDOF 3
ENDMDL
MODEL 2
REMARK VINA RESULT:      -7.9      3.068      5.640
REMARK  Name = 
REMARK  4 active torsions:
REMARK  status: ('A' for Active; 'I' for Inactive)
REMARK    1  A    between atoms: C_1  and  O_2
REMARK    2  A    between atoms: O_2  and  C_3
REMARK    3  A    between atoms: C_12  and  C_13
REMARK    4  A    between atoms: C_13  and  N_14
REMARK                            x       y       z     vdW  Elec       q    Type
REMARK                         _______ _______ _______ _____ _____    ______ ____
ROOT
ATOM      1  N   UNL     1      -1.320  12.684  20.052  0.00  0.00    +0.000 N 
ATOM      2  C   UNL     1      -2.378  12.156  19.356  0.00  0.00    +0.000 C 
ATOM      3  O   UNL     1      -2.242  11.424  18.383  0.00  0.00    +0.000 OA
ATOM      4  N   UNL     1      -3.618  12.511  19.843  0.00  0.00    +0.000 N 
ATOM      5  C   UNL     1      -4.849  12.050  19.231  0.00  0.00    +0.000 C 
ATOM      6  C   UNL     1      -5.873  12.050  20.363  0.00  0.00    +0.000 C 
ATOM      7  C   UNL     1      -5.308  13.009  21.424  0.00  0.00    +0.000 C 
ATOM      8  C   UNL     1      -3.943  13.470  20.889  0.00  0.00    +0.000 C 
ATOM      9  O   UNL     1      -5.088  12.237  22.643  0.00  0.00    +0.000 OA
ATOM     10  C   UNL     1      -5.688  12.894  23.777  0.00  0.00    +0.000 C 
ATOM     11  C   UNL     1      -6.428  14.046  23.210  0.00  0.00    +0.000 A 
ATOM     12  C   UNL     1      -7.232  14.964  23.866  0.00  0.00    +0.000 A 
ATOM     13  C   UNL     1      -7.831  15.974  23.114  0.00  0.00    +0.000 A 
ATOM     14  C   UNL     1      -7.612  16.056  21.731  0.00  0.00    +0.000 A 
ATOM     15  C   UNL     1      -6.795  15.125  21.085  0.00  0.00    +0.000 A 
ATOM     16  C   UNL     1      -6.211  14.119  21.841  0.00  0.00    +0.000 A 
ATOM     17  H   UNL     1      -1.504  12.948  21.002  0.00  0.00    +0.000 HD
ENDROOT
BRANCH   1  18
ATOM     18  C   UNL     1       0.060  12.294  19.827  0.00  0.00    +0.000 C 
BRANCH  18  28
ATOM     19  C   UNL     1       0.131  10.762  21.864  0.00  0.00    +0.000 A 
ATOM     20  C   UNL     1       0.411   9.525  22.455  0.00  0.00    +0.000 A 
ATOM     21  C   UNL     1       1.020   8.510  21.727  0.00  0.00    +0.000 A 
ATOM     22  C   UNL     1       1.351   8.700  20.385  0.00  0.00    +0.000 A 
ATOM     23  C   UNL     1       1.955   7.647  19.682  0.00  0.00    +0.000 A 
ATOM     24  C   UNL     1       2.276   7.780  18.336  0.00  0.00    +0.000 A 
ATOM     25  C   UNL     1       2.007   8.977  17.685  0.00  0.00    +0.000 A 
ATOM     26  C   UNL     1       1.421  10.037  18.381  0.00  0.00    +0.000 A 
ATOM     27  C   UNL     1       1.065   9.935  19.748  0.00  0.00    +0.000 A 
ATOM     28  C   UNL     1       0.434  10.979  20.498  0.00  0.00    +0.000 A 
BRANCH  19  30
ATOM     29  C   UNL     1      -1.708  11.467  23.196  0.00  0.00    +0.000 C 
ATOM     30  O   UNL     1      -0.472  11.788  22.556  0.00  0.00    +0.000 OA
ENDBRANCH  19  30
ENDBRANCH  18  28
ENDBRANCH   1  18
TORSDOF 3
ENDMDL
MODEL 3
REMARK VINA RESULT:      -7.6      1.568      2.812
REMARK  Name = 
REMARK  4 active torsions:
REMARK  status: ('A' for Active; 'I' for Inactive)
REMARK    1  A    between atoms: C_1  and  O_2
REMARK    2  A    between atoms: O_2  and  C_3
REMARK    3  A    between atoms: C_12  and  C_13
REMARK    4  A    between atoms: C_13  and  N_14
REMARK                            x       y       z     vdW  Elec       q    Type
REMARK                         _______ _______ _______ _____ _____    ______ ____
ROOT
ATOM      1  N   UNL     1       1.539   9.397  18.354  0.00  0.00    +0.000 N 
ATOM      2  C   UNL     1       1.704  10.759  18.323  0.00  0.00    +0.000 C 
ATOM      3  O   UNL     1       2.774  11.299  18.067  0.00  0.00    +0.000 OA
ATOM      4  N   UNL     1       0.563  11.480  18.601  0.00  0.00    +0.000 N 
ATOM      5  C   UNL     1       0.550  12.930  18.617  0.00  0.00    +0.000 C 
ATOM      6  C   UNL     1      -0.886  13.314  18.272  0.00  0.00    +0.000 C 
ATOM      7  C   UNL     1      -1.730  12.070  18.599  0.00  0.00    +0.000 C 
ATOM      8  C   UNL     1      -0.732  10.993  19.054  0.00  0.00    +0.000 C 
ATOM      9  O   UNL     1      -2.355  11.623  17.358  0.00  0.00    +0.000 OA
ATOM     10  C   UNL     1      -3.771  11.431  17.542  0.00  0.00    +0.000 C 
ATOM     11  C   UNL     1      -4.052  11.913  18.914  0.00  0.00    +0.000 A 
ATOM     12  C   UNL     1      -5.273  12.009  19.563  0.00  0.00    +0.000 A 
ATOM     13  C   UNL     1      -5.290  12.499  20.868  0.00  0.00    +0.000 A 
ATOM     14  C   UNL     1      -4.097  12.874  21.503  0.00  0.00    +0.000 A 
ATOM     15  C   UNL     1      -2.874  12.767  20.837  0.00  0.00    +0.000 A 
ATOM     16  C   UNL     1      -2.869  12.286  19.535  0.00  0.00    +0.000 A 
ATOM     17  H   UNL     1       0.605   9.062  18.208  0.00  0.00    +0.000 HD
ENDROOT
BRANCH   1  18
ATOM     18  C   UNL     1       2.556   8.458  17.913  0.00  0.00    +0.000 C 
BRANCH  18  28
ATOM     19  C   UNL     1       1.921   7.114  19.985  0.00  0.00    +0.000 A 
ATOM     20  C   UNL     1       1.910   5.918  20.712  0.00  0.00    +0.000 A 
ATOM     21  C   UNL     1       2.596   4.801  20.252  0.00  0.00    +0.000 A 
ATOM     22  C   UNL     1       3.298   4.845  19.048  0.00  0.00    +0.000 A 
ATOM     23  C   UNL     1       3.969   3.692  18.614  0.00  0.00    +0.000 A 
ATOM     24  C   UNL     1       4.657   3.680  17.406  0.00  0.00    +0.000 A 
ATOM     25  C   UNL     1       4.692   4.829  16.627  0.00  0.00    +0.000 A 
ATOM     26  C   UNL     1       4.041   5.987  17.060  0.00  0.00    +0.000 A 
ATOM     27  C   UNL     1       3.316   6.035  18.276  0.00  0.00    +0.000 A 
ATOM     28  C   UNL     1       2.605   7.185  18.747  0.00  0.00    +0.000 A 
BRANCH  19  30
ATOM     29  C   UNL     1       1.404   8.570  21.793  0.00  0.00    +0.000 C 
ATOM     30  O   UNL     1       1.252   8.239  20.411  0.00  0.00    +0.000 OA
ENDBRANCH  19  30
ENDBRANCH  18  28
ENDBRANCH   1  18
TORSDOF 3
ENDMDL
MODEL 4
REMARK VINA RESULT:      -7.5      2.558      8.622
REMARK  Name = 
REMARK  4 active torsions:
REMARK  status: ('A' for Active; 'I' for Inactive)
REMARK    1  A    between atoms: C_1  and  O_2
REMARK    2  A    between atoms: O_2  and  C_3
REMARK    3  A    between atoms: C_12  and  C_13
REMARK    4  A    between atoms: C_13  and  N_14
REMARK                            x       y       z     vdW  Elec       q    Type
REMARK                         _______ _______ _______ _____ _____    ______ ____
ROOT
ATOM      1  N   UNL     1      -2.753  12.957  19.991  0.00  0.00    +0.000 N 
ATOM      2  C   UNL     1      -1.522  13.557  19.905  0.00  0.00    +0.000 C 
ATOM      3  O   UNL     1      -1.366  14.773  19.920  0.00  0.00    +0.000 OA
ATOM      4  N   UNL     1      -0.464  12.679  19.806  0.00  0.00    +0.000 N 
ATOM      5  C   UNL     1       0.909  13.134  19.702  0.00  0.00    +0.000 C 
ATOM      6  C   UNL     1       1.743  11.998  20.290  0.00  0.00    +0.000 C 
ATOM      7  C   UNL     1       0.848  10.750  20.206  0.00  0.00    +0.000 C 
ATOM      8  C   UNL     1      -0.495  11.234  19.637  0.00  0.00    +0.000 C 
ATOM      9  O   UNL     1       0.627  10.276  21.569  0.00  0.00    +0.000 OA
ATOM     10  C   UNL     1       0.912   8.866  21.670  0.00  0.00    +0.000 C 
ATOM     11  C   UNL     1       1.467   8.489  20.349  0.00  0.00    +0.000 A 
ATOM     12  C   UNL     1       1.962   7.261  19.939  0.00  0.00    +0.000 A 
ATOM     13  C   UNL     1       2.436   7.143  18.633  0.00  0.00    +0.000 A 
ATOM     14  C   UNL     1       2.400   8.241  17.761  0.00  0.00    +0.000 A 
ATOM     15  C   UNL     1       1.893   9.471  18.188  0.00  0.00    +0.000 A 
ATOM     16  C   UNL     1       1.432   9.580  19.492  0.00  0.00    +0.000 A 
ATOM     17  H   UNL     1      -2.763  12.014  20.331  0.00  0.00    +0.000 HD
ENDROOT
BRANCH   1  18
ATOM     18  C   UNL     1      -3.977  13.682  20.287  0.00  0.00    +0.000 C 
BRANCH  18  28
ATOM     19  C   UNL     1      -5.566  11.987  19.236  0.00  0.00    +0.000 A 
ATOM     20  C   UNL     1      -6.657  11.115  19.324  0.00  0.00    +0.000 A 
ATOM     21  C   UNL     1      -7.423  11.049  20.481  0.00  0.00    +0.000 A 
ATOM     22  C   UNL     1      -7.110  11.842  21.585  0.00  0.00    +0.000 A 
ATOM     23  C   UNL     1      -7.903  11.738  22.738  0.00  0.00    +0.000 A 
ATOM     24  C   UNL     1      -7.612  12.487  23.873  0.00  0.00    +0.000 A 
ATOM     25  C   UNL     1      -6.531  13.359  23.858  0.00  0.00    +0.000 A 
ATOM     26  C   UNL     1      -5.747  13.481  22.708  0.00  0.00    +0.000 A 
ATOM     27  C   UNL     1      -6.001  12.725  21.538  0.00  0.00    +0.000 A 
ATOM     28  C   UNL     1      -5.209  12.789  20.348  0.00  0.00    +0.000 A 
BRANCH  19  30
ATOM     29  C   UNL     1      -4.268  10.843  17.605  0.00  0.00    +0.000 C 
ATOM     30  O   UNL     1      -4.786  12.077  18.106  0.00  0.00    +0.000 OA
ENDBRANCH  19  30
ENDBRANCH  18  28
ENDBRANCH   1  18
TORSDOF 3
ENDMDL
MODEL 5
REMARK VINA RESULT:      -7.2      2.078      3.718
REMARK  Name = 
REMARK  4 active torsions:
REMARK  status: ('A' for Active; 'I' for Inactive)
REMARK    1  A    between atoms: C_1  and  O_2
REMARK    2  A    between atoms: O_2  and  C_3
REMARK    3  A    between atoms: C_12  and  C_13
REMARK    4  A    between atoms: C_13  and  N_14
REMARK                            x       y       z     vdW  Elec       q    Type
REMARK                         _______ _______ _______ _____ _____    ______ ____
ROOT
ATOM      1  N   UNL     1       1.565   9.954  18.512  0.00  0.00    +0.000 N 
ATOM      2  C   UNL     1       1.796  11.306  18.474  0.00  0.00    +0.000 C 
ATOM      3  O   UNL     1       2.743  11.808  17.880  0.00  0.00    +0.000 OA
ATOM      4  N   UNL     1       0.869  12.064  19.156  0.00  0.00    +0.000 N 
ATOM      5  C   UNL     1       0.955  13.510  19.227  0.00  0.00    +0.000 C 
ATOM      6  C   UNL     1      -0.485  13.979  19.417  0.00  0.00    +0.000 C 
ATOM      7  C   UNL     1      -1.241  12.760  19.973  0.00  0.00    +0.000 C 
ATOM      8  C   UNL     1      -0.217  11.615  20.015  0.00  0.00    +0.000 C 
ATOM      9  O   UNL     1      -2.283  12.413  19.012  0.00  0.00    +0.000 OA
ATOM     10  C   UNL     1      -3.558  12.277  19.671  0.00  0.00    +0.000 C 
ATOM     11  C   UNL     1      -3.317  12.696  21.071  0.00  0.00    +0.000 A 
ATOM     12  C   UNL     1      -4.229  12.814  22.108  0.00  0.00    +0.000 A 
ATOM     13  C   UNL     1      -3.763  13.232  23.354  0.00  0.00    +0.000 A 
ATOM     14  C   UNL     1      -2.403  13.515  23.547  0.00  0.00    +0.000 A 
ATOM     15  C   UNL     1      -1.494  13.387  22.492  0.00  0.00    +0.000 A 
ATOM     16  C   UNL     1      -1.970  12.979  21.255  0.00  0.00    +0.000 A 
ATOM     17  H   UNL     1       0.619   9.672  18.689  0.00  0.00    +0.000 HD
ENDROOT
BRANCH   1  18
ATOM     18  C   UNL     1       2.306   8.993  17.713  0.00  0.00    +0.000 C 
BRANCH  18  28
ATOM     19  C   UNL     1       2.015   7.425  19.702  0.00  0.00    +0.000 A 
ATOM     20  C   UNL     1       2.272   6.211  20.350  0.00  0.00    +0.000 A 
ATOM     21  C   UNL     1       3.163   5.292  19.812  0.00  0.00    +0.000 A 
ATOM     22  C   UNL     1       3.810   5.554  18.605  0.00  0.00    +0.000 A 
ATOM     23  C   UNL     1       4.695   4.594  18.090  0.00  0.00    +0.000 A 
ATOM     24  C   UNL     1       5.340   4.799  16.876  0.00  0.00    +0.000 A 
ATOM     25  C   UNL     1       5.116   5.974  16.172  0.00  0.00    +0.000 A 
ATOM     26  C   UNL     1       4.249   6.943  16.685  0.00  0.00    +0.000 A 
ATOM     27  C   UNL     1       3.561   6.765  17.911  0.00  0.00    +0.000 A 
ATOM     28  C   UNL     1       2.639   7.711  18.463  0.00  0.00    +0.000 A 
BRANCH  19  30
ATOM     29  C   UNL     1       1.135   8.506  21.628  0.00  0.00    +0.000 C 
ATOM     30  O   UNL     1       1.138   8.358  20.207  0.00  0.00    +0.000 OA
ENDBRANCH  19  30
ENDBRANCH  18  28
ENDBRANCH   1  18
TORSDOF 3
ENDMDL
MODEL 6
REMARK VINA RESULT:      -7.2      4.172      9.004
REMARK  Name = 
REMARK  4 active torsions:
REMARK  status: ('A' for Active; 'I' for Inactive)
REMARK    1  A    between atoms: C_1  and  O_2
REMARK    2  A    between atoms: O_2  and  C_3
REMARK    3  A    between atoms: C_12  and  C_13
REMARK    4  A    between atoms: C_13  and  N_14
REMARK                            x       y       z     vdW  Elec       q    Type
REMARK                         _______ _______ _______ _____ _____    ______ ____
ROOT
ATOM      1  N   UNL     1       1.365  14.200  20.548  0.00  0.00    +0.000 N 
ATOM      2  C   UNL     1       0.108  13.651  20.500  0.00  0.00    +0.000 C 
ATOM      3  O   UNL     1      -0.916  14.306  20.652  0.00  0.00    +0.000 OA
ATOM      4  N   UNL     1       0.086  12.293  20.260  0.00  0.00    +0.000 N 
ATOM      5  C   UNL     1      -1.152  11.544  20.180  0.00  0.00    +0.000 C 
ATOM      6  C   UNL     1      -0.834  10.357  19.274  0.00  0.00    +0.000 C 
ATOM      7  C   UNL     1       0.696  10.208  19.320  0.00  0.00    +0.000 C 
ATOM      8  C   UNL     1       1.204  11.363  20.198  0.00  0.00    +0.000 C 
ATOM      9  O   UNL     1       1.198  10.405  17.964  0.00  0.00    +0.000 OA
ATOM     10  C   UNL     1       2.082   9.330  17.588  0.00  0.00    +0.000 C 
ATOM     11  C   UNL     1       2.010   8.360  18.705  0.00  0.00    +0.000 A 
ATOM     12  C   UNL     1       2.620   7.121  18.815  0.00  0.00    +0.000 A 
ATOM     13  C   UNL     1       2.404   6.378  19.975  0.00  0.00    +0.000 A 
ATOM     14  C   UNL     1       1.595   6.884  21.003  0.00  0.00    +0.000 A 
ATOM     15  C   UNL     1       0.990   8.138  20.879  0.00  0.00    +0.000 A 
ATOM     16  C   UNL     1       1.206   8.865  19.717  0.00  0.00    +0.000 A 
ATOM     17  H   UNL     1       2.087  13.694  20.068  0.00  0.00    +0.000 HD
ENDROOT
BRANCH   1  18
ATOM     18  C   UNL     1       1.611  15.630  20.603  0.00  0.00    +0.000 C 
BRANCH  18  28
ATOM     19  C   UNL     1       3.295  15.954  18.716  0.00  0.00    +0.000 A 
ATOM     20  C   UNL     1       3.634  16.445  17.450  0.00  0.00    +0.000 A 
ATOM     21  C   UNL     1       2.743  17.231  16.730  0.00  0.00    +0.000 A 
ATOM     22  C   UNL     1       1.485  17.535  17.250  0.00  0.00    +0.000 A 
ATOM     23  C   UNL     1       0.611  18.324  16.487  0.00  0.00    +0.000 A 
ATOM     24  C   UNL     1      -0.664  18.628  16.951  0.00  0.00    +0.000 A 
ATOM     25  C   UNL     1      -1.070  18.156  18.192  0.00  0.00    +0.000 A 
ATOM     26  C   UNL     1      -0.200  17.385  18.967  0.00  0.00    +0.000 A 
ATOM     27  C   UNL     1       1.100  17.040  18.522  0.00  0.00    +0.000 A 
ATOM     28  C   UNL     1       2.017  16.226  19.262  0.00  0.00    +0.000 A 
BRANCH  19  30
ATOM     29  C   UNL     1       5.546  15.358  19.197  0.00  0.00    +0.000 C 
ATOM     30  O   UNL     1       4.153  15.172  19.455  0.00  0.00    +0.000 OA
ENDBRANCH  19  30
ENDBRANCH  18  28
ENDBRANCH   1  18
TORSDOF 3
ENDMDL
MODEL 7
REMARK VINA RESULT:      -7.1      2.945      3.816
REMARK  Name = 
REMARK  4 active torsions:
REMARK  status: ('A' for Active; 'I' for Inactive)
REMARK    1  A    between atoms: C_1  and  O_2
REMARK    2  A    between atoms: O_2  and  C_3
REMARK    3  A    between atoms: C_12  and  C_13
REMARK    4  A    between atoms: C_13  and  N_14
REMARK                            x       y       z     vdW  Elec       q    Type
REMARK                         _______ _______ _______ _____ _____    ______ ____
ROOT
ATOM      1  N   UNL     1       0.783   9.055  21.009  0.00  0.00    +0.000 N 
ATOM      2  C   UNL     1      -0.049   9.775  21.830  0.00  0.00    +0.000 C 
ATOM      3  O   UNL     1      -0.740   9.261  22.701  0.00  0.00    +0.000 OA
ATOM      4  N   UNL     1      -0.043  11.134  21.600  0.00  0.00    +0.000 N 
ATOM      5  C   UNL     1      -0.862  12.051  22.369  0.00  0.00    +0.000 C 
ATOM      6  C   UNL     1      -0.112  13.380  22.323  0.00  0.00    +0.000 C 
ATOM      7  C   UNL     1       0.812  13.283  21.098  0.00  0.00    +0.000 C 
ATOM      8  C   UNL     1       0.607  11.871  20.527  0.00  0.00    +0.000 C 
ATOM      9  O   UNL     1       2.188  13.392  21.575  0.00  0.00    +0.000 OA
ATOM     10  C   UNL     1       2.910  14.387  20.822  0.00  0.00    +0.000 C 
ATOM     11  C   UNL     1       1.899  15.015  19.940  0.00  0.00    +0.000 A 
ATOM     12  C   UNL     1       2.057  16.074  19.060  0.00  0.00    +0.000 A 
ATOM     13  C   UNL     1       0.949  16.496  18.328  0.00  0.00    +0.000 A 
ATOM     14  C   UNL     1      -0.289  15.853  18.476  0.00  0.00    +0.000 A 
ATOM     15  C   UNL     1      -0.432  14.783  19.365  0.00  0.00    +0.000 A 
ATOM     16  C   UNL     1       0.676  14.377  20.095  0.00  0.00    +0.000 A 
ATOM     17  H   UNL     1       1.548   9.560  20.603  0.00  0.00    +0.000 HD
ENDROOT
BRANCH   1  18
ATOM     18  C   UNL     1       1.069   7.644  21.200  0.00  0.00    +0.000 C 
BRANCH  18  28
ATOM     19  C   UNL     1       2.209   7.808  18.925  0.00  0.00    +0.000 A 
ATOM     20  C   UNL     1       2.973   7.244  17.896  0.00  0.00    +0.000 A 
ATOM     21  C   UNL     1       3.340   5.905  17.934  0.00  0.00    +0.000 A 
ATOM     22  C   UNL     1       2.966   5.098  19.008  0.00  0.00    +0.000 A 
ATOM     23  C   UNL     1       3.366   3.752  19.013  0.00  0.00    +0.000 A 
ATOM     24  C   UNL     1       3.042   2.917  20.076  0.00  0.00    +0.000 A 
ATOM     25  C   UNL     1       2.301   3.418  21.138  0.00  0.00    +0.000 A 
ATOM     26  C   UNL     1       1.883   4.751  21.133  0.00  0.00    +0.000 A 
ATOM     27  C   UNL     1       2.207   5.638  20.077  0.00  0.00    +0.000 A 
ATOM     28  C   UNL     1       1.832   7.019  20.040  0.00  0.00    +0.000 A 
BRANCH  19  30
ATOM     29  C   UNL     1       2.208   9.883  17.766  0.00  0.00    +0.000 C 
ATOM     30  O   UNL     1       1.828   9.130  18.919  0.00  0.00    +0.000 OA
ENDBRANCH  19  30
ENDBRANCH  18  28
ENDBRANCH   1  18
TORSDOF 3
ENDMDL
MODEL 8
REMARK VINA RESULT:      -7.0      5.820      8.338
REMARK  Name = 
REMARK  4 active torsions:
REMARK  status: ('A' for Active; 'I' for Inactive)
REMARK    1  A    between atoms: C_1  and  O_2
REMARK    2  A    between atoms: O_2  and  C_3
REMARK    3  A    between atoms: C_12  and  C_13
REMARK    4  A    between atoms: C_13  and  N_14
REMARK                            x       y       z     vdW  Elec       q    Type
REMARK                         _______ _______ _______ _____ _____    ______ ____
ROOT
ATOM      1  N   UNL     1       3.924  14.412  18.491  0.00  0.00    +0.000 N 
ATOM      2  C   UNL     1       2.628  14.853  18.398  0.00  0.00    +0.000 C 
ATOM      3  O   UNL     1       2.317  15.915  17.871  0.00  0.00    +0.000 OA
ATOM      4  N   UNL     1       1.692  13.999  18.942  0.00  0.00    +0.000 N 
ATOM      5  C   UNL     1       0.274  14.302  18.937  0.00  0.00    +0.000 C 
ATOM      6  C   UNL     1      -0.418  12.942  18.958  0.00  0.00    +0.000 C 
ATOM      7  C   UNL     1       0.631  11.960  19.508  0.00  0.00    +0.000 C 
ATOM      8  C   UNL     1       1.911  12.785  19.715  0.00  0.00    +0.000 C 
ATOM      9  O   UNL     1       0.887  10.964  18.471  0.00  0.00    +0.000 OA
ATOM     10  C   UNL     1       0.782   9.631  19.009  0.00  0.00    +0.000 C 
ATOM     11  C   UNL     1       0.304   9.811  20.400  0.00  0.00    +0.000 A 
ATOM     12  C   UNL     1      -0.023   8.841  21.334  0.00  0.00    +0.000 A 
ATOM     13  C   UNL     1      -0.455   9.256  22.593  0.00  0.00    +0.000 A 
ATOM     14  C   UNL     1      -0.544  10.621  22.901  0.00  0.00    +0.000 A 
ATOM     15  C   UNL     1      -0.207  11.588  21.950  0.00  0.00    +0.000 A 
ATOM     16  C   UNL     1       0.214  11.164  20.697  0.00  0.00    +0.000 A 
ATOM     17  H   UNL     1       4.048  13.421  18.592  0.00  0.00    +0.000 HD
ENDROOT
BRANCH   1  18
ATOM     18  C   UNL     1       5.039  15.060  17.825  0.00  0.00    +0.000 C 
BRANCH  18  28
ATOM     19  C   UNL     1       6.238  16.214  19.757  0.00  0.00    +0.000 A 
ATOM     20  C   UNL     1       7.331  16.329  20.624  0.00  0.00    +0.000 A 
ATOM     21  C   UNL     1       8.455  15.529  20.463  0.00  0.00    +0.000 A 
ATOM     22  C   UNL     1       8.511  14.583  19.440  0.00  0.00    +0.000 A 
ATOM     23  C   UNL     1       9.660  13.787  19.317  0.00  0.00    +0.000 A 
ATOM     24  C   UNL     1       9.749  12.811  18.332  0.00  0.00    +0.000 A 
ATOM     25  C   UNL     1       8.692  12.632  17.450  0.00  0.00    +0.000 A 
ATOM     26  C   UNL     1       7.551  13.431  17.553  0.00  0.00    +0.000 A 
ATOM     27  C   UNL     1       7.415  14.425  18.553  0.00  0.00    +0.000 A 
ATOM     28  C   UNL     1       6.255  15.246  18.722  0.00  0.00    +0.000 A 
BRANCH  19  30
ATOM     29  C   UNL     1       4.434  16.900  21.145  0.00  0.00    +0.000 C 
ATOM     30  O   UNL     1       5.109  16.990  19.889  0.00  0.00    +0.000 OA
ENDBRANCH  19  30
ENDBRANCH  18  28
ENDBRANCH   1  18
TORSDOF 3
ENDMDL
MODEL 9
REMARK VINA RESULT:      -7.0      7.207      8.922
REMARK  Name = 
REMARK  4 active torsions:
REMARK  status: ('A' for Active; 'I' for Inactive)
REMARK    1  A    between atoms: C_1  and  O_2
REMARK    2  A    between atoms: O_2  and  C_3
REMARK    3  A    between atoms: C_12  and  C_13
REMARK    4  A    between atoms: C_13  and  N_14
REMARK                            x       y       z     vdW  Elec       q    Type
REMARK                         _______ _______ _______ _____ _____    ______ ____
ROOT
ATOM      1  N   UNL     1       6.935  15.013  20.539  0.00  0.00    +0.000 N 
ATOM      2  C   UNL     1       6.488  15.883  19.576  0.00  0.00    +0.000 C 
ATOM      3  O   UNL     1       7.200  16.737  19.061  0.00  0.00    +0.000 OA
ATOM      4  N   UNL     1       5.165  15.717  19.225  0.00  0.00    +0.000 N 
ATOM      5  C   UNL     1       4.521  16.548  18.227  0.00  0.00    +0.000 C 
ATOM      6  C   UNL     1       3.406  15.678  17.652  0.00  0.00    +0.000 C 
ATOM      7  C   UNL     1       3.140  14.601  18.717  0.00  0.00    +0.000 C 
ATOM      8  C   UNL     1       4.164  14.854  19.835  0.00  0.00    +0.000 C 
ATOM      9  O   UNL     1       3.428  13.304  18.112  0.00  0.00    +0.000 OA
ATOM     10  C   UNL     1       2.331  12.392  18.319  0.00  0.00    +0.000 C 
ATOM     11  C   UNL     1       1.267  13.203  18.955  0.00  0.00    +0.000 A 
ATOM     12  C   UNL     1      -0.019  12.822  19.303  0.00  0.00    +0.000 A 
ATOM     13  C   UNL     1      -0.851  13.770  19.896  0.00  0.00    +0.000 A 
ATOM     14  C   UNL     1      -0.387  15.071  20.140  0.00  0.00    +0.000 A 
ATOM     15  C   UNL     1       0.914  15.439  19.788  0.00  0.00    +0.000 A 
ATOM     16  C   UNL     1       1.731  14.490  19.190  0.00  0.00    +0.000 A 
ATOM     17  H   UNL     1       6.426  14.154  20.629  0.00  0.00    +0.000 HD
ENDROOT
BRANCH   1  18
ATOM     18  C   UNL     1       8.331  14.891  20.919  0.00  0.00    +0.000 C 
BRANCH  18  28
ATOM     19  C   UNL     1       8.696  12.411  21.386  0.00  0.00    +0.000 A 
ATOM     20  C   UNL     1       9.197  11.157  21.015  0.00  0.00    +0.000 A 
ATOM     21  C   UNL     1       9.964  11.009  19.866  0.00  0.00    +0.000 A 
ATOM     22  C   UNL     1      10.237  12.106  19.050  0.00  0.00    +0.000 A 
ATOM     23  C   UNL     1      11.007  11.912  17.892  0.00  0.00    +0.000 A 
ATOM     24  C   UNL     1      11.281  12.969  17.033  0.00  0.00    +0.000 A 
ATOM     25  C   UNL     1      10.798  14.236  17.333  0.00  0.00    +0.000 A 
ATOM     26  C   UNL     1      10.046  14.442  18.492  0.00  0.00    +0.000 A 
ATOM     27  C   UNL     1       9.732  13.388  19.384  0.00  0.00    +0.000 A 
ATOM     28  C   UNL     1       8.938  13.540  20.566  0.00  0.00    +0.000 A 
BRANCH  19  30
ATOM     29  C   UNL     1       8.004  11.551  23.491  0.00  0.00    +0.000 C 
ATOM     30  O   UNL     1       7.934  12.593  22.516  0.00  0.00    +0.000 OA
ENDBRANCH  19  30
ENDBRANCH  18  28
ENDBRANCH   1  18
TORSDOF 3
ENDMDL
