MODEL 1
REMARK VINA RESULT:      -8.8      0.000      0.000
REMARK  Name = 
REMARK  5 active torsions:
REMARK  status: ('A' for Active; 'I' for Inactive)
REMARK    1  A    between atoms: C_2  and  C_3
REMARK    2  A    between atoms: C_3  and  C_4
REMARK    3  A    between atoms: N_13  and  C_14
REMARK    4  A    between atoms: C_14  and  C_15
REMARK    5  A    between atoms: C_18  and  N_19
REMARK                            x       y       z     vdW  Elec       q    Type
REMARK                         _______ _______ _______ _____ _____    ______ ____
ROOT
ATOM      1  O   UNL     1       5.216   3.792  19.011  0.00  0.00    +0.000 OA
ATOM      2  C   UNL     1       4.541   4.222  18.079  0.00  0.00    +0.000 C 
ATOM      3  N   UNL     1       3.614   5.231  18.226  0.00  0.00    +0.000 N 
ATOM      4  H   UNL     1       3.083   5.541  17.424  0.00  0.00    +0.000 HD
ENDROOT
BRANCH   2   5
ATOM      5  C   UNL     1       4.692   3.704  16.659  0.00  0.00    +0.000 C 
BRANCH   5   6
ATOM      6  C   UNL     1       5.780   4.392  15.898  0.00  0.00    +0.000 A 
ATOM      7  C   UNL     1       6.711   5.274  16.415  0.00  0.00    +0.000 A 
ATOM      8  N   UNL     1       7.559   5.648  15.407  0.00  0.00    +0.000 N 
ATOM      9  C   UNL     1       7.207   5.029  14.232  0.00  0.00    +0.000 A 
ATOM     10  C   UNL     1       7.789   5.112  12.962  0.00  0.00    +0.000 A 
ATOM     11  C   UNL     1       7.216   4.353  11.935  0.00  0.00    +0.000 A 
ATOM     12  C   UNL     1       6.109   3.544  12.176  0.00  0.00    +0.000 A 
ATOM     13  C   UNL     1       5.543   3.472  13.455  0.00  0.00    +0.000 A 
ATOM     14  C   UNL     1       6.097   4.230  14.507  0.00  0.00    +0.000 A 
ATOM     15  H   UNL     1       8.343   6.278  15.507  0.00  0.00    +0.000 HD
ENDBRANCH   5   6
ENDBRANCH   2   5
BRANCH   3  16
ATOM     16  C   UNL     1       3.346   5.854  19.503  0.00  0.00    +0.000 C 
BRANCH  16  17
ATOM     17  C   UNL     1       2.524   7.105  19.336  0.00  0.00    +0.000 A 
ATOM     18  C   UNL     1       1.843   7.670  20.416  0.00  0.00    +0.000 A 
ATOM     19  C   UNL     1       1.093   8.844  20.254  0.00  0.00    +0.000 A 
ATOM     20  C   UNL     1       0.982   9.476  19.009  0.00  0.00    +0.000 A 
ATOM     21  C   UNL     1       1.673   8.902  17.933  0.00  0.00    +0.000 A 
ATOM     22  C   UNL     1       2.442   7.741  18.094  0.00  0.00    +0.000 A 
BRANCH  20  23
ATOM     23  N   UNL     1       0.184  10.641  18.827  0.00  0.00    +0.000 N 
ATOM     24  C   UNL     1       0.653  11.960  19.188  0.00  0.00    +0.000 C 
ATOM     25  C   UNL     1      -0.564  12.852  19.059  0.00  0.00    +0.000 C 
ATOM     26  C   UNL     1      -1.398  12.176  17.991  0.00  0.00    +0.000 C 
ATOM     27  C   UNL     1      -1.025  10.719  18.118  0.00  0.00    +0.000 C 
ATOM     28  O   UNL     1      -1.695   9.823  17.626  0.00  0.00    +0.000 OA
ENDBRANCH  20  23
ENDBRANCH  16  17
ENDBRANCH   3  16
TORSDOF 5
ENDMDL
MODEL 2
REMARK VINA RESULT:      -8.5      0.969      1.227
REMARK  Name = 
REMARK  5 active torsions:
REMARK  status: ('A' for Active; 'I' for Inactive)
REMARK    1  A    between atoms: C_2  and  C_3
REMARK    2  A    between atoms: C_3  and  C_4
REMARK    3  A    between atoms: N_13  and  C_14
REMARK    4  A    between atoms: C_14  and  C_15
REMARK    5  A    between atoms: C_18  and  N_19
REMARK                            x       y       z     vdW  Elec       q    Type
REMARK                         _______ _______ _______ _____ _____    ______ ____
ROOT
ATOM      1  O   UNL     1       4.300   3.322  18.926  0.00  0.00    +0.000 OA
ATOM      2  C   UNL     1       4.070   4.047  17.961  0.00  0.00    +0.000 C 
ATOM      3  N   UNL     1       3.597   5.335  18.083  0.00  0.00    +0.000 N 
ATOM      4  H   UNL     1       3.421   5.884  17.253  0.00  0.00    +0.000 HD
ENDROOT
BRANCH   2   5
ATOM      5  C   UNL     1       4.324   3.600  16.531  0.00  0.00    +0.000 C 
BRANCH   5   6
ATOM      6  C   UNL     1       5.521   4.254  15.917  0.00  0.00    +0.000 A 
ATOM      7  C   UNL     1       6.476   5.002  16.580  0.00  0.00    +0.000 A 
ATOM      8  N   UNL     1       7.430   5.386  15.675  0.00  0.00    +0.000 N 
ATOM      9  C   UNL     1       7.123   4.905  14.425  0.00  0.00    +0.000 A 
ATOM     10  C   UNL     1       7.809   5.047  13.213  0.00  0.00    +0.000 A 
ATOM     11  C   UNL     1       7.260   4.434  12.082  0.00  0.00    +0.000 A 
ATOM     12  C   UNL     1       6.076   3.708  12.166  0.00  0.00    +0.000 A 
ATOM     13  C   UNL     1       5.406   3.574  13.388  0.00  0.00    +0.000 A 
ATOM     14  C   UNL     1       5.933   4.187  14.544  0.00  0.00    +0.000 A 
ATOM     15  H   UNL     1       8.252   5.934  15.890  0.00  0.00    +0.000 HD
ENDBRANCH   5   6
ENDBRANCH   2   5
BRANCH   3  16
ATOM     16  C   UNL     1       3.311   5.933  19.368  0.00  0.00    +0.000 C 
BRANCH  16  17
ATOM     17  C   UNL     1       2.508   7.198  19.212  0.00  0.00    +0.000 A 
ATOM     18  C   UNL     1       1.826   7.758  20.295  0.00  0.00    +0.000 A 
ATOM     19  C   UNL     1       1.094   8.944  20.143  0.00  0.00    +0.000 A 
ATOM     20  C   UNL     1       1.000   9.594  18.906  0.00  0.00    +0.000 A 
ATOM     21  C   UNL     1       1.692   9.025  17.827  0.00  0.00    +0.000 A 
ATOM     22  C   UNL     1       2.443   7.852  17.978  0.00  0.00    +0.000 A 
BRANCH  20  23
ATOM     23  N   UNL     1       0.219  10.772  18.734  0.00  0.00    +0.000 N 
ATOM     24  C   UNL     1      -1.216  10.728  18.570  0.00  0.00    +0.000 C 
ATOM     25  C   UNL     1      -1.605  12.140  18.185  0.00  0.00    +0.000 C 
ATOM     26  C   UNL     1      -0.544  13.000  18.841  0.00  0.00    +0.000 C 
ATOM     27  C   UNL     1       0.662  12.094  18.897  0.00  0.00    +0.000 C 
ATOM     28  O   UNL     1       1.792  12.516  19.094  0.00  0.00    +0.000 OA
ENDBRANCH  20  23
ENDBRANCH  16  17
ENDBRANCH   3  16
TORSDOF 5
ENDMDL
MODEL 3
REMARK VINA RESULT:      -8.2      3.292      5.129
REMARK  Name = 
REMARK  5 active torsions:
REMARK  status: ('A' for Active; 'I' for Inactive)
REMARK    1  A    between atoms: C_2  and  C_3
REMARK    2  A    between atoms: C_3  and  C_4
REMARK    3  A    between atoms: N_13  and  C_14
REMARK    4  A    between atoms: C_14  and  C_15
REMARK    5  A    between atoms: C_18  and  N_19
REMARK                            x       y       z     vdW  Elec       q    Type
REMARK                         _______ _______ _______ _____ _____    ______ ____
ROOT
ATOM      1  O   UNL     1       5.434   7.058  16.715  0.00  0.00    +0.000 OA
ATOM      2  C   UNL     1       4.760   6.492  17.573  0.00  0.00    +0.000 C 
ATOM      3  N   UNL     1       3.518   6.936  17.967  0.00  0.00    +0.000 N 
ATOM      4  H   UNL     1       3.011   6.433  18.682  0.00  0.00    +0.000 HD
ENDROOT
BRANCH   2   5
ATOM      5  C   UNL     1       5.223   5.217  18.259  0.00  0.00    +0.000 C 
BRANCH   5   6
ATOM      6  C   UNL     1       4.178   4.147  18.271  0.00  0.00    +0.000 A 
ATOM      7  C   UNL     1       3.982   3.183  17.299  0.00  0.00    +0.000 A 
ATOM      8  N   UNL     1       2.958   2.366  17.701  0.00  0.00    +0.000 N 
ATOM      9  C   UNL     1       2.474   2.773  18.921  0.00  0.00    +0.000 A 
ATOM     10  C   UNL     1       1.445   2.238  19.704  0.00  0.00    +0.000 A 
ATOM     11  C   UNL     1       1.168   2.862  20.925  0.00  0.00    +0.000 A 
ATOM     12  C   UNL     1       1.896   3.972  21.343  0.00  0.00    +0.000 A 
ATOM     13  C   UNL     1       2.924   4.491  20.547  0.00  0.00    +0.000 A 
ATOM     14  C   UNL     1       3.221   3.886  19.308  0.00  0.00    +0.000 A 
ATOM     15  H   UNL     1       2.611   1.569  17.187  0.00  0.00    +0.000 HD
ENDBRANCH   5   6
ENDBRANCH   2   5
BRANCH   3  16
ATOM     16  C   UNL     1       2.912   8.126  17.412  0.00  0.00    +0.000 C 
BRANCH  16  17
ATOM     17  C   UNL     1       2.046   8.821  18.431  0.00  0.00    +0.000 A 
ATOM     18  C   UNL     1       1.793   8.244  19.677  0.00  0.00    +0.000 A 
ATOM     19  C   UNL     1       0.999   8.906  20.624  0.00  0.00    +0.000 A 
ATOM     20  C   UNL     1       0.416  10.149  20.351  0.00  0.00    +0.000 A 
ATOM     21  C   UNL     1       0.681  10.721  19.098  0.00  0.00    +0.000 A 
ATOM     22  C   UNL     1       1.492  10.074  18.156  0.00  0.00    +0.000 A 
BRANCH  20  23
ATOM     23  N   UNL     1      -0.429  10.805  21.290  0.00  0.00    +0.000 N 
ATOM     24  C   UNL     1      -1.532  11.643  20.879  0.00  0.00    +0.000 C 
ATOM     25  C   UNL     1      -2.002  12.317  22.151  0.00  0.00    +0.000 C 
ATOM     26  C   UNL     1      -1.651  11.323  23.238  0.00  0.00    +0.000 C 
ATOM     27  C   UNL     1      -0.458  10.588  22.677  0.00  0.00    +0.000 C 
ATOM     28  O   UNL     1       0.285   9.911  23.372  0.00  0.00    +0.000 OA
ENDBRANCH  20  23
ENDBRANCH  16  17
ENDBRANCH   3  16
TORSDOF 5
ENDMDL
MODEL 4
REMARK VINA RESULT:      -8.2      0.496      1.062
REMARK  Name = 
REMARK  5 active torsions:
REMARK  status: ('A' for Active; 'I' for Inactive)
REMARK    1  A    between atoms: C_2  and  C_3
REMARK    2  A    between atoms: C_3  and  C_4
REMARK    3  A    between atoms: N_13  and  C_14
REMARK    4  A    between atoms: C_14  and  C_15
REMARK    5  A    between atoms: C_18  and  N_19
REMARK                            x       y       z     vdW  Elec       q    Type
REMARK                         _______ _______ _______ _____ _____    ______ ____
ROOT
ATOM      1  O   UNL     1       5.535   5.208  18.631  0.00  0.00    +0.000 OA
ATOM      2  C   UNL     1       4.536   4.879  17.997  0.00  0.00    +0.000 C 
ATOM      3  N   UNL     1       3.253   5.134  18.429  0.00  0.00    +0.000 N 
ATOM      4  H   UNL     1       2.468   4.834  17.867  0.00  0.00    +0.000 HD
ENDROOT
BRANCH   2   5
ATOM      5  C   UNL     1       4.623   4.185  16.648  0.00  0.00    +0.000 C 
BRANCH   5   6
ATOM      6  C   UNL     1       5.754   4.684  15.805  0.00  0.00    +0.000 A 
ATOM      7  C   UNL     1       6.779   5.515  16.219  0.00  0.00    +0.000 A 
ATOM      8  N   UNL     1       7.635   5.703  15.166  0.00  0.00    +0.000 N 
ATOM      9  C   UNL     1       7.194   5.011  14.064  0.00  0.00    +0.000 A 
ATOM     10  C   UNL     1       7.750   4.912  12.782  0.00  0.00    +0.000 A 
ATOM     11  C   UNL     1       7.080   4.119  11.845  0.00  0.00    +0.000 A 
ATOM     12  C   UNL     1       5.905   3.452  12.181  0.00  0.00    +0.000 A 
ATOM     13  C   UNL     1       5.367   3.560  13.469  0.00  0.00    +0.000 A 
ATOM     14  C   UNL     1       6.018   4.358  14.433  0.00  0.00    +0.000 A 
ATOM     15  H   UNL     1       8.479   6.259  15.191  0.00  0.00    +0.000 HD
ENDBRANCH   5   6
ENDBRANCH   2   5
BRANCH   3  16
ATOM     16  C   UNL     1       2.979   5.797  19.684  0.00  0.00    +0.000 C 
BRANCH  16  17
ATOM     17  C   UNL     1       2.312   7.130  19.460  0.00  0.00    +0.000 A 
ATOM     18  C   UNL     1       2.259   7.706  18.189  0.00  0.00    +0.000 A 
ATOM     19  C   UNL     1       1.623   8.939  17.988  0.00  0.00    +0.000 A 
ATOM     20  C   UNL     1       1.040   9.644  19.048  0.00  0.00    +0.000 A 
ATOM     21  C   UNL     1       1.096   9.054  20.320  0.00  0.00    +0.000 A 
ATOM     22  C   UNL     1       1.711   7.811  20.522  0.00  0.00    +0.000 A 
BRANCH  20  23
ATOM     23  N   UNL     1       0.434  10.918  18.860  0.00  0.00    +0.000 N 
ATOM     24  C   UNL     1       1.178  12.151  18.986  0.00  0.00    +0.000 C 
ATOM     25  C   UNL     1       0.128  13.242  18.948  0.00  0.00    +0.000 C 
ATOM     26  C   UNL     1      -0.984  12.646  18.111  0.00  0.00    +0.000 C 
ATOM     27  C   UNL     1      -0.850  11.161  18.346  0.00  0.00    +0.000 C 
ATOM     28  O   UNL     1      -1.739  10.368  18.074  0.00  0.00    +0.000 OA
ENDBRANCH  20  23
ENDBRANCH  16  17
ENDBRANCH   3  16
TORSDOF 5
ENDMDL
MODEL 5
REMARK VINA RESULT:      -8.1      5.980      8.548
REMARK  Name = 
REMARK  5 active torsions:
REMARK  status: ('A' for Active; 'I' for Inactive)
REMARK    1  A    between atoms: C_2  and  C_3
REMARK    2  A    between atoms: C_3  and  C_4
REMARK    3  A    between atoms: N_13  and  C_14
REMARK    4  A    between atoms: C_14  and  C_15
REMARK    5  A    between atoms: C_18  and  N_19
REMARK                            x       y       z     vdW  Elec       q    Type
REMARK                         _______ _______ _______ _____ _____    ______ ____
ROOT
ATOM      1  O   UNL     1       7.734  10.171  17.471  0.00  0.00    +0.000 OA
ATOM      2  C   UNL     1       8.322   9.390  18.215  0.00  0.00    +0.000 C 
ATOM      3  N   UNL     1       8.244   8.022  18.083  0.00  0.00    +0.000 N 
ATOM      4  H   UNL     1       8.746   7.428  18.729  0.00  0.00    +0.000 HD
ENDROOT
BRANCH   2   5
ATOM      5  C   UNL     1       9.229   9.866  19.338  0.00  0.00    +0.000 C 
BRANCH   5   6
ATOM      6  C   UNL     1       9.966  11.124  19.002  0.00  0.00    +0.000 A 
ATOM      7  C   UNL     1      10.638  11.389  17.822  0.00  0.00    +0.000 A 
ATOM      8  N   UNL     1      11.141  12.661  17.888  0.00  0.00    +0.000 N 
ATOM      9  C   UNL     1      10.813  13.242  19.090  0.00  0.00    +0.000 A 
ATOM     10  C   UNL     1      11.110  14.519  19.582  0.00  0.00    +0.000 A 
ATOM     11  C   UNL     1      10.635  14.849  20.855  0.00  0.00    +0.000 A 
ATOM     12  C   UNL     1       9.891  13.938  21.600  0.00  0.00    +0.000 A 
ATOM     13  C   UNL     1       9.601  12.668  21.088  0.00  0.00    +0.000 A 
ATOM     14  C   UNL     1      10.073  12.305  19.809  0.00  0.00    +0.000 A 
ATOM     15  H   UNL     1      11.667  13.120  17.157  0.00  0.00    +0.000 HD
ENDBRANCH   5   6
ENDBRANCH   2   5
BRANCH   3  16
ATOM     16  C   UNL     1       7.439   7.389  17.062  0.00  0.00    +0.000 C 
BRANCH  16  17
ATOM     17  C   UNL     1       6.301   6.612  17.670  0.00  0.00    +0.000 A 
ATOM     18  C   UNL     1       6.527   5.666  18.671  0.00  0.00    +0.000 A 
ATOM     19  C   UNL     1       5.459   4.959  19.242  0.00  0.00    +0.000 A 
ATOM     20  C   UNL     1       4.139   5.157  18.818  0.00  0.00    +0.000 A 
ATOM     21  C   UNL     1       3.924   6.113  17.814  0.00  0.00    +0.000 A 
ATOM     22  C   UNL     1       4.985   6.838  17.256  0.00  0.00    +0.000 A 
BRANCH  20  23
ATOM     23  N   UNL     1       3.056   4.408  19.359  0.00  0.00    +0.000 N 
ATOM     24  C   UNL     1       2.139   4.969  20.326  0.00  0.00    +0.000 C 
ATOM     25  C   UNL     1       1.313   3.794  20.804  0.00  0.00    +0.000 C 
ATOM     26  C   UNL     1       1.306   2.851  19.619  0.00  0.00    +0.000 C 
ATOM     27  C   UNL     1       2.605   3.156  18.913  0.00  0.00    +0.000 C 
ATOM     28  O   UNL     1       3.093   2.407  18.080  0.00  0.00    +0.000 OA
ENDBRANCH  20  23
ENDBRANCH  16  17
ENDBRANCH   3  16
TORSDOF 5
ENDMDL
MODEL 6
REMARK VINA RESULT:      -8.1      6.516      7.975
REMARK  Name = 
REMARK  5 active torsions:
REMARK  status: ('A' for Active; 'I' for Inactive)
REMARK    1  A    between atoms: C_2  and  C_3
REMARK    2  A    between atoms: C_3  and  C_4
REMARK    3  A    between atoms: N_13  and  C_14
REMARK    4  A    between atoms: C_14  and  C_15
REMARK    5  A    between atoms: C_18  and  N_19
REMARK                            x       y       z     vdW  Elec       q    Type
REMARK                         _______ _______ _______ _____ _____    ______ ____
ROOT
ATOM      1  O   UNL     1       7.494   6.350  18.505  0.00  0.00    +0.000 OA
ATOM      2  C   UNL     1       7.253   7.160  17.614  0.00  0.00    +0.000 C 
ATOM      3  N   UNL     1       7.805   8.422  17.576  0.00  0.00    +0.000 N 
ATOM      4  H   UNL     1       7.565   9.049  16.820  0.00  0.00    +0.000 HD
ENDROOT
BRANCH   2   5
ATOM      5  C   UNL     1       6.345   6.831  16.441  0.00  0.00    +0.000 C 
BRANCH   5   6
ATOM      6  C   UNL     1       5.728   5.473  16.542  0.00  0.00    +0.000 A 
ATOM      7  C   UNL     1       6.313   4.277  16.165  0.00  0.00    +0.000 A 
ATOM      8  N   UNL     1       5.444   3.260  16.458  0.00  0.00    +0.000 N 
ATOM      9  C   UNL     1       4.295   3.760  17.022  0.00  0.00    +0.000 A 
ATOM     10  C   UNL     1       3.151   3.094  17.476  0.00  0.00    +0.000 A 
ATOM     11  C   UNL     1       2.122   3.869  18.021  0.00  0.00    +0.000 A 
ATOM     12  C   UNL     1       2.239   5.253  18.109  0.00  0.00    +0.000 A 
ATOM     13  C   UNL     1       3.393   5.901  17.652  0.00  0.00    +0.000 A 
ATOM     14  C   UNL     1       4.444   5.145  17.093  0.00  0.00    +0.000 A 
ATOM     15  H   UNL     1       5.619   2.277  16.297  0.00  0.00    +0.000 HD
ENDBRANCH   5   6
ENDBRANCH   2   5
BRANCH   3  16
ATOM     16  C   UNL     1       8.703   8.903  18.602  0.00  0.00    +0.000 C 
BRANCH  16  17
ATOM     17  C   UNL     1       9.019  10.363  18.406  0.00  0.00    +0.000 A 
ATOM     18  C   UNL     1       8.175  11.191  17.662  0.00  0.00    +0.000 A 
ATOM     19  C   UNL     1       8.470  12.552  17.499  0.00  0.00    +0.000 A 
ATOM     20  C   UNL     1       9.623  13.124  18.052  0.00  0.00    +0.000 A 
ATOM     21  C   UNL     1      10.460  12.284  18.800  0.00  0.00    +0.000 A 
ATOM     22  C   UNL     1      10.159  10.928  18.985  0.00  0.00    +0.000 A 
BRANCH  20  23
ATOM     23  N   UNL     1       9.952  14.494  17.850  0.00  0.00    +0.000 N 
ATOM     24  C   UNL     1       9.137  15.567  18.371  0.00  0.00    +0.000 C 
ATOM     25  C   UNL     1       9.699  16.823  17.739  0.00  0.00    +0.000 C 
ATOM     26  C   UNL     1      11.158  16.490  17.508  0.00  0.00    +0.000 C 
ATOM     27  C   UNL     1      11.157  14.991  17.329  0.00  0.00    +0.000 C 
ATOM     28  O   UNL     1      12.100  14.386  16.840  0.00  0.00    +0.000 OA
ENDBRANCH  20  23
ENDBRANCH  16  17
ENDBRANCH   3  16
TORSDOF 5
ENDMDL
MODEL 7
REMARK VINA RESULT:      -8.1      5.877      8.175
REMARK  Name = 
REMARK  5 active torsions:
REMARK  status: ('A' for Active; 'I' for Inactive)
REMARK    1  A    between atoms: C_2  and  C_3
REMARK    2  A    between atoms: C_3  and  C_4
REMARK    3  A    between atoms: N_13  and  C_14
REMARK    4  A    between atoms: C_14  and  C_15
REMARK    5  A    between atoms: C_18  and  N_19
REMARK                            x       y       z     vdW  Elec       q    Type
REMARK                         _______ _______ _______ _____ _____    ______ ____
ROOT
ATOM      1  O   UNL     1       7.720  10.155  17.632  0.00  0.00    +0.000 OA
ATOM      2  C   UNL     1       8.358   9.308  18.252  0.00  0.00    +0.000 C 
ATOM      3  N   UNL     1       8.253   7.957  18.004  0.00  0.00    +0.000 N 
ATOM      4  H   UNL     1       8.799   7.305  18.551  0.00  0.00    +0.000 HD
ENDROOT
BRANCH   2   5
ATOM      5  C   UNL     1       9.358   9.676  19.335  0.00  0.00    +0.000 C 
BRANCH   5   6
ATOM      6  C   UNL     1       9.467  11.152  19.554  0.00  0.00    +0.000 A 
ATOM      7  C   UNL     1       8.975  11.859  20.636  0.00  0.00    +0.000 A 
ATOM      8  N   UNL     1       9.317  13.176  20.484  0.00  0.00    +0.000 N 
ATOM      9  C   UNL     1      10.026  13.354  19.321  0.00  0.00    +0.000 A 
ATOM     10  C   UNL     1      10.575  14.518  18.770  0.00  0.00    +0.000 A 
ATOM     11  C   UNL     1      11.263  14.401  17.559  0.00  0.00    +0.000 A 
ATOM     12  C   UNL     1      11.399  13.166  16.930  0.00  0.00    +0.000 A 
ATOM     13  C   UNL     1      10.846  12.012  17.498  0.00  0.00    +0.000 A 
ATOM     14  C   UNL     1      10.141  12.102  18.716  0.00  0.00    +0.000 A 
ATOM     15  H   UNL     1       9.095  13.916  21.136  0.00  0.00    +0.000 HD
ENDBRANCH   5   6
ENDBRANCH   2   5
BRANCH   3  16
ATOM     16  C   UNL     1       7.361   7.424  16.999  0.00  0.00    +0.000 C 
BRANCH  16  17
ATOM     17  C   UNL     1       6.239   6.641  17.629  0.00  0.00    +0.000 A 
ATOM     18  C   UNL     1       6.486   5.718  18.648  0.00  0.00    +0.000 A 
ATOM     19  C   UNL     1       5.433   5.005  19.239  0.00  0.00    +0.000 A 
ATOM     20  C   UNL     1       4.108   5.173  18.818  0.00  0.00    +0.000 A 
ATOM     21  C   UNL     1       3.871   6.104  17.796  0.00  0.00    +0.000 A 
ATOM     22  C   UNL     1       4.917   6.835  17.218  0.00  0.00    +0.000 A 
BRANCH  20  23
ATOM     23  N   UNL     1       3.040   4.418  19.380  0.00  0.00    +0.000 N 
ATOM     24  C   UNL     1       2.058   5.009  20.261  0.00  0.00    +0.000 C 
ATOM     25  C   UNL     1       1.270   3.837  20.806  0.00  0.00    +0.000 C 
ATOM     26  C   UNL     1       1.357   2.800  19.706  0.00  0.00    +0.000 C 
ATOM     27  C   UNL     1       2.668   3.111  19.026  0.00  0.00    +0.000 C 
ATOM     28  O   UNL     1       3.226   2.322  18.279  0.00  0.00    +0.000 OA
ENDBRANCH  20  23
ENDBRANCH  16  17
ENDBRANCH   3  16
TORSDOF 5
ENDMDL
MODEL 8
REMARK VINA RESULT:      -8.1      6.005      8.520
REMARK  Name = 
REMARK  5 active torsions:
REMARK  status: ('A' for Active; 'I' for Inactive)
REMARK    1  A    between atoms: C_2  and  C_3
REMARK    2  A    between atoms: C_3  and  C_4
REMARK    3  A    between atoms: N_13  and  C_14
REMARK    4  A    between atoms: C_14  and  C_15
REMARK    5  A    between atoms: C_18  and  N_19
REMARK                            x       y       z     vdW  Elec       q    Type
REMARK                         _______ _______ _______ _____ _____    ______ ____
ROOT
ATOM      1  O   UNL     1       7.848  10.053  17.453  0.00  0.00    +0.000 OA
ATOM      2  C   UNL     1       8.379   9.307  18.273  0.00  0.00    +0.000 C 
ATOM      3  N   UNL     1       8.309   7.933  18.195  0.00  0.00    +0.000 N 
ATOM      4  H   UNL     1       8.761   7.370  18.902  0.00  0.00    +0.000 HD
ENDROOT
BRANCH   2   5
ATOM      5  C   UNL     1       9.200   9.833  19.438  0.00  0.00    +0.000 C 
BRANCH   5   6
ATOM      6  C   UNL     1       9.948  11.085  19.107  0.00  0.00    +0.000 A 
ATOM      7  C   UNL     1      10.640  11.342  17.937  0.00  0.00    +0.000 A 
ATOM      8  N   UNL     1      11.148  12.612  18.005  0.00  0.00    +0.000 N 
ATOM      9  C   UNL     1      10.805  13.200  19.198  0.00  0.00    +0.000 A 
ATOM     10  C   UNL     1      11.101  14.478  19.690  0.00  0.00    +0.000 A 
ATOM     11  C   UNL     1      10.607  14.816  20.954  0.00  0.00    +0.000 A 
ATOM     12  C   UNL     1       9.846  13.912  21.691  0.00  0.00    +0.000 A 
ATOM     13  C   UNL     1       9.558  12.641  21.180  0.00  0.00    +0.000 A 
ATOM     14  C   UNL     1      10.048  12.270  19.911  0.00  0.00    +0.000 A 
ATOM     15  H   UNL     1      11.688  13.064  17.280  0.00  0.00    +0.000 HD
ENDBRANCH   5   6
ENDBRANCH   2   5
BRANCH   3  16
ATOM     16  C   UNL     1       7.581   7.255  17.146  0.00  0.00    +0.000 C 
BRANCH  16  17
ATOM     17  C   UNL     1       6.391   6.515  17.699  0.00  0.00    +0.000 A 
ATOM     18  C   UNL     1       5.109   6.726  17.187  0.00  0.00    +0.000 A 
ATOM     19  C   UNL     1       4.010   6.021  17.699  0.00  0.00    +0.000 A 
ATOM     20  C   UNL     1       4.151   5.105  18.748  0.00  0.00    +0.000 A 
ATOM     21  C   UNL     1       5.444   4.899  19.252  0.00  0.00    +0.000 A 
ATOM     22  C   UNL     1       6.550   5.584  18.729  0.00  0.00    +0.000 A 
BRANCH  20  23
ATOM     23  N   UNL     1       3.033   4.421  19.304  0.00  0.00    +0.000 N 
ATOM     24  C   UNL     1       2.895   2.984  19.232  0.00  0.00    +0.000 C 
ATOM     25  C   UNL     1       1.487   2.706  19.716  0.00  0.00    +0.000 C 
ATOM     26  C   UNL     1       1.201   3.846  20.671  0.00  0.00    +0.000 C 
ATOM     27  C   UNL     1       2.054   4.975  20.144  0.00  0.00    +0.000 C 
ATOM     28  O   UNL     1       1.879   6.139  20.470  0.00  0.00    +0.000 OA
ENDBRANCH  20  23
ENDBRANCH  16  17
ENDBRANCH   3  16
TORSDOF 5
ENDMDL
MODEL 9
REMARK VINA RESULT:      -8.0      1.047      1.129
REMARK  Name = 
REMARK  5 active torsions:
REMARK  status: ('A' for Active; 'I' for Inactive)
REMARK    1  A    between atoms: C_2  and  C_3
REMARK    2  A    between atoms: C_3  and  C_4
REMARK    3  A    between atoms: N_13  and  C_14
REMARK    4  A    between atoms: C_14  and  C_15
REMARK    5  A    between atoms: C_18  and  N_19
REMARK                            x       y       z     vdW  Elec       q    Type
REMARK                         _______ _______ _______ _____ _____    ______ ____
ROOT
ATOM      1  O   UNL     1       5.239   3.765  18.882  0.00  0.00    +0.000 OA
ATOM      2  C   UNL     1       4.438   4.183  18.049  0.00  0.00    +0.000 C 
ATOM      3  N   UNL     1       3.419   5.057  18.358  0.00  0.00    +0.000 N 
ATOM      4  H   UNL     1       2.786   5.363  17.632  0.00  0.00    +0.000 HD
ENDROOT
BRANCH   2   5
ATOM      5  C   UNL     1       4.519   3.800  16.581  0.00  0.00    +0.000 C 
BRANCH   5   6
ATOM      6  C   UNL     1       5.651   4.466  15.865  0.00  0.00    +0.000 A 
ATOM      7  C   UNL     1       6.562   5.349  16.414  0.00  0.00    +0.000 A 
ATOM      8  N   UNL     1       7.464   5.699  15.445  0.00  0.00    +0.000 N 
ATOM      9  C   UNL     1       7.167   5.062  14.264  0.00  0.00    +0.000 A 
ATOM     10  C   UNL     1       7.813   5.118  13.024  0.00  0.00    +0.000 A 
ATOM     11  C   UNL     1       7.287   4.347  11.982  0.00  0.00    +0.000 A 
ATOM     12  C   UNL     1       6.161   3.552  12.180  0.00  0.00    +0.000 A 
ATOM     13  C   UNL     1       5.531   3.506  13.429  0.00  0.00    +0.000 A 
ATOM     14  C   UNL     1       6.037   4.278  14.495  0.00  0.00    +0.000 A 
ATOM     15  H   UNL     1       8.248   6.324  15.574  0.00  0.00    +0.000 HD
ENDBRANCH   5   6
ENDBRANCH   2   5
BRANCH   3  16
ATOM     16  C   UNL     1       3.198   5.540  19.703  0.00  0.00    +0.000 C 
BRANCH  16  17
ATOM     17  C   UNL     1       2.456   6.851  19.695  0.00  0.00    +0.000 A 
ATOM     18  C   UNL     1       1.800   7.316  20.837  0.00  0.00    +0.000 A 
ATOM     19  C   UNL     1       1.125   8.545  20.824  0.00  0.00    +0.000 A 
ATOM     20  C   UNL     1       1.064   9.335  19.669  0.00  0.00    +0.000 A 
ATOM     21  C   UNL     1       1.729   8.859  18.530  0.00  0.00    +0.000 A 
ATOM     22  C   UNL     1       2.424   7.642  18.544  0.00  0.00    +0.000 A 
BRANCH  20  23
ATOM     23  N   UNL     1       0.340  10.560  19.635  0.00  0.00    +0.000 N 
ATOM     24  C   UNL     1       0.280  11.387  18.451  0.00  0.00    +0.000 C 
ATOM     25  C   UNL     1      -0.369  12.675  18.910  0.00  0.00    +0.000 C 
ATOM     26  C   UNL     1      -1.252  12.245  20.062  0.00  0.00    +0.000 C 
ATOM     27  C   UNL     1      -0.549  11.029  20.615  0.00  0.00    +0.000 C 
ATOM     28  O   UNL     1      -0.796  10.572  21.721  0.00  0.00    +0.000 OA
ENDBRANCH  20  23
ENDBRANCH  16  17
ENDBRANCH   3  16
TORSDOF 5
ENDMDL
