MODEL 1
REMARK VINA RESULT:      -8.7      0.000      0.000
REMARK  Name = 
REMARK  6 active torsions:
REMARK  status: ('A' for Active; 'I' for Inactive)
REMARK    1  A    between atoms: C_1  and  N_2
REMARK    2  A    between atoms: N_2  and  C_3
REMARK    3  A    between atoms: N_2  and  S_9
REMARK    4  A    between atoms: S_9  and  C_12
REMARK    5  A    between atoms: C_16  and  N_17
REMARK    6  A    between atoms: C_18  and  C_20
REMARK                            x       y       z     vdW  Elec       q    Type
REMARK                         _______ _______ _______ _____ _____    ______ ____
ROOT
ATOM      1  C   UNL     1       6.589   6.493  17.382  0.00  0.00    +0.000 A 
ATOM      2  C   UNL     1       7.127   5.622  18.330  0.00  0.00    +0.000 A 
ATOM      3  C   UNL     1       8.111   6.093  19.196  0.00  0.00    +0.000 A 
ATOM      4  C   UNL     1       8.578   7.408  19.093  0.00  0.00    +0.000 A 
ATOM      5  C   UNL     1       8.077   8.299  18.121  0.00  0.00    +0.000 A 
ATOM      6  C   UNL     1       7.057   7.827  17.285  0.00  0.00    +0.000 A 
ENDROOT
BRANCH   5   7
ATOM      7  N   UNL     1       8.593   9.617  17.922  0.00  0.00    +0.000 N 
ATOM      8  C   UNL     1       9.130  10.451  18.891  0.00  0.00    +0.000 C 
ATOM      9  O   UNL     1       9.161  10.183  20.096  0.00  0.00    +0.000 OA
ATOM     10  H   UNL     1       8.573   9.992  16.970  0.00  0.00    +0.000 HD
BRANCH   8  11
ATOM     11  C   UNL     1       9.787  11.735  18.478  0.00  0.00    +0.000 A 
ATOM     12  C   UNL     1      10.946  11.607  17.674  0.00  0.00    +0.000 A 
ATOM     13  C   UNL     1      11.554  12.702  17.084  0.00  0.00    +0.000 A 
ATOM     14  C   UNL     1      10.911  13.935  17.135  0.00  0.00    +0.000 A 
ATOM     15  C   UNL     1       9.766  14.060  17.957  0.00  0.00    +0.000 A 
ATOM     16  C   UNL     1       9.130  15.293  18.021  0.00  0.00    +0.000 A 
ATOM     17  C   UNL     1       8.633  15.679  19.235  0.00  0.00    +0.000 A 
ATOM     18  C   UNL     1       8.309  14.644  20.101  0.00  0.00    +0.000 A 
ATOM     19  N   UNL     1       8.486  13.340  19.816  0.00  0.00    +0.000 NA
ATOM     20  C   UNL     1       9.300  13.027  18.767  0.00  0.00    +0.000 A 
ENDBRANCH   8  11
ENDBRANCH   5   7
BRANCH   1  21
ATOM     21  S   UNL     1       5.523   5.809  16.107  0.00  0.00    +0.000 S 
ATOM     22  O   UNL     1       6.210   4.648  15.576  0.00  0.00    +0.000 OA
ATOM     23  O   UNL     1       5.156   6.902  15.229  0.00  0.00    +0.000 OA
BRANCH  21  25
ATOM     24  C   UNL     1       3.840   3.819  16.927  0.00  0.00    +0.000 C 
ATOM     25  N   UNL     1       4.137   5.258  16.907  0.00  0.00    +0.000 N 
BRANCH  25  26
ATOM     26  C   UNL     1       3.513   6.078  17.892  0.00  0.00    +0.000 A 
ATOM     27  C   UNL     1       3.104   7.367  17.543  0.00  0.00    +0.000 A 
ATOM     28  C   UNL     1       2.354   8.126  18.442  0.00  0.00    +0.000 A 
ATOM     29  C   UNL     1       2.017   7.598  19.688  0.00  0.00    +0.000 A 
ATOM     30  C   UNL     1       2.456   6.325  20.049  0.00  0.00    +0.000 A 
ATOM     31  C   UNL     1       3.210   5.565  19.155  0.00  0.00    +0.000 A 
ENDBRANCH  25  26
ENDBRANCH  21  25
ENDBRANCH   1  21
TORSDOF 5
ENDMDL
MODEL 2
REMARK VINA RESULT:      -8.7      5.919      9.325
REMARK  Name = 
REMARK  6 active torsions:
REMARK  status: ('A' for Active; 'I' for Inactive)
REMARK    1  A    between atoms: C_1  and  N_2
REMARK    2  A    between atoms: N_2  and  C_3
REMARK    3  A    between atoms: N_2  and  S_9
REMARK    4  A    between atoms: S_9  and  C_12
REMARK    5  A    between atoms: C_16  and  N_17
REMARK    6  A    between atoms: C_18  and  C_20
REMARK                            x       y       z     vdW  Elec       q    Type
REMARK                         _______ _______ _______ _____ _____    ______ ____
ROOT
ATOM      1  C   UNL     1       0.631  10.790  21.409  0.00  0.00    +0.000 A 
ATOM      2  C   UNL     1      -0.372  10.360  22.280  0.00  0.00    +0.000 A 
ATOM      3  C   UNL     1      -0.582   8.993  22.444  0.00  0.00    +0.000 A 
ATOM      4  C   UNL     1       0.177   8.066  21.721  0.00  0.00    +0.000 A 
ATOM      5  C   UNL     1       1.173   8.472  20.809  0.00  0.00    +0.000 A 
ATOM      6  C   UNL     1       1.404   9.849  20.684  0.00  0.00    +0.000 A 
ENDROOT
BRANCH   5   7
ATOM      7  N   UNL     1       1.902   7.562  19.983  0.00  0.00    +0.000 N 
ATOM      8  C   UNL     1       2.150   7.693  18.625  0.00  0.00    +0.000 C 
ATOM      9  O   UNL     1       1.695   8.600  17.922  0.00  0.00    +0.000 OA
ATOM     10  H   UNL     1       2.287   6.726  20.429  0.00  0.00    +0.000 HD
BRANCH   8  11
ATOM     11  C   UNL     1       3.082   6.732  17.948  0.00  0.00    +0.000 A 
ATOM     12  C   UNL     1       4.202   7.308  17.300  0.00  0.00    +0.000 A 
ATOM     13  C   UNL     1       5.227   6.536  16.781  0.00  0.00    +0.000 A 
ATOM     14  C   UNL     1       5.247   5.173  17.060  0.00  0.00    +0.000 A 
ATOM     15  C   UNL     1       4.117   4.601  17.690  0.00  0.00    +0.000 A 
ATOM     16  C   UNL     1       4.128   3.238  17.958  0.00  0.00    +0.000 A 
ATOM     17  C   UNL     1       2.953   2.558  17.795  0.00  0.00    +0.000 A 
ATOM     18  C   UNL     1       1.801   3.320  17.933  0.00  0.00    +0.000 A 
ATOM     19  N   UNL     1       1.799   4.644  18.179  0.00  0.00    +0.000 NA
ATOM     20  C   UNL     1       2.963   5.327  17.977  0.00  0.00    +0.000 A 
ENDBRANCH   8  11
ENDBRANCH   5   7
BRANCH   1  21
ATOM     21  S   UNL     1       0.714  12.538  21.005  0.00  0.00    +0.000 S 
ATOM     22  O   UNL     1       2.120  12.893  20.998  0.00  0.00    +0.000 OA
ATOM     23  O   UNL     1      -0.204  13.223  21.892  0.00  0.00    +0.000 OA
BRANCH  21  25
ATOM     24  C   UNL     1       1.043  13.192  18.373  0.00  0.00    +0.000 C 
ATOM     25  N   UNL     1       0.147  12.675  19.416  0.00  0.00    +0.000 N 
BRANCH  25  26
ATOM     26  C   UNL     1      -0.990  11.922  19.001  0.00  0.00    +0.000 A 
ATOM     27  C   UNL     1      -2.265  12.369  19.351  0.00  0.00    +0.000 A 
ATOM     28  C   UNL     1      -3.393  11.736  18.824  0.00  0.00    +0.000 A 
ATOM     29  C   UNL     1      -3.243  10.656  17.954  0.00  0.00    +0.000 A 
ATOM     30  C   UNL     1      -1.970  10.188  17.634  0.00  0.00    +0.000 A 
ATOM     31  C   UNL     1      -0.840  10.815  18.162  0.00  0.00    +0.000 A 
ENDBRANCH  25  26
ENDBRANCH  21  25
ENDBRANCH   1  21
TORSDOF 5
ENDMDL
MODEL 3
REMARK VINA RESULT:      -8.7      5.762      8.026
REMARK  Name = 
REMARK  6 active torsions:
REMARK  status: ('A' for Active; 'I' for Inactive)
REMARK    1  A    between atoms: C_1  and  N_2
REMARK    2  A    between atoms: N_2  and  C_3
REMARK    3  A    between atoms: N_2  and  S_9
REMARK    4  A    between atoms: S_9  and  C_12
REMARK    5  A    between atoms: C_16  and  N_17
REMARK    6  A    between atoms: C_18  and  C_20
REMARK                            x       y       z     vdW  Elec       q    Type
REMARK                         _______ _______ _______ _____ _____    ______ ____
ROOT
ATOM      1  C   UNL     1       4.557   5.919  17.467  0.00  0.00    +0.000 A 
ATOM      2  C   UNL     1       4.592   4.547  17.721  0.00  0.00    +0.000 A 
ATOM      3  C   UNL     1       3.772   4.025  18.718  0.00  0.00    +0.000 A 
ATOM      4  C   UNL     1       2.951   4.867  19.477  0.00  0.00    +0.000 A 
ATOM      5  C   UNL     1       2.921   6.261  19.265  0.00  0.00    +0.000 A 
ATOM      6  C   UNL     1       3.719   6.769  18.231  0.00  0.00    +0.000 A 
ENDROOT
BRANCH   5   7
ATOM      7  N   UNL     1       2.170   7.164  20.080  0.00  0.00    +0.000 N 
ATOM      8  C   UNL     1       1.607   8.367  19.679  0.00  0.00    +0.000 C 
ATOM      9  O   UNL     1       1.752   8.860  18.557  0.00  0.00    +0.000 OA
ATOM     10  H   UNL     1       2.024   6.906  21.058  0.00  0.00    +0.000 HD
BRANCH   8  11
ATOM     11  C   UNL     1       0.702   9.107  20.619  0.00  0.00    +0.000 A 
ATOM     12  C   UNL     1       0.832   8.779  21.991  0.00  0.00    +0.000 A 
ATOM     13  C   UNL     1       0.185   9.496  22.982  0.00  0.00    +0.000 A 
ATOM     14  C   UNL     1      -0.466  10.678  22.638  0.00  0.00    +0.000 A 
ATOM     15  C   UNL     1      -0.610  10.988  21.265  0.00  0.00    +0.000 A 
ATOM     16  C   UNL     1      -1.271  12.159  20.919  0.00  0.00    +0.000 A 
ATOM     17  C   UNL     1      -2.081  12.118  19.818  0.00  0.00    +0.000 A 
ATOM     18  C   UNL     1      -1.750  11.159  18.872  0.00  0.00    +0.000 A 
ATOM     19  N   UNL     1      -0.730  10.289  19.005  0.00  0.00    +0.000 NA
ATOM     20  C   UNL     1      -0.192  10.133  20.248  0.00  0.00    +0.000 A 
ENDBRANCH   8  11
ENDBRANCH   5   7
BRANCH   1  21
ATOM     21  S   UNL     1       5.802   6.614  16.375  0.00  0.00    +0.000 S 
ATOM     22  O   UNL     1       6.552   7.572  17.162  0.00  0.00    +0.000 OA
ATOM     23  O   UNL     1       5.119   7.039  15.169  0.00  0.00    +0.000 OA
BRANCH  21  25
ATOM     24  C   UNL     1       7.424   4.531  17.076  0.00  0.00    +0.000 C 
ATOM     25  N   UNL     1       6.848   5.340  15.993  0.00  0.00    +0.000 N 
BRANCH  25  26
ATOM     26  C   UNL     1       6.838   4.782  14.681  0.00  0.00    +0.000 A 
ATOM     27  C   UNL     1       5.867   3.834  14.353  0.00  0.00    +0.000 A 
ATOM     28  C   UNL     1       5.742   3.393  13.035  0.00  0.00    +0.000 A 
ATOM     29  C   UNL     1       6.590   3.897  12.048  0.00  0.00    +0.000 A 
ATOM     30  C   UNL     1       7.583   4.816  12.383  0.00  0.00    +0.000 A 
ATOM     31  C   UNL     1       7.714   5.255  13.701  0.00  0.00    +0.000 A 
ENDBRANCH  25  26
ENDBRANCH  21  25
ENDBRANCH   1  21
TORSDOF 5
ENDMDL
MODEL 4
REMARK VINA RESULT:      -8.5      2.090      3.475
REMARK  Name = 
REMARK  6 active torsions:
REMARK  status: ('A' for Active; 'I' for Inactive)
REMARK    1  A    between atoms: C_1  and  N_2
REMARK    2  A    between atoms: N_2  and  C_3
REMARK    3  A    between atoms: N_2  and  S_9
REMARK    4  A    between atoms: S_9  and  C_12
REMARK    5  A    between atoms: C_16  and  N_17
REMARK    6  A    between atoms: C_18  and  C_20
REMARK                            x       y       z     vdW  Elec       q    Type
REMARK                         _______ _______ _______ _____ _____    ______ ____
ROOT
ATOM      1  C   UNL     1       6.312   6.759  17.459  0.00  0.00    +0.000 A 
ATOM      2  C   UNL     1       6.929   5.798  18.262  0.00  0.00    +0.000 A 
ATOM      3  C   UNL     1       8.053   6.158  19.001  0.00  0.00    +0.000 A 
ATOM      4  C   UNL     1       8.577   7.453  18.912  0.00  0.00    +0.000 A 
ATOM      5  C   UNL     1       7.995   8.434  18.082  0.00  0.00    +0.000 A 
ATOM      6  C   UNL     1       6.839   8.072  17.377  0.00  0.00    +0.000 A 
ENDROOT
BRANCH   5   7
ATOM      7  N   UNL     1       8.554   9.736  17.891  0.00  0.00    +0.000 N 
ATOM      8  C   UNL     1       9.178  10.517  18.851  0.00  0.00    +0.000 C 
ATOM      9  O   UNL     1       9.265  10.211  20.044  0.00  0.00    +0.000 OA
ATOM     10  H   UNL     1       8.496  10.140  16.953  0.00  0.00    +0.000 HD
BRANCH   8  11
ATOM     11  C   UNL     1       9.864  11.786  18.439  0.00  0.00    +0.000 A 
ATOM     12  C   UNL     1      11.031  11.631  17.652  0.00  0.00    +0.000 A 
ATOM     13  C   UNL     1      11.668  12.710  17.063  0.00  0.00    +0.000 A 
ATOM     14  C   UNL     1      11.047  13.955  17.096  0.00  0.00    +0.000 A 
ATOM     15  C   UNL     1       9.892  14.107  17.900  0.00  0.00    +0.000 A 
ATOM     16  C   UNL     1       9.278  15.351  17.946  0.00  0.00    +0.000 A 
ATOM     17  C   UNL     1       8.772  15.756  19.150  0.00  0.00    +0.000 A 
ATOM     18  C   UNL     1       8.417  14.733  20.019  0.00  0.00    +0.000 A 
ATOM     19  N   UNL     1       8.573  13.424  19.745  0.00  0.00    +0.000 NA
ATOM     20  C   UNL     1       9.396  13.088  18.711  0.00  0.00    +0.000 A 
ENDBRANCH   8  11
ENDBRANCH   5   7
BRANCH   1  21
ATOM     21  S   UNL     1       5.036   6.219  16.315  0.00  0.00    +0.000 S 
ATOM     22  O   UNL     1       5.148   7.066  15.144  0.00  0.00    +0.000 OA
ATOM     23  O   UNL     1       3.793   6.167  17.059  0.00  0.00    +0.000 OA
BRANCH  21  25
ATOM     24  C   UNL     1       4.818   3.503  16.504  0.00  0.00    +0.000 C 
ATOM     25  N   UNL     1       5.463   4.650  15.850  0.00  0.00    +0.000 N 
BRANCH  25  26
ATOM     26  C   UNL     1       6.087   4.428  14.586  0.00  0.00    +0.000 A 
ATOM     27  C   UNL     1       5.433   3.643  13.635  0.00  0.00    +0.000 A 
ATOM     28  C   UNL     1       5.949   3.542  12.342  0.00  0.00    +0.000 A 
ATOM     29  C   UNL     1       7.119   4.223  12.004  0.00  0.00    +0.000 A 
ATOM     30  C   UNL     1       7.790   4.978  12.965  0.00  0.00    +0.000 A 
ATOM     31  C   UNL     1       7.279   5.077  14.260  0.00  0.00    +0.000 A 
ENDBRANCH  25  26
ENDBRANCH  21  25
ENDBRANCH   1  21
TORSDOF 5
ENDMDL
MODEL 5
REMARK VINA RESULT:      -8.5      6.410      9.789
REMARK  Name = 
REMARK  6 active torsions:
REMARK  status: ('A' for Active; 'I' for Inactive)
REMARK    1  A    between atoms: C_1  and  N_2
REMARK    2  A    between atoms: N_2  and  C_3
REMARK    3  A    between atoms: N_2  and  S_9
REMARK    4  A    between atoms: S_9  and  C_12
REMARK    5  A    between atoms: C_16  and  N_17
REMARK    6  A    between atoms: C_18  and  C_20
REMARK                            x       y       z     vdW  Elec       q    Type
REMARK                         _______ _______ _______ _____ _____    ______ ____
ROOT
ATOM      1  C   UNL     1      -0.407  11.315  20.175  0.00  0.00    +0.000 A 
ATOM      2  C   UNL     1      -0.698  11.010  21.506  0.00  0.00    +0.000 A 
ATOM      3  C   UNL     1      -0.102   9.893  22.087  0.00  0.00    +0.000 A 
ATOM      4  C   UNL     1       0.745   9.068  21.338  0.00  0.00    +0.000 A 
ATOM      5  C   UNL     1       1.028   9.333  19.981  0.00  0.00    +0.000 A 
ATOM      6  C   UNL     1       0.457  10.483  19.421  0.00  0.00    +0.000 A 
ENDROOT
BRANCH   5   7
ATOM      7  N   UNL     1       1.809   8.465  19.157  0.00  0.00    +0.000 N 
ATOM      8  C   UNL     1       2.295   7.213  19.502  0.00  0.00    +0.000 C 
ATOM      9  O   UNL     1       2.175   6.706  20.621  0.00  0.00    +0.000 OA
ATOM     10  H   UNL     1       2.037   8.789  18.215  0.00  0.00    +0.000 HD
BRANCH   8  11
ATOM     11  C   UNL     1       2.950   6.362  18.454  0.00  0.00    +0.000 A 
ATOM     12  C   UNL     1       3.900   7.015  17.631  0.00  0.00    +0.000 A 
ATOM     13  C   UNL     1       4.699   6.321  16.740  0.00  0.00    +0.000 A 
ATOM     14  C   UNL     1       4.698   4.930  16.780  0.00  0.00    +0.000 A 
ATOM     15  C   UNL     1       3.733   4.284  17.589  0.00  0.00    +0.000 A 
ATOM     16  C   UNL     1       3.720   2.896  17.621  0.00  0.00    +0.000 A 
ATOM     17  C   UNL     1       2.499   2.282  17.672  0.00  0.00    +0.000 A 
ATOM     18  C   UNL     1       1.478   3.035  18.234  0.00  0.00    +0.000 A 
ATOM     19  N   UNL     1       1.631   4.297  18.682  0.00  0.00    +0.000 NA
ATOM     20  C   UNL     1       2.746   4.976  18.287  0.00  0.00    +0.000 A 
ENDBRANCH   8  11
ENDBRANCH   5   7
BRANCH   1  21
ATOM     21  S   UNL     1      -1.378  12.590  19.364  0.00  0.00    +0.000 S 
ATOM     22  O   UNL     1      -0.667  12.939  18.150  0.00  0.00    +0.000 OA
ATOM     23  O   UNL     1      -1.661  13.605  20.359  0.00  0.00    +0.000 OA
BRANCH  21  25
ATOM     24  C   UNL     1      -4.070  12.198  19.615  0.00  0.00    +0.000 C 
ATOM     25  N   UNL     1      -2.830  11.850  18.908  0.00  0.00    +0.000 N 
BRANCH  25  26
ATOM     26  C   UNL     1      -2.947  11.250  17.620  0.00  0.00    +0.000 A 
ATOM     27  C   UNL     1      -2.111  10.180  17.291  0.00  0.00    +0.000 A 
ATOM     28  C   UNL     1      -2.314   9.480  16.101  0.00  0.00    +0.000 A 
ATOM     29  C   UNL     1      -3.347   9.852  15.241  0.00  0.00    +0.000 A 
ATOM     30  C   UNL     1      -4.158  10.942  15.553  0.00  0.00    +0.000 A 
ATOM     31  C   UNL     1      -3.955  11.647  16.740  0.00  0.00    +0.000 A 
ENDBRANCH  25  26
ENDBRANCH  21  25
ENDBRANCH   1  21
TORSDOF 5
ENDMDL
MODEL 6
REMARK VINA RESULT:      -8.5      4.721      7.982
REMARK  Name = 
REMARK  6 active torsions:
REMARK  status: ('A' for Active; 'I' for Inactive)
REMARK    1  A    between atoms: C_1  and  N_2
REMARK    2  A    between atoms: N_2  and  C_3
REMARK    3  A    between atoms: N_2  and  S_9
REMARK    4  A    between atoms: S_9  and  C_12
REMARK    5  A    between atoms: C_16  and  N_17
REMARK    6  A    between atoms: C_18  and  C_20
REMARK                            x       y       z     vdW  Elec       q    Type
REMARK                         _______ _______ _______ _____ _____    ______ ____
ROOT
ATOM      1  C   UNL     1       4.511   4.865  19.084  0.00  0.00    +0.000 A 
ATOM      2  C   UNL     1       4.004   3.564  19.051  0.00  0.00    +0.000 A 
ATOM      3  C   UNL     1       2.712   3.332  19.516  0.00  0.00    +0.000 A 
ATOM      4  C   UNL     1       1.948   4.379  20.043  0.00  0.00    +0.000 A 
ATOM      5  C   UNL     1       2.447   5.696  20.121  0.00  0.00    +0.000 A 
ATOM      6  C   UNL     1       3.731   5.925  19.610  0.00  0.00    +0.000 A 
ENDROOT
BRANCH   5   7
ATOM      7  N   UNL     1       1.735   6.772  20.737  0.00  0.00    +0.000 N 
ATOM      8  C   UNL     1       1.507   8.029  20.198  0.00  0.00    +0.000 C 
ATOM      9  O   UNL     1       1.968   8.415  19.120  0.00  0.00    +0.000 OA
ATOM     10  H   UNL     1       1.348   6.607  21.669  0.00  0.00    +0.000 HD
BRANCH   8  11
ATOM     11  C   UNL     1       0.590   8.981  20.909  0.00  0.00    +0.000 A 
ATOM     12  C   UNL     1       0.546   8.861  22.319  0.00  0.00    +0.000 A 
ATOM     13  C   UNL     1      -0.123   9.777  23.113  0.00  0.00    +0.000 A 
ATOM     14  C   UNL     1      -0.613  10.941  22.527  0.00  0.00    +0.000 A 
ATOM     15  C   UNL     1      -0.583  11.044  21.116  0.00  0.00    +0.000 A 
ATOM     16  C   UNL     1      -1.083  12.198  20.528  0.00  0.00    +0.000 A 
ATOM     17  C   UNL     1      -1.778  12.054  19.358  0.00  0.00    +0.000 A 
ATOM     18  C   UNL     1      -1.451  10.934  18.607  0.00  0.00    +0.000 A 
ATOM     19  N   UNL     1      -0.543  10.013  18.984  0.00  0.00    +0.000 NA
ATOM     20  C   UNL     1      -0.153  10.008  20.291  0.00  0.00    +0.000 A 
ENDBRANCH   8  11
ENDBRANCH   5   7
BRANCH   1  21
ATOM     21  S   UNL     1       6.256   5.107  18.734  0.00  0.00    +0.000 S 
ATOM     22  O   UNL     1       6.787   3.808  18.372  0.00  0.00    +0.000 OA
ATOM     23  O   UNL     1       6.817   5.835  19.856  0.00  0.00    +0.000 OA
BRANCH  21  25
ATOM     24  C   UNL     1       6.912   7.428  17.453  0.00  0.00    +0.000 C 
ATOM     25  N   UNL     1       6.322   6.086  17.356  0.00  0.00    +0.000 N 
BRANCH  25  26
ATOM     26  C   UNL     1       6.222   5.497  16.061  0.00  0.00    +0.000 A 
ATOM     27  C   UNL     1       7.365   5.409  15.265  0.00  0.00    +0.000 A 
ATOM     28  C   UNL     1       7.324   4.699  14.064  0.00  0.00    +0.000 A 
ATOM     29  C   UNL     1       6.139   4.082  13.660  0.00  0.00    +0.000 A 
ATOM     30  C   UNL     1       4.989   4.201  14.439  0.00  0.00    +0.000 A 
ATOM     31  C   UNL     1       5.026   4.914  15.638  0.00  0.00    +0.000 A 
ENDBRANCH  25  26
ENDBRANCH  21  25
ENDBRANCH   1  21
TORSDOF 5
ENDMDL
MODEL 7
REMARK VINA RESULT:      -8.4      6.211      9.203
REMARK  Name = 
REMARK  6 active torsions:
REMARK  status: ('A' for Active; 'I' for Inactive)
REMARK    1  A    between atoms: C_1  and  N_2
REMARK    2  A    between atoms: N_2  and  C_3
REMARK    3  A    between atoms: N_2  and  S_9
REMARK    4  A    between atoms: S_9  and  C_12
REMARK    5  A    between atoms: C_16  and  N_17
REMARK    6  A    between atoms: C_18  and  C_20
REMARK                            x       y       z     vdW  Elec       q    Type
REMARK                         _______ _______ _______ _____ _____    ______ ____
ROOT
ATOM      1  C   UNL     1       0.374  10.460  20.520  0.00  0.00    +0.000 A 
ATOM      2  C   UNL     1      -0.244  10.147  21.732  0.00  0.00    +0.000 A 
ATOM      3  C   UNL     1       0.009   8.909  22.318  0.00  0.00    +0.000 A 
ATOM      4  C   UNL     1       0.841   7.980  21.683  0.00  0.00    +0.000 A 
ATOM      5  C   UNL     1       1.451   8.256  20.442  0.00  0.00    +0.000 A 
ATOM      6  C   UNL     1       1.223   9.520  19.884  0.00  0.00    +0.000 A 
ENDROOT
BRANCH   5   7
ATOM      7  N   UNL     1       2.229   7.300  19.718  0.00  0.00    +0.000 N 
ATOM      8  C   UNL     1       2.223   5.925  19.895  0.00  0.00    +0.000 C 
ATOM      9  O   UNL     1       1.585   5.341  20.776  0.00  0.00    +0.000 OA
ATOM     10  H   UNL     1       2.854   7.655  18.991  0.00  0.00    +0.000 HD
BRANCH   8  11
ATOM     11  C   UNL     1       2.972   5.053  18.930  0.00  0.00    +0.000 A 
ATOM     12  C   UNL     1       2.187   4.142  18.182  0.00  0.00    +0.000 A 
ATOM     13  C   UNL     1       2.717   3.398  17.141  0.00  0.00    +0.000 A 
ATOM     14  C   UNL     1       4.007   3.683  16.703  0.00  0.00    +0.000 A 
ATOM     15  C   UNL     1       4.792   4.579  17.467  0.00  0.00    +0.000 A 
ATOM     16  C   UNL     1       6.084   4.855  17.039  0.00  0.00    +0.000 A 
ATOM     17  C   UNL     1       7.045   4.995  18.002  0.00  0.00    +0.000 A 
ATOM     18  C   UNL     1       6.585   5.401  19.247  0.00  0.00    +0.000 A 
ATOM     19  N   UNL     1       5.288   5.622  19.535  0.00  0.00    +0.000 NA
ATOM     20  C   UNL     1       4.356   5.130  18.669  0.00  0.00    +0.000 A 
ENDBRANCH   8  11
ENDBRANCH   5   7
BRANCH   1  21
ATOM     21  S   UNL     1      -0.163  11.936  19.648  0.00  0.00    +0.000 S 
ATOM     22  O   UNL     1       0.403  11.856  18.316  0.00  0.00    +0.000 OA
ATOM     23  O   UNL     1       0.142  13.068  20.501  0.00  0.00    +0.000 OA
BRANCH  21  25
ATOM     24  C   UNL     1      -2.712  12.673  20.297  0.00  0.00    +0.000 C 
ATOM     25  N   UNL     1      -1.843  11.801  19.496  0.00  0.00    +0.000 N 
BRANCH  25  26
ATOM     26  C   UNL     1      -2.404  11.191  18.336  0.00  0.00    +0.000 A 
ATOM     27  C   UNL     1      -3.595  11.696  17.811  0.00  0.00    +0.000 A 
ATOM     28  C   UNL     1      -4.077  11.217  16.592  0.00  0.00    +0.000 A 
ATOM     29  C   UNL     1      -3.370  10.231  15.902  0.00  0.00    +0.000 A 
ATOM     30  C   UNL     1      -2.200   9.702  16.445  0.00  0.00    +0.000 A 
ATOM     31  C   UNL     1      -1.718  10.176  17.666  0.00  0.00    +0.000 A 
ENDBRANCH  25  26
ENDBRANCH  21  25
ENDBRANCH   1  21
TORSDOF 5
ENDMDL
MODEL 8
REMARK VINA RESULT:      -8.4      6.487      9.817
REMARK  Name = 
REMARK  6 active torsions:
REMARK  status: ('A' for Active; 'I' for Inactive)
REMARK    1  A    between atoms: C_1  and  N_2
REMARK    2  A    between atoms: N_2  and  C_3
REMARK    3  A    between atoms: N_2  and  S_9
REMARK    4  A    between atoms: S_9  and  C_12
REMARK    5  A    between atoms: C_16  and  N_17
REMARK    6  A    between atoms: C_18  and  C_20
REMARK                            x       y       z     vdW  Elec       q    Type
REMARK                         _______ _______ _______ _____ _____    ______ ____
ROOT
ATOM      1  C   UNL     1      -0.541  11.290  21.483  0.00  0.00    +0.000 A 
ATOM      2  C   UNL     1      -0.805  10.787  22.758  0.00  0.00    +0.000 A 
ATOM      3  C   UNL     1      -0.204   9.593  23.150  0.00  0.00    +0.000 A 
ATOM      4  C   UNL     1       0.624   8.891  22.266  0.00  0.00    +0.000 A 
ATOM      5  C   UNL     1       0.880   9.359  20.960  0.00  0.00    +0.000 A 
ATOM      6  C   UNL     1       0.304  10.582  20.593  0.00  0.00    +0.000 A 
ENDROOT
BRANCH   5   7
ATOM      7  N   UNL     1       1.641   8.625  19.997  0.00  0.00    +0.000 N 
ATOM      8  C   UNL     1       1.932   7.270  20.032  0.00  0.00    +0.000 C 
ATOM      9  O   UNL     1       1.628   6.519  20.963  0.00  0.00    +0.000 OA
ATOM     10  H   UNL     1       2.010   9.142  19.196  0.00  0.00    +0.000 HD
BRANCH   8  11
ATOM     11  C   UNL     1       2.595   6.627  18.849  0.00  0.00    +0.000 A 
ATOM     12  C   UNL     1       3.413   7.475  18.062  0.00  0.00    +0.000 A 
ATOM     13  C   UNL     1       4.214   6.984  17.046  0.00  0.00    +0.000 A 
ATOM     14  C   UNL     1       4.356   5.606  16.909  0.00  0.00    +0.000 A 
ATOM     15  C   UNL     1       3.522   4.767  17.684  0.00  0.00    +0.000 A 
ATOM     16  C   UNL     1       3.652   3.392  17.541  0.00  0.00    +0.000 A 
ATOM     17  C   UNL     1       2.506   2.647  17.583  0.00  0.00    +0.000 A 
ATOM     18  C   UNL     1       1.456   3.211  18.294  0.00  0.00    +0.000 A 
ATOM     19  N   UNL     1       1.511   4.418  18.888  0.00  0.00    +0.000 NA
ATOM     20  C   UNL     1       2.521   5.258  18.520  0.00  0.00    +0.000 A 
ENDBRANCH   8  11
ENDBRANCH   5   7
BRANCH   1  21
ATOM     21  S   UNL     1      -1.522  12.676  20.896  0.00  0.00    +0.000 S 
ATOM     22  O   UNL     1      -0.849  13.878  21.350  0.00  0.00    +0.000 OA
ATOM     23  O   UNL     1      -2.894  12.419  21.285  0.00  0.00    +0.000 OA
BRANCH  21  25
ATOM     24  C   UNL     1      -0.298  13.325  18.542  0.00  0.00    +0.000 C 
ATOM     25  N   UNL     1      -1.414  12.640  19.208  0.00  0.00    +0.000 N 
BRANCH  25  26
ATOM     26  C   UNL     1      -2.109  11.634  18.474  0.00  0.00    +0.000 A 
ATOM     27  C   UNL     1      -3.491  11.745  18.312  0.00  0.00    +0.000 A 
ATOM     28  C   UNL     1      -4.166  10.860  17.469  0.00  0.00    +0.000 A 
ATOM     29  C   UNL     1      -3.459   9.865  16.793  0.00  0.00    +0.000 A 
ATOM     30  C   UNL     1      -2.084   9.733  16.984  0.00  0.00    +0.000 A 
ATOM     31  C   UNL     1      -1.407  10.613  17.830  0.00  0.00    +0.000 A 
ENDBRANCH  25  26
ENDBRANCH  21  25
ENDBRANCH   1  21
TORSDOF 5
ENDMDL
MODEL 9
REMARK VINA RESULT:      -8.3      5.806      9.640
REMARK  Name = 
REMARK  6 active torsions:
REMARK  status: ('A' for Active; 'I' for Inactive)
REMARK    1  A    between atoms: C_1  and  N_2
REMARK    2  A    between atoms: N_2  and  C_3
REMARK    3  A    between atoms: N_2  and  S_9
REMARK    4  A    between atoms: S_9  and  C_12
REMARK    5  A    between atoms: C_16  and  N_17
REMARK    6  A    between atoms: C_18  and  C_20
REMARK                            x       y       z     vdW  Elec       q    Type
REMARK                         _______ _______ _______ _____ _____    ______ ____
ROOT
ATOM      1  C   UNL     1       0.374  11.971  18.875  0.00  0.00    +0.000 A 
ATOM      2  C   UNL     1      -0.987  11.821  18.602  0.00  0.00    +0.000 A 
ATOM      3  C   UNL     1      -1.440  10.616  18.072  0.00  0.00    +0.000 A 
ATOM      4  C   UNL     1      -0.539   9.584  17.784  0.00  0.00    +0.000 A 
ATOM      5  C   UNL     1       0.845   9.721  18.016  0.00  0.00    +0.000 A 
ATOM      6  C   UNL     1       1.283  10.922  18.590  0.00  0.00    +0.000 A 
ENDROOT
BRANCH   5   7
ATOM      7  N   UNL     1       1.806   8.729  17.648  0.00  0.00    +0.000 N 
ATOM      8  C   UNL     1       2.343   7.751  18.471  0.00  0.00    +0.000 C 
ATOM      9  O   UNL     1       2.110   7.657  19.680  0.00  0.00    +0.000 OA
ATOM     10  H   UNL     1       2.136   8.729  16.680  0.00  0.00    +0.000 HD
BRANCH   8  11
ATOM     11  C   UNL     1       3.210   6.680  17.877  0.00  0.00    +0.000 A 
ATOM     12  C   UNL     1       4.399   7.124  17.248  0.00  0.00    +0.000 A 
ATOM     13  C   UNL     1       5.370   6.242  16.807  0.00  0.00    +0.000 A 
ATOM     14  C   UNL     1       5.259   4.897  17.149  0.00  0.00    +0.000 A 
ATOM     15  C   UNL     1       4.060   4.457  17.758  0.00  0.00    +0.000 A 
ATOM     16  C   UNL     1       3.941   3.113  18.087  0.00  0.00    +0.000 A 
ATOM     17  C   UNL     1       2.716   2.531  17.908  0.00  0.00    +0.000 A 
ATOM     18  C   UNL     1       1.633   3.396  17.965  0.00  0.00    +0.000 A 
ATOM     19  N   UNL     1       1.739   4.726  18.150  0.00  0.00    +0.000 NA
ATOM     20  C   UNL     1       2.965   5.294  17.964  0.00  0.00    +0.000 A 
ENDBRANCH   8  11
ENDBRANCH   5   7
BRANCH   1  21
ATOM     21  S   UNL     1       0.980  13.607  19.303  0.00  0.00    +0.000 S 
ATOM     22  O   UNL     1      -0.043  14.547  18.887  0.00  0.00    +0.000 OA
ATOM     23  O   UNL     1       2.325  13.713  18.773  0.00  0.00    +0.000 OA
BRANCH  21  25
ATOM     24  C   UNL     1       1.950  14.606  21.653  0.00  0.00    +0.000 C 
ATOM     25  N   UNL     1       1.052  13.649  20.993  0.00  0.00    +0.000 N 
BRANCH  25  26
ATOM     26  C   UNL     1      -0.017  13.102  21.762  0.00  0.00    +0.000 A 
ATOM     27  C   UNL     1      -1.094  13.921  22.108  0.00  0.00    +0.000 A 
ATOM     28  C   UNL     1      -2.219  13.370  22.723  0.00  0.00    +0.000 A 
ATOM     29  C   UNL     1      -2.263  12.002  22.996  0.00  0.00    +0.000 A 
ATOM     30  C   UNL     1      -1.173  11.192  22.683  0.00  0.00    +0.000 A 
ATOM     31  C   UNL     1      -0.045  11.741  22.072  0.00  0.00    +0.000 A 
ENDBRANCH  25  26
ENDBRANCH  21  25
ENDBRANCH   1  21
TORSDOF 5
ENDMDL
