MODEL 1
REMARK VINA RESULT:      -8.8      0.000      0.000
REMARK  Name = 
REMARK  5 active torsions:
REMARK  status: ('A' for Active; 'I' for Inactive)
REMARK    1  A    between atoms: N_2  and  C_4
REMARK    2  A    between atoms: C_8  and  C_9
REMARK    3  A    between atoms: C_12  and  C_13
REMARK    4  A    between atoms: C_13  and  N_14
REMARK    5  A    between atoms: C_15  and  C_16
REMARK                            x       y       z     vdW  Elec       q    Type
REMARK                         _______ _______ _______ _____ _____    ______ ____
ROOT
ATOM      1  C   UNL     1       6.744   4.858  15.794  0.00  0.00    +0.000 A 
ATOM      2  N   UNL     1       7.726   4.634  16.681  0.00  0.00    +0.000 NA
ATOM      3  O   UNL     1       7.143   4.913  17.910  0.00  0.00    +0.000 OA
ATOM      4  C   UNL     1       5.855   5.280  17.660  0.00  0.00    +0.000 A 
ATOM      5  N   UNL     1       5.560   5.272  16.378  0.00  0.00    +0.000 NA
ENDROOT
BRANCH   1  10
ATOM      6  C   UNL     1       6.208   3.533  12.290  0.00  0.00    +0.000 A 
ATOM      7  C   UNL     1       7.143   4.281  11.561  0.00  0.00    +0.000 A 
ATOM      8  C   UNL     1       7.949   5.199  12.225  0.00  0.00    +0.000 A 
ATOM      9  C   UNL     1       7.819   5.385  13.610  0.00  0.00    +0.000 A 
ATOM     10  C   UNL     1       6.884   4.641  14.352  0.00  0.00    +0.000 A 
ATOM     11  C   UNL     1       6.080   3.704  13.675  0.00  0.00    +0.000 A 
BRANCH   6  13
ATOM     12  O   UNL     1       4.200   2.924  11.297  0.00  0.00    +0.000 OA
ATOM     13  N   UNL     1       5.352   2.570  11.591  0.00  0.00    +0.000 N 
ATOM     14  O   UNL     1       5.820   1.453  11.347  0.00  0.00    +0.000 OA
ENDBRANCH   6  13
ENDBRANCH   1  10
BRANCH   4  15
ATOM     15  C   UNL     1       4.999   5.560  18.843  0.00  0.00    +0.000 C 
BRANCH  15  16
ATOM     16  N   UNL     1       3.617   5.174  18.589  0.00  0.00    +0.000 N 
ATOM     17  C   UNL     1       2.525   6.011  18.418  0.00  0.00    +0.000 A 
ATOM     18  N   UNL     1       1.406   5.300  18.431  0.00  0.00    +0.000 NA
ATOM     19  C   UNL     1       1.771   4.005  18.655  0.00  0.00    +0.000 A 
ATOM     20  C   UNL     1       0.960   2.892  18.911  0.00  0.00    +0.000 A 
ATOM     21  C   UNL     1       1.570   1.655  19.136  0.00  0.00    +0.000 A 
ATOM     22  C   UNL     1       2.955   1.519  19.034  0.00  0.00    +0.000 A 
ATOM     23  C   UNL     1       3.781   2.622  18.775  0.00  0.00    +0.000 A 
ATOM     24  C   UNL     1       3.153   3.870  18.648  0.00  0.00    +0.000 A 
BRANCH  17  25
ATOM     25  C   UNL     1       2.578   7.506  18.327  0.00  0.00    +0.000 C 
ATOM     26  F   UNL     1       3.726   7.973  17.772  0.00  0.00    +0.000 F 
ATOM     27  F   UNL     1       1.565   8.008  17.572  0.00  0.00    +0.000 F 
ATOM     28  F   UNL     1       2.483   8.086  19.552  0.00  0.00    +0.000 F 
ENDBRANCH  17  25
ENDBRANCH  15  16
ENDBRANCH   4  15
TORSDOF 5
ENDMDL
MODEL 2
REMARK VINA RESULT:      -8.6      4.792      8.908
REMARK  Name = 
REMARK  5 active torsions:
REMARK  status: ('A' for Active; 'I' for Inactive)
REMARK    1  A    between atoms: N_2  and  C_4
REMARK    2  A    between atoms: C_8  and  C_9
REMARK    3  A    between atoms: C_12  and  C_13
REMARK    4  A    between atoms: C_13  and  N_14
REMARK    5  A    between atoms: C_15  and  C_16
REMARK                            x       y       z     vdW  Elec       q    Type
REMARK                         _______ _______ _______ _____ _____    ______ ____
ROOT
ATOM      1  C   UNL     1       1.739   8.476  19.394  0.00  0.00    +0.000 A 
ATOM      2  N   UNL     1       2.118   9.072  18.252  0.00  0.00    +0.000 NA
ATOM      3  O   UNL     1       2.703   8.052  17.514  0.00  0.00    +0.000 OA
ATOM      4  C   UNL     1       2.625   6.923  18.275  0.00  0.00    +0.000 A 
ATOM      5  N   UNL     1       2.050   7.129  19.440  0.00  0.00    +0.000 NA
ENDROOT
BRANCH   1  10
ATOM      6  C   UNL     1       0.183  11.200  21.510  0.00  0.00    +0.000 A 
ATOM      7  C   UNL     1      -0.416  10.452  22.534  0.00  0.00    +0.000 A 
ATOM      8  C   UNL     1      -0.292   9.068  22.529  0.00  0.00    +0.000 A 
ATOM      9  C   UNL     1       0.416   8.422  21.504  0.00  0.00    +0.000 A 
ATOM     10  C   UNL     1       1.020   9.162  20.470  0.00  0.00    +0.000 A 
ATOM     11  C   UNL     1       0.901  10.565  20.488  0.00  0.00    +0.000 A 
BRANCH   6  13
ATOM     12  O   UNL     1       1.070  13.338  21.676  0.00  0.00    +0.000 OA
ATOM     13  N   UNL     1       0.046  12.659  21.509  0.00  0.00    +0.000 N 
ATOM     14  O   UNL     1      -1.085  13.132  21.357  0.00  0.00    +0.000 OA
ENDBRANCH   6  13
ENDBRANCH   1  10
BRANCH   4  15
ATOM     15  C   UNL     1       3.127   5.667  17.657  0.00  0.00    +0.000 C 
BRANCH  15  16
ATOM     16  N   UNL     1       4.376   5.245  18.278  0.00  0.00    +0.000 N 
ATOM     17  C   UNL     1       4.544   4.296  19.275  0.00  0.00    +0.000 A 
ATOM     18  N   UNL     1       5.785   4.345  19.738  0.00  0.00    +0.000 NA
ATOM     19  C   UNL     1       6.410   5.357  19.070  0.00  0.00    +0.000 A 
ATOM     20  C   UNL     1       7.675   5.915  19.297  0.00  0.00    +0.000 A 
ATOM     21  C   UNL     1       8.095   6.973  18.488  0.00  0.00    +0.000 A 
ATOM     22  C   UNL     1       7.302   7.415  17.429  0.00  0.00    +0.000 A 
ATOM     23  C   UNL     1       6.035   6.865  17.186  0.00  0.00    +0.000 A 
ATOM     24  C   UNL     1       5.595   5.870  18.070  0.00  0.00    +0.000 A 
BRANCH  17  25
ATOM     25  C   UNL     1       3.469   3.408  19.825  0.00  0.00    +0.000 C 
ATOM     26  F   UNL     1       2.497   4.085  20.491  0.00  0.00    +0.000 F 
ATOM     27  F   UNL     1       2.836   2.709  18.847  0.00  0.00    +0.000 F 
ATOM     28  F   UNL     1       3.969   2.499  20.702  0.00  0.00    +0.000 F 
ENDBRANCH  17  25
ENDBRANCH  15  16
ENDBRANCH   4  15
TORSDOF 5
ENDMDL
MODEL 3
REMARK VINA RESULT:      -8.6      4.830      8.820
REMARK  Name = 
REMARK  5 active torsions:
REMARK  status: ('A' for Active; 'I' for Inactive)
REMARK    1  A    between atoms: N_2  and  C_4
REMARK    2  A    between atoms: C_8  and  C_9
REMARK    3  A    between atoms: C_12  and  C_13
REMARK    4  A    between atoms: C_13  and  N_14
REMARK    5  A    between atoms: C_15  and  C_16
REMARK                            x       y       z     vdW  Elec       q    Type
REMARK                         _______ _______ _______ _____ _____    ______ ____
ROOT
ATOM      1  C   UNL     1       1.759   8.391  19.376  0.00  0.00    +0.000 A 
ATOM      2  N   UNL     1       2.091   8.977  18.214  0.00  0.00    +0.000 NA
ATOM      3  O   UNL     1       2.688   7.961  17.480  0.00  0.00    +0.000 OA
ATOM      4  C   UNL     1       2.665   6.845  18.263  0.00  0.00    +0.000 A 
ATOM      5  N   UNL     1       2.114   7.055  19.438  0.00  0.00    +0.000 NA
ENDROOT
BRANCH   1  10
ATOM      6  C   UNL     1      -0.522  10.768  21.239  0.00  0.00    +0.000 A 
ATOM      7  C   UNL     1      -0.352  10.339  22.563  0.00  0.00    +0.000 A 
ATOM      8  C   UNL     1       0.518   9.289  22.834  0.00  0.00    +0.000 A 
ATOM      9  C   UNL     1       1.210   8.654  21.791  0.00  0.00    +0.000 A 
ATOM     10  C   UNL     1       1.047   9.074  20.458  0.00  0.00    +0.000 A 
ATOM     11  C   UNL     1       0.174  10.147  20.193  0.00  0.00    +0.000 A 
BRANCH   6  13
ATOM     12  O   UNL     1      -1.923  11.941  19.808  0.00  0.00    +0.000 OA
ATOM     13  N   UNL     1      -1.444  11.869  20.950  0.00  0.00    +0.000 N 
ATOM     14  O   UNL     1      -1.681  12.676  21.856  0.00  0.00    +0.000 OA
ENDBRANCH   6  13
ENDBRANCH   1  10
BRANCH   4  15
ATOM     15  C   UNL     1       3.191   5.594  17.655  0.00  0.00    +0.000 C 
BRANCH  15  16
ATOM     16  N   UNL     1       4.449   5.203  18.276  0.00  0.00    +0.000 N 
ATOM     17  C   UNL     1       4.640   4.261  19.276  0.00  0.00    +0.000 A 
ATOM     18  N   UNL     1       5.880   4.339  19.738  0.00  0.00    +0.000 NA
ATOM     19  C   UNL     1       6.481   5.364  19.066  0.00  0.00    +0.000 A 
ATOM     20  C   UNL     1       7.733   5.951  19.290  0.00  0.00    +0.000 A 
ATOM     21  C   UNL     1       8.128   7.017  18.478  0.00  0.00    +0.000 A 
ATOM     22  C   UNL     1       7.324   7.437  17.419  0.00  0.00    +0.000 A 
ATOM     23  C   UNL     1       6.070   6.857  17.178  0.00  0.00    +0.000 A 
ATOM     24  C   UNL     1       5.653   5.855  18.066  0.00  0.00    +0.000 A 
BRANCH  17  25
ATOM     25  C   UNL     1       3.586   3.350  19.829  0.00  0.00    +0.000 C 
ATOM     26  F   UNL     1       4.073   2.419  20.690  0.00  0.00    +0.000 F 
ATOM     27  F   UNL     1       2.631   4.032  20.515  0.00  0.00    +0.000 F 
ATOM     28  F   UNL     1       2.951   2.663  18.844  0.00  0.00    +0.000 F 
ENDBRANCH  17  25
ENDBRANCH  15  16
ENDBRANCH   4  15
TORSDOF 5
ENDMDL
MODEL 4
REMARK VINA RESULT:      -8.4      4.694      8.693
REMARK  Name = 
REMARK  5 active torsions:
REMARK  status: ('A' for Active; 'I' for Inactive)
REMARK    1  A    between atoms: N_2  and  C_4
REMARK    2  A    between atoms: C_8  and  C_9
REMARK    3  A    between atoms: C_12  and  C_13
REMARK    4  A    between atoms: C_13  and  N_14
REMARK    5  A    between atoms: C_15  and  C_16
REMARK                            x       y       z     vdW  Elec       q    Type
REMARK                         _______ _______ _______ _____ _____    ______ ____
ROOT
ATOM      1  C   UNL     1       1.765   8.117  19.420  0.00  0.00    +0.000 A 
ATOM      2  N   UNL     1       2.099   7.289  20.423  0.00  0.00    +0.000 NA
ATOM      3  O   UNL     1       2.676   6.199  19.785  0.00  0.00    +0.000 OA
ATOM      4  C   UNL     1       2.643   6.463  18.448  0.00  0.00    +0.000 A 
ATOM      5  N   UNL     1       2.088   7.623  18.169  0.00  0.00    +0.000 NA
ENDROOT
BRANCH   1  10
ATOM      6  C   UNL     1      -0.031  11.045  21.009  0.00  0.00    +0.000 A 
ATOM      7  C   UNL     1       0.062  12.013  19.998  0.00  0.00    +0.000 A 
ATOM      8  C   UNL     1       0.696  11.692  18.803  0.00  0.00    +0.000 A 
ATOM      9  C   UNL     1       1.251  10.417  18.614  0.00  0.00    +0.000 A 
ATOM     10  C   UNL     1       1.165   9.438  19.621  0.00  0.00    +0.000 A 
ATOM     11  C   UNL     1       0.510   9.765  20.824  0.00  0.00    +0.000 A 
BRANCH   6  13
ATOM     12  O   UNL     1      -0.361  10.753  23.287  0.00  0.00    +0.000 OA
ATOM     13  N   UNL     1      -0.692  11.383  22.272  0.00  0.00    +0.000 N 
ATOM     14  O   UNL     1      -1.555  12.266  22.253  0.00  0.00    +0.000 OA
ENDBRANCH   6  13
ENDBRANCH   1  10
BRANCH   4  15
ATOM     15  C   UNL     1       3.279   5.460  17.554  0.00  0.00    +0.000 C 
BRANCH  15  16
ATOM     16  N   UNL     1       4.606   5.100  18.036  0.00  0.00    +0.000 N 
ATOM     17  C   UNL     1       4.949   4.025  18.842  0.00  0.00    +0.000 A 
ATOM     18  N   UNL     1       6.203   4.151  19.252  0.00  0.00    +0.000 NA
ATOM     19  C   UNL     1       6.661   5.333  18.747  0.00  0.00    +0.000 A 
ATOM     20  C   UNL     1       7.863   5.999  19.013  0.00  0.00    +0.000 A 
ATOM     21  C   UNL     1       8.104   7.225  18.386  0.00  0.00    +0.000 A 
ATOM     22  C   UNL     1       7.197   7.735  17.457  0.00  0.00    +0.000 A 
ATOM     23  C   UNL     1       5.991   7.079  17.176  0.00  0.00    +0.000 A 
ATOM     24  C   UNL     1       5.728   5.900  17.889  0.00  0.00    +0.000 A 
BRANCH  17  25
ATOM     25  C   UNL     1       4.022   2.928  19.273  0.00  0.00    +0.000 C 
ATOM     26  F   UNL     1       3.008   3.358  20.066  0.00  0.00    +0.000 F 
ATOM     27  F   UNL     1       3.435   2.312  18.214  0.00  0.00    +0.000 F 
ATOM     28  F   UNL     1       4.676   1.968  19.977  0.00  0.00    +0.000 F 
ENDBRANCH  17  25
ENDBRANCH  15  16
ENDBRANCH   4  15
TORSDOF 5
ENDMDL
MODEL 5
REMARK VINA RESULT:      -8.4      4.824      8.182
REMARK  Name = 
REMARK  5 active torsions:
REMARK  status: ('A' for Active; 'I' for Inactive)
REMARK    1  A    between atoms: N_2  and  C_4
REMARK    2  A    between atoms: C_8  and  C_9
REMARK    3  A    between atoms: C_12  and  C_13
REMARK    4  A    between atoms: C_13  and  N_14
REMARK    5  A    between atoms: C_15  and  C_16
REMARK                            x       y       z     vdW  Elec       q    Type
REMARK                         _______ _______ _______ _____ _____    ______ ____
ROOT
ATOM      1  C   UNL     1       1.279   9.110  18.577  0.00  0.00    +0.000 A 
ATOM      2  N   UNL     1       2.015   9.051  17.456  0.00  0.00    +0.000 NA
ATOM      3  O   UNL     1       2.880   7.986  17.673  0.00  0.00    +0.000 OA
ATOM      4  C   UNL     1       2.590   7.491  18.910  0.00  0.00    +0.000 A 
ATOM      5  N   UNL     1       1.621   8.148  19.511  0.00  0.00    +0.000 NA
ENDROOT
BRANCH   1  10
ATOM      6  C   UNL     1      -1.874  11.133  18.038  0.00  0.00    +0.000 A 
ATOM      7  C   UNL     1      -1.943  11.867  19.232  0.00  0.00    +0.000 A 
ATOM      8  C   UNL     1      -0.951  11.703  20.191  0.00  0.00    +0.000 A 
ATOM      9  C   UNL     1       0.103  10.803  19.975  0.00  0.00    +0.000 A 
ATOM     10  C   UNL     1       0.184  10.061  18.783  0.00  0.00    +0.000 A 
ATOM     11  C   UNL     1      -0.817  10.241  17.809  0.00  0.00    +0.000 A 
BRANCH   6  13
ATOM     12  O   UNL     1      -2.630  11.068  15.845  0.00  0.00    +0.000 OA
ATOM     13  N   UNL     1      -2.922  11.298  17.028  0.00  0.00    +0.000 N 
ATOM     14  O   UNL     1      -4.036  11.673  17.409  0.00  0.00    +0.000 OA
ENDBRANCH   6  13
ENDBRANCH   1  10
BRANCH   4  15
ATOM     15  C   UNL     1       3.346   6.285  19.339  0.00  0.00    +0.000 C 
BRANCH  15  16
ATOM     16  N   UNL     1       3.734   5.478  18.191  0.00  0.00    +0.000 N 
ATOM     17  C   UNL     1       3.030   4.428  17.619  0.00  0.00    +0.000 A 
ATOM     18  N   UNL     1       3.795   3.797  16.740  0.00  0.00    +0.000 NA
ATOM     19  C   UNL     1       5.013   4.411  16.774  0.00  0.00    +0.000 A 
ATOM     20  C   UNL     1       6.210   4.031  16.154  0.00  0.00    +0.000 A 
ATOM     21  C   UNL     1       7.349   4.815  16.356  0.00  0.00    +0.000 A 
ATOM     22  C   UNL     1       7.275   5.992  17.101  0.00  0.00    +0.000 A 
ATOM     23  C   UNL     1       6.085   6.389  17.726  0.00  0.00    +0.000 A 
ATOM     24  C   UNL     1       4.980   5.536  17.587  0.00  0.00    +0.000 A 
BRANCH  17  25
ATOM     25  C   UNL     1       1.644   4.001  17.997  0.00  0.00    +0.000 C 
ATOM     26  F   UNL     1       1.309   4.322  19.274  0.00  0.00    +0.000 F 
ATOM     27  F   UNL     1       0.699   4.573  17.206  0.00  0.00    +0.000 F 
ATOM     28  F   UNL     1       1.488   2.655  17.889  0.00  0.00    +0.000 F 
ENDBRANCH  17  25
ENDBRANCH  15  16
ENDBRANCH   4  15
TORSDOF 5
ENDMDL
MODEL 6
REMARK VINA RESULT:      -8.4      4.669      8.677
REMARK  Name = 
REMARK  5 active torsions:
REMARK  status: ('A' for Active; 'I' for Inactive)
REMARK    1  A    between atoms: N_2  and  C_4
REMARK    2  A    between atoms: C_8  and  C_9
REMARK    3  A    between atoms: C_12  and  C_13
REMARK    4  A    between atoms: C_13  and  N_14
REMARK    5  A    between atoms: C_15  and  C_16
REMARK                            x       y       z     vdW  Elec       q    Type
REMARK                         _______ _______ _______ _____ _____    ______ ____
ROOT
ATOM      1  C   UNL     1       1.521   8.632  19.106  0.00  0.00    +0.000 A 
ATOM      2  N   UNL     1       1.918   8.473  17.833  0.00  0.00    +0.000 NA
ATOM      3  O   UNL     1       2.768   7.376  17.877  0.00  0.00    +0.000 OA
ATOM      4  C   UNL     1       2.811   6.964  19.176  0.00  0.00    +0.000 A 
ATOM      5  N   UNL     1       2.071   7.705  19.972  0.00  0.00    +0.000 NA
ENDROOT
BRANCH   1  10
ATOM      6  C   UNL     1      -0.517  10.951  21.295  0.00  0.00    +0.000 A 
ATOM      7  C   UNL     1      -1.258  11.660  20.338  0.00  0.00    +0.000 A 
ATOM      8  C   UNL     1      -1.094  11.362  18.990  0.00  0.00    +0.000 A 
ATOM      9  C   UNL     1      -0.187  10.370  18.588  0.00  0.00    +0.000 A 
ATOM     10  C   UNL     1       0.563   9.652  19.538  0.00  0.00    +0.000 A 
ATOM     11  C   UNL     1       0.383   9.950  20.903  0.00  0.00    +0.000 A 
BRANCH   6  13
ATOM     12  O   UNL     1      -1.153  12.377  23.011  0.00  0.00    +0.000 OA
ATOM     13  N   UNL     1      -0.682  11.269  22.715  0.00  0.00    +0.000 N 
ATOM     14  O   UNL     1      -0.328  10.421  23.541  0.00  0.00    +0.000 OA
ENDBRANCH   6  13
ENDBRANCH   1  10
BRANCH   4  15
ATOM     15  C   UNL     1       3.610   5.744  19.462  0.00  0.00    +0.000 C 
BRANCH  15  16
ATOM     16  N   UNL     1       3.855   4.984  18.243  0.00  0.00    +0.000 N 
ATOM     17  C   UNL     1       3.179   3.857  17.801  0.00  0.00    +0.000 A 
ATOM     18  N   UNL     1       3.824   3.318  16.776  0.00  0.00    +0.000 NA
ATOM     19  C   UNL     1       4.944   4.072  16.581  0.00  0.00    +0.000 A 
ATOM     20  C   UNL     1       6.030   3.835  15.730  0.00  0.00    +0.000 A 
ATOM     21  C   UNL     1       7.087   4.748  15.720  0.00  0.00    +0.000 A 
ATOM     22  C   UNL     1       7.026   5.911  16.488  0.00  0.00    +0.000 A 
ATOM     23  C   UNL     1       5.944   6.167  17.343  0.00  0.00    +0.000 A 
ATOM     24  C   UNL     1       4.941   5.188  17.408  0.00  0.00    +0.000 A 
BRANCH  17  25
ATOM     25  C   UNL     1       1.955   3.269  18.436  0.00  0.00    +0.000 C 
ATOM     26  F   UNL     1       1.583   2.080  17.894  0.00  0.00    +0.000 F 
ATOM     27  F   UNL     1       2.130   3.038  19.763  0.00  0.00    +0.000 F 
ATOM     28  F   UNL     1       0.883   4.095  18.315  0.00  0.00    +0.000 F 
ENDBRANCH  17  25
ENDBRANCH  15  16
ENDBRANCH   4  15
TORSDOF 5
ENDMDL
MODEL 7
REMARK VINA RESULT:      -8.4      4.547      8.652
REMARK  Name = 
REMARK  5 active torsions:
REMARK  status: ('A' for Active; 'I' for Inactive)
REMARK    1  A    between atoms: N_2  and  C_4
REMARK    2  A    between atoms: C_8  and  C_9
REMARK    3  A    between atoms: C_12  and  C_13
REMARK    4  A    between atoms: C_13  and  N_14
REMARK    5  A    between atoms: C_15  and  C_16
REMARK                            x       y       z     vdW  Elec       q    Type
REMARK                         _______ _______ _______ _____ _____    ______ ____
ROOT
ATOM      1  C   UNL     1       1.815   9.014  18.738  0.00  0.00    +0.000 A 
ATOM      2  N   UNL     1       2.369   9.301  17.550  0.00  0.00    +0.000 NA
ATOM      3  O   UNL     1       2.808   8.073  17.073  0.00  0.00    +0.000 OA
ATOM      4  C   UNL     1       2.479   7.146  18.017  0.00  0.00    +0.000 A 
ATOM      5  N   UNL     1       1.875   7.670  19.061  0.00  0.00    +0.000 NA
ENDROOT
BRANCH   1  10
ATOM      6  C   UNL     1       0.093  10.639  21.690  0.00  0.00    +0.000 A 
ATOM      7  C   UNL     1      -0.046  11.960  21.241  0.00  0.00    +0.000 A 
ATOM      8  C   UNL     1       0.411  12.301  19.974  0.00  0.00    +0.000 A 
ATOM      9  C   UNL     1       1.017  11.336  19.155  0.00  0.00    +0.000 A 
ATOM     10  C   UNL     1       1.163  10.007  19.594  0.00  0.00    +0.000 A 
ATOM     11  C   UNL     1       0.686   9.666  20.874  0.00  0.00    +0.000 A 
BRANCH   6  13
ATOM     12  O   UNL     1      -1.514  10.655  23.365  0.00  0.00    +0.000 OA
ATOM     13  N   UNL     1      -0.380  10.278  23.029  0.00  0.00    +0.000 N 
ATOM     14  O   UNL     1       0.382   9.633  23.757  0.00  0.00    +0.000 OA
ENDBRANCH   6  13
ENDBRANCH   1  10
BRANCH   4  15
ATOM     15  C   UNL     1       2.787   5.728  17.694  0.00  0.00    +0.000 C 
BRANCH  15  16
ATOM     16  N   UNL     1       3.988   5.284  18.389  0.00  0.00    +0.000 N 
ATOM     17  C   UNL     1       4.061   4.499  19.530  0.00  0.00    +0.000 A 
ATOM     18  N   UNL     1       5.303   4.492  19.992  0.00  0.00    +0.000 NA
ATOM     19  C   UNL     1       6.028   5.309  19.175  0.00  0.00    +0.000 A 
ATOM     20  C   UNL     1       7.345   5.761  19.321  0.00  0.00    +0.000 A 
ATOM     21  C   UNL     1       7.870   6.622  18.355  0.00  0.00    +0.000 A 
ATOM     22  C   UNL     1       7.121   6.965  17.229  0.00  0.00    +0.000 A 
ATOM     23  C   UNL     1       5.802   6.519  17.065  0.00  0.00    +0.000 A 
ATOM     24  C   UNL     1       5.264   5.734  18.095  0.00  0.00    +0.000 A 
BRANCH  17  25
ATOM     25  C   UNL     1       2.901   3.832  20.205  0.00  0.00    +0.000 C 
ATOM     26  F   UNL     1       3.273   2.931  21.152  0.00  0.00    +0.000 F 
ATOM     27  F   UNL     1       2.094   4.725  20.834  0.00  0.00    +0.000 F 
ATOM     28  F   UNL     1       2.127   3.154  19.318  0.00  0.00    +0.000 F 
ENDBRANCH  17  25
ENDBRANCH  15  16
ENDBRANCH   4  15
TORSDOF 5
ENDMDL
MODEL 8
REMARK VINA RESULT:      -8.4      4.411      8.154
REMARK  Name = 
REMARK  5 active torsions:
REMARK  status: ('A' for Active; 'I' for Inactive)
REMARK    1  A    between atoms: N_2  and  C_4
REMARK    2  A    between atoms: C_8  and  C_9
REMARK    3  A    between atoms: C_12  and  C_13
REMARK    4  A    between atoms: C_13  and  N_14
REMARK    5  A    between atoms: C_15  and  C_16
REMARK                            x       y       z     vdW  Elec       q    Type
REMARK                         _______ _______ _______ _____ _____    ______ ____
ROOT
ATOM      1  C   UNL     1       1.862   8.653  18.855  0.00  0.00    +0.000 A 
ATOM      2  N   UNL     1       2.236   8.681  17.566  0.00  0.00    +0.000 NA
ATOM      3  O   UNL     1       3.237   7.723  17.481  0.00  0.00    +0.000 OA
ATOM      4  C   UNL     1       3.381   7.195  18.730  0.00  0.00    +0.000 A 
ATOM      5  N   UNL     1       2.568   7.736  19.612  0.00  0.00    +0.000 NA
ENDROOT
BRANCH   1  10
ATOM      6  C   UNL     1      -0.427  10.406  21.307  0.00  0.00    +0.000 A 
ATOM      7  C   UNL     1      -1.284  11.101  20.441  0.00  0.00    +0.000 A 
ATOM      8  C   UNL     1      -1.115  10.977  19.068  0.00  0.00    +0.000 A 
ATOM      9  C   UNL     1      -0.087  10.174  18.550  0.00  0.00    +0.000 A 
ATOM     10  C   UNL     1       0.781   9.472  19.407  0.00  0.00    +0.000 A 
ATOM     11  C   UNL     1       0.595   9.593  20.798  0.00  0.00    +0.000 A 
BRANCH   6  13
ATOM     12  O   UNL     1      -1.530  11.252  23.165  0.00  0.00    +0.000 OA
ATOM     13  N   UNL     1      -0.599  10.542  22.755  0.00  0.00    +0.000 N 
ATOM     14  O   UNL     1       0.204   9.956  23.489  0.00  0.00    +0.000 OA
ENDBRANCH   6  13
ENDBRANCH   1  10
BRANCH   4  15
ATOM     15  C   UNL     1       4.357   6.083  18.875  0.00  0.00    +0.000 C 
BRANCH  15  16
ATOM     16  N   UNL     1       3.789   4.826  18.407  0.00  0.00    +0.000 N 
ATOM     17  C   UNL     1       4.002   4.207  17.184  0.00  0.00    +0.000 A 
ATOM     18  N   UNL     1       3.148   3.205  17.032  0.00  0.00    +0.000 NA
ATOM     19  C   UNL     1       2.350   3.202  18.138  0.00  0.00    +0.000 A 
ATOM     20  C   UNL     1       1.198   2.448  18.393  0.00  0.00    +0.000 A 
ATOM     21  C   UNL     1       0.526   2.637  19.604  0.00  0.00    +0.000 A 
ATOM     22  C   UNL     1       1.036   3.507  20.568  0.00  0.00    +0.000 A 
ATOM     23  C   UNL     1       2.190   4.267  20.331  0.00  0.00    +0.000 A 
ATOM     24  C   UNL     1       2.792   4.131  19.071  0.00  0.00    +0.000 A 
BRANCH  17  25
ATOM     25  C   UNL     1       4.982   4.651  16.141  0.00  0.00    +0.000 C 
ATOM     26  F   UNL     1       4.796   5.934  15.736  0.00  0.00    +0.000 F 
ATOM     27  F   UNL     1       6.265   4.580  16.583  0.00  0.00    +0.000 F 
ATOM     28  F   UNL     1       4.905   3.884  15.022  0.00  0.00    +0.000 F 
ENDBRANCH  17  25
ENDBRANCH  15  16
ENDBRANCH   4  15
TORSDOF 5
ENDMDL
MODEL 9
REMARK VINA RESULT:      -8.3      4.402      8.555
REMARK  Name = 
REMARK  5 active torsions:
REMARK  status: ('A' for Active; 'I' for Inactive)
REMARK    1  A    between atoms: N_2  and  C_4
REMARK    2  A    between atoms: C_8  and  C_9
REMARK    3  A    between atoms: C_12  and  C_13
REMARK    4  A    between atoms: C_13  and  N_14
REMARK    5  A    between atoms: C_15  and  C_16
REMARK                            x       y       z     vdW  Elec       q    Type
REMARK                         _______ _______ _______ _____ _____    ______ ____
ROOT
ATOM      1  C   UNL     1       1.869   8.560  18.545  0.00  0.00    +0.000 A 
ATOM      2  N   UNL     1       2.582   8.993  17.494  0.00  0.00    +0.000 NA
ATOM      3  O   UNL     1       3.206   7.850  17.012  0.00  0.00    +0.000 OA
ATOM      4  C   UNL     1       2.814   6.821  17.815  0.00  0.00    +0.000 A 
ATOM      5  N   UNL     1       2.000   7.202  18.776  0.00  0.00    +0.000 NA
ENDROOT
BRANCH   1  10
ATOM      6  C   UNL     1       0.109  10.143  21.498  0.00  0.00    +0.000 A 
ATOM      7  C   UNL     1      -0.664  11.129  20.867  0.00  0.00    +0.000 A 
ATOM      8  C   UNL     1      -0.613  11.254  19.484  0.00  0.00    +0.000 A 
ATOM      9  C   UNL     1       0.213  10.412  18.725  0.00  0.00    +0.000 A 
ATOM     10  C   UNL     1       0.994   9.420  19.346  0.00  0.00    +0.000 A 
ATOM     11  C   UNL     1       0.928   9.289  20.746  0.00  0.00    +0.000 A 
BRANCH   6  13
ATOM     12  O   UNL     1       1.049   9.523  23.527  0.00  0.00    +0.000 OA
ATOM     13  N   UNL     1       0.063  10.013  22.956  0.00  0.00    +0.000 N 
ATOM     14  O   UNL     1      -0.963  10.385  23.537  0.00  0.00    +0.000 OA
ENDBRANCH   6  13
ENDBRANCH   1  10
BRANCH   4  15
ATOM     15  C   UNL     1       3.302   5.465  17.448  0.00  0.00    +0.000 C 
BRANCH  15  16
ATOM     16  N   UNL     1       4.497   5.119  18.206  0.00  0.00    +0.000 N 
ATOM     17  C   UNL     1       4.588   4.263  19.294  0.00  0.00    +0.000 A 
ATOM     18  N   UNL     1       5.785   4.372  19.853  0.00  0.00    +0.000 NA
ATOM     19  C   UNL     1       6.456   5.332  19.153  0.00  0.00    +0.000 A 
ATOM     20  C   UNL     1       7.692   5.927  19.434  0.00  0.00    +0.000 A 
ATOM     21  C   UNL     1       8.170   6.918  18.574  0.00  0.00    +0.000 A 
ATOM     22  C   UNL     1       7.465   7.253  17.417  0.00  0.00    +0.000 A 
ATOM     23  C   UNL     1       6.229   6.664  17.118  0.00  0.00    +0.000 A 
ATOM     24  C   UNL     1       5.724   5.742  18.047  0.00  0.00    +0.000 A 
BRANCH  17  25
ATOM     25  C   UNL     1       3.478   3.409  19.827  0.00  0.00    +0.000 C 
ATOM     26  F   UNL     1       2.469   4.124  20.389  0.00  0.00    +0.000 F 
ATOM     27  F   UNL     1       2.905   2.652  18.856  0.00  0.00    +0.000 F 
ATOM     28  F   UNL     1       3.920   2.555  20.787  0.00  0.00    +0.000 F 
ENDBRANCH  17  25
ENDBRANCH  15  16
ENDBRANCH   4  15
TORSDOF 5
ENDMDL
