MODEL 1
REMARK VINA RESULT:      -8.6      0.000      0.000
REMARK  Name = 
REMARK  3 active torsions:
REMARK  status: ('A' for Active; 'I' for Inactive)
REMARK    1  A    between atoms: C_1  and  N_2
REMARK    2  A    between atoms: C_3  and  C_4
REMARK    3  A    between atoms: C_6  and  C_7
REMARK                            x       y       z     vdW  Elec       q    Type
REMARK                         _______ _______ _______ _____ _____    ______ ____
ROOT
ATOM      1  C   UNL     1       2.007   7.423  20.024  0.00  0.00    +0.000 A 
ATOM      2  N   UNL     1       3.143   7.327  19.353  0.00  0.00    +0.000 NA
ATOM      3  C   UNL     1       3.452   5.994  19.375  0.00  0.00    +0.000 A 
ATOM      4  N   UNL     1       2.558   5.247  20.033  0.00  0.00    +0.000 NA
ATOM      5  O   UNL     1       1.612   6.170  20.462  0.00  0.00    +0.000 OA
ENDROOT
BRANCH   1   8
ATOM      6  C   UNL     1       1.561   9.455  17.885  0.00  0.00    +0.000 C 
ATOM      7  N   UNL     1       0.925   9.505  19.194  0.00  0.00    +0.000 N 
ATOM      8  C   UNL     1       1.219   8.612  20.231  0.00  0.00    +0.000 A 
ATOM      9  C   UNL     1       0.712   8.800  21.464  0.00  0.00    +0.000 A 
ATOM     10  C   UNL     1      -0.173   9.926  21.747  0.00  0.00    +0.000 A 
ATOM     11  C   UNL     1      -0.665  10.163  23.036  0.00  0.00    +0.000 A 
ATOM     12  C   UNL     1      -1.550  11.220  23.268  0.00  0.00    +0.000 A 
ATOM     13  C   UNL     1      -1.962  12.035  22.214  0.00  0.00    +0.000 A 
ATOM     14  C   UNL     1      -1.467  11.813  20.930  0.00  0.00    +0.000 A 
ATOM     15  C   UNL     1      -0.562  10.769  20.705  0.00  0.00    +0.000 A 
ATOM     16  C   UNL     1       0.027  10.573  19.360  0.00  0.00    +0.000 A 
ATOM     17  O   UNL     1      -0.269  11.354  18.458  0.00  0.00    +0.000 OA
ENDBRANCH   1   8
BRANCH   3  18
ATOM     18  C   UNL     1       4.637   5.535  18.699  0.00  0.00    +0.000 A 
ATOM     19  C   UNL     1       5.170   6.263  17.544  0.00  0.00    +0.000 A 
ATOM     20  C   UNL     1       6.263   5.848  16.885  0.00  0.00    +0.000 A 
ATOM     21  C   UNL     1       6.963   4.619  17.327  0.00  0.00    +0.000 A 
ATOM     22  O   UNL     1       7.960   4.207  16.746  0.00  0.00    +0.000 OA
ATOM     23  N   UNL     1       6.416   3.985  18.415  0.00  0.00    +0.000 N 
ATOM     24  C   UNL     1       5.297   4.423  19.082  0.00  0.00    +0.000 A 
ATOM     25  H   UNL     1       6.888   3.141  18.716  0.00  0.00    +0.000 HD
ENDBRANCH   3  18
TORSDOF 2
ENDMDL
MODEL 2
REMARK VINA RESULT:      -8.5      1.133      1.133
REMARK  Name = 
REMARK  3 active torsions:
REMARK  status: ('A' for Active; 'I' for Inactive)
REMARK    1  A    between atoms: C_1  and  N_2
REMARK    2  A    between atoms: C_3  and  C_4
REMARK    3  A    between atoms: C_6  and  C_7
REMARK                            x       y       z     vdW  Elec       q    Type
REMARK                         _______ _______ _______ _____ _____    ______ ____
ROOT
ATOM      1  C   UNL     1       2.253   7.189  19.631  0.00  0.00    +0.000 A 
ATOM      2  N   UNL     1       3.019   7.026  18.566  0.00  0.00    +0.000 NA
ATOM      3  C   UNL     1       3.421   5.718  18.621  0.00  0.00    +0.000 A 
ATOM      4  N   UNL     1       2.940   5.053  19.677  0.00  0.00    +0.000 NA
ATOM      5  O   UNL     1       2.178   6.003  20.344  0.00  0.00    +0.000 OA
ENDROOT
BRANCH   1   8
ATOM      6  C   UNL     1       1.953   9.533  17.809  0.00  0.00    +0.000 C 
ATOM      7  N   UNL     1       1.294   9.424  19.103  0.00  0.00    +0.000 N 
ATOM      8  C   UNL     1       1.521   8.374  20.001  0.00  0.00    +0.000 A 
ATOM      9  C   UNL     1       0.999   8.407  21.242  0.00  0.00    +0.000 A 
ATOM     10  C   UNL     1       0.166   9.524  21.676  0.00  0.00    +0.000 A 
ATOM     11  C   UNL     1      -0.339   9.595  22.979  0.00  0.00    +0.000 A 
ATOM     12  C   UNL     1      -1.175  10.652  23.354  0.00  0.00    +0.000 A 
ATOM     13  C   UNL     1      -1.524  11.633  22.426  0.00  0.00    +0.000 A 
ATOM     14  C   UNL     1      -1.014  11.576  21.130  0.00  0.00    +0.000 A 
ATOM     15  C   UNL     1      -0.158  10.530  20.765  0.00  0.00    +0.000 A 
ATOM     16  C   UNL     1       0.448  10.502  19.413  0.00  0.00    +0.000 A 
ATOM     17  O   UNL     1       0.209  11.421  18.633  0.00  0.00    +0.000 OA
ENDBRANCH   1   8
BRANCH   3  18
ATOM     18  C   UNL     1       4.260   5.196  17.574  0.00  0.00    +0.000 A 
ATOM     19  C   UNL     1       4.779   6.074  16.521  0.00  0.00    +0.000 A 
ATOM     20  C   UNL     1       5.550   5.611  15.525  0.00  0.00    +0.000 A 
ATOM     21  C   UNL     1       5.895   4.170  15.474  0.00  0.00    +0.000 A 
ATOM     22  O   UNL     1       6.591   3.711  14.577  0.00  0.00    +0.000 OA
ATOM     23  N   UNL     1       5.381   3.403  16.489  0.00  0.00    +0.000 N 
ATOM     24  C   UNL     1       4.595   3.892  17.505  0.00  0.00    +0.000 A 
ATOM     25  H   UNL     1       5.610   2.417  16.454  0.00  0.00    +0.000 HD
ENDBRANCH   3  18
TORSDOF 2
ENDMDL
MODEL 3
REMARK VINA RESULT:      -8.4      1.511      1.725
REMARK  Name = 
REMARK  3 active torsions:
REMARK  status: ('A' for Active; 'I' for Inactive)
REMARK    1  A    between atoms: C_1  and  N_2
REMARK    2  A    between atoms: C_3  and  C_4
REMARK    3  A    between atoms: C_6  and  C_7
REMARK                            x       y       z     vdW  Elec       q    Type
REMARK                         _______ _______ _______ _____ _____    ______ ____
ROOT
ATOM      1  C   UNL     1       2.422   7.258  19.245  0.00  0.00    +0.000 A 
ATOM      2  N   UNL     1       3.210   7.228  18.183  0.00  0.00    +0.000 NA
ATOM      3  C   UNL     1       3.614   5.924  18.082  0.00  0.00    +0.000 A 
ATOM      4  N   UNL     1       3.113   5.132  19.036  0.00  0.00    +0.000 NA
ATOM      5  O   UNL     1       2.335   5.991  19.801  0.00  0.00    +0.000 OA
ENDROOT
BRANCH   1   8
ATOM      6  C   UNL     1       2.012   9.749  17.655  0.00  0.00    +0.000 C 
ATOM      7  N   UNL     1       1.400   9.508  18.954  0.00  0.00    +0.000 N 
ATOM      8  C   UNL     1       1.680   8.387  19.745  0.00  0.00    +0.000 A 
ATOM      9  C   UNL     1       1.200   8.295  21.000  0.00  0.00    +0.000 A 
ATOM     10  C   UNL     1       0.361   9.349  21.561  0.00  0.00    +0.000 A 
ATOM     11  C   UNL     1      -0.101   9.290  22.881  0.00  0.00    +0.000 A 
ATOM     12  C   UNL     1      -0.944  10.289  23.377  0.00  0.00    +0.000 A 
ATOM     13  C   UNL     1      -1.344  11.342  22.555  0.00  0.00    +0.000 A 
ATOM     14  C   UNL     1      -0.879  11.414  21.243  0.00  0.00    +0.000 A 
ATOM     15  C   UNL     1      -0.015  10.425  20.756  0.00  0.00    +0.000 A 
ATOM     16  C   UNL     1       0.544  10.534  19.389  0.00  0.00    +0.000 A 
ATOM     17  O   UNL     1       0.261  11.514  18.704  0.00  0.00    +0.000 OA
ENDBRANCH   1   8
BRANCH   3  18
ATOM     18  C   UNL     1       4.475   5.537  16.996  0.00  0.00    +0.000 A 
ATOM     19  C   UNL     1       4.778   4.126  16.744  0.00  0.00    +0.000 A 
ATOM     20  C   UNL     1       5.590   3.738  15.749  0.00  0.00    +0.000 A 
ATOM     21  C   UNL     1       6.208   4.758  14.869  0.00  0.00    +0.000 A 
ATOM     22  O   UNL     1       6.959   4.442  13.954  0.00  0.00    +0.000 OA
ATOM     23  N   UNL     1       5.883   6.061  15.154  0.00  0.00    +0.000 N 
ATOM     24  C   UNL     1       5.047   6.442  16.176  0.00  0.00    +0.000 A 
ATOM     25  H   UNL     1       6.309   6.761  14.558  0.00  0.00    +0.000 HD
ENDBRANCH   3  18
TORSDOF 2
ENDMDL
MODEL 4
REMARK VINA RESULT:      -8.3      2.676      8.572
REMARK  Name = 
REMARK  3 active torsions:
REMARK  status: ('A' for Active; 'I' for Inactive)
REMARK    1  A    between atoms: C_1  and  N_2
REMARK    2  A    between atoms: C_3  and  C_4
REMARK    3  A    between atoms: C_6  and  C_7
REMARK                            x       y       z     vdW  Elec       q    Type
REMARK                         _______ _______ _______ _____ _____    ______ ____
ROOT
ATOM      1  C   UNL     1       1.373   9.247  18.539  0.00  0.00    +0.000 A 
ATOM      2  N   UNL     1       0.101   9.236  18.175  0.00  0.00    +0.000 NA
ATOM      3  C   UNL     1      -0.304  10.540  18.277  0.00  0.00    +0.000 A 
ATOM      4  N   UNL     1       0.661  11.370  18.690  0.00  0.00    +0.000 NA
ATOM      5  O   UNL     1       1.759  10.537  18.865  0.00  0.00    +0.000 OA
ENDROOT
BRANCH   1   8
ATOM      6  C   UNL     1       1.546   7.306  20.798  0.00  0.00    +0.000 C 
ATOM      7  N   UNL     1       2.286   7.165  19.551  0.00  0.00    +0.000 N 
ATOM      8  C   UNL     1       2.285   8.131  18.539  0.00  0.00    +0.000 A 
ATOM      9  C   UNL     1       3.106   8.015  17.478  0.00  0.00    +0.000 A 
ATOM     10  C   UNL     1       4.002   6.869  17.345  0.00  0.00    +0.000 A 
ATOM     11  C   UNL     1       4.897   6.762  16.274  0.00  0.00    +0.000 A 
ATOM     12  C   UNL     1       5.708   5.630  16.145  0.00  0.00    +0.000 A 
ATOM     13  C   UNL     1       5.618   4.594  17.073  0.00  0.00    +0.000 A 
ATOM     14  C   UNL     1       4.738   4.699  18.148  0.00  0.00    +0.000 A 
ATOM     15  C   UNL     1       3.945   5.843  18.289  0.00  0.00    +0.000 A 
ATOM     16  C   UNL     1       3.062   5.997  19.469  0.00  0.00    +0.000 A 
ATOM     17  O   UNL     1       3.060   5.120  20.331  0.00  0.00    +0.000 OA
ENDBRANCH   1   8
BRANCH   3  18
ATOM     18  C   UNL     1      -1.654  10.887  17.922  0.00  0.00    +0.000 A 
ATOM     19  C   UNL     1      -2.288  10.310  16.732  0.00  0.00    +0.000 A 
ATOM     20  C   UNL     1      -3.540  10.628  16.369  0.00  0.00    +0.000 A 
ATOM     21  C   UNL     1      -4.318  11.591  17.185  0.00  0.00    +0.000 A 
ATOM     22  O   UNL     1      -5.461  11.909  16.880  0.00  0.00    +0.000 OA
ATOM     23  N   UNL     1      -3.670  12.092  18.286  0.00  0.00    +0.000 N 
ATOM     24  C   UNL     1      -2.387  11.755  18.647  0.00  0.00    +0.000 A 
ATOM     25  H   UNL     1      -4.196  12.755  18.842  0.00  0.00    +0.000 HD
ENDBRANCH   3  18
TORSDOF 2
ENDMDL
MODEL 5
REMARK VINA RESULT:      -8.2      2.099      8.517
REMARK  Name = 
REMARK  3 active torsions:
REMARK  status: ('A' for Active; 'I' for Inactive)
REMARK    1  A    between atoms: C_1  and  N_2
REMARK    2  A    between atoms: C_3  and  C_4
REMARK    3  A    between atoms: C_6  and  C_7
REMARK                            x       y       z     vdW  Elec       q    Type
REMARK                         _______ _______ _______ _____ _____    ______ ____
ROOT
ATOM      1  C   UNL     1       2.053   8.324  18.732  0.00  0.00    +0.000 A 
ATOM      2  N   UNL     1       1.451   8.582  19.881  0.00  0.00    +0.000 NA
ATOM      3  C   UNL     1       0.786   9.761  19.671  0.00  0.00    +0.000 A 
ATOM      4  N   UNL     1       0.945  10.254  18.438  0.00  0.00    +0.000 NA
ATOM      5  O   UNL     1       1.771   9.326  17.817  0.00  0.00    +0.000 OA
ENDROOT
BRANCH   1   8
ATOM      6  C   UNL     1       1.943   5.809  20.334  0.00  0.00    +0.000 C 
ATOM      7  N   UNL     1       2.692   5.946  19.092  0.00  0.00    +0.000 N 
ATOM      8  C   UNL     1       2.829   7.156  18.401  0.00  0.00    +0.000 A 
ATOM      9  C   UNL     1       3.658   7.253  17.344  0.00  0.00    +0.000 A 
ATOM     10  C   UNL     1       4.417   6.097  16.878  0.00  0.00    +0.000 A 
ATOM     11  C   UNL     1       5.320   6.197  15.813  0.00  0.00    +0.000 A 
ATOM     12  C   UNL     1       5.998   5.062  15.355  0.00  0.00    +0.000 A 
ATOM     13  C   UNL     1       5.765   3.821  15.946  0.00  0.00    +0.000 A 
ATOM     14  C   UNL     1       4.877   3.715  17.014  0.00  0.00    +0.000 A 
ATOM     15  C   UNL     1       4.218   4.857  17.487  0.00  0.00    +0.000 A 
ATOM     16  C   UNL     1       3.330   4.768  18.669  0.00  0.00    +0.000 A 
ATOM     17  O   UNL     1       3.205   3.687  19.241  0.00  0.00    +0.000 OA
ENDBRANCH   1   8
BRANCH   3  18
ATOM     18  C   UNL     1      -0.006  10.319  20.735  0.00  0.00    +0.000 A 
ATOM     19  C   UNL     1      -0.029   9.695  22.061  0.00  0.00    +0.000 A 
ATOM     20  C   UNL     1      -0.772  10.184  23.065  0.00  0.00    +0.000 A 
ATOM     21  C   UNL     1      -1.600  11.394  22.842  0.00  0.00    +0.000 A 
ATOM     22  O   UNL     1      -2.295  11.865  23.733  0.00  0.00    +0.000 OA
ATOM     23  N   UNL     1      -1.533  11.932  21.581  0.00  0.00    +0.000 N 
ATOM     24  C   UNL     1      -0.765  11.420  20.562  0.00  0.00    +0.000 A 
ATOM     25  H   UNL     1      -2.103  12.755  21.423  0.00  0.00    +0.000 HD
ENDBRANCH   3  18
TORSDOF 2
ENDMDL
MODEL 6
REMARK VINA RESULT:      -8.1      2.271      8.404
REMARK  Name = 
REMARK  3 active torsions:
REMARK  status: ('A' for Active; 'I' for Inactive)
REMARK    1  A    between atoms: C_1  and  N_2
REMARK    2  A    between atoms: C_3  and  C_4
REMARK    3  A    between atoms: C_6  and  C_7
REMARK                            x       y       z     vdW  Elec       q    Type
REMARK                         _______ _______ _______ _____ _____    ______ ____
ROOT
ATOM      1  C   UNL     1       2.393   7.233  18.937  0.00  0.00    +0.000 A 
ATOM      2  N   UNL     1       1.994   8.391  18.441  0.00  0.00    +0.000 NA
ATOM      3  C   UNL     1       1.392   9.034  19.489  0.00  0.00    +0.000 A 
ATOM      4  N   UNL     1       1.395   8.327  20.625  0.00  0.00    +0.000 NA
ATOM      5  O   UNL     1       2.045   7.149  20.276  0.00  0.00    +0.000 OA
ENDROOT
BRANCH   1   8
ATOM      6  C   UNL     1       1.631   4.349  19.013  0.00  0.00    +0.000 C 
ATOM      7  N   UNL     1       2.724   4.877  18.209  0.00  0.00    +0.000 N 
ATOM      8  C   UNL     1       3.147   6.210  18.258  0.00  0.00    +0.000 A 
ATOM      9  C   UNL     1       4.258   6.603  17.606  0.00  0.00    +0.000 A 
ATOM     10  C   UNL     1       5.038   5.656  16.814  0.00  0.00    +0.000 A 
ATOM     11  C   UNL     1       6.222   6.039  16.174  0.00  0.00    +0.000 A 
ATOM     12  C   UNL     1       6.922   5.124  15.381  0.00  0.00    +0.000 A 
ATOM     13  C   UNL     1       6.436   3.828  15.210  0.00  0.00    +0.000 A 
ATOM     14  C   UNL     1       5.263   3.436  15.854  0.00  0.00    +0.000 A 
ATOM     15  C   UNL     1       4.577   4.346  16.667  0.00  0.00    +0.000 A 
ATOM     16  C   UNL     1       3.374   3.916  17.415  0.00  0.00    +0.000 A 
ATOM     17  O   UNL     1       3.006   2.746  17.332  0.00  0.00    +0.000 OA
ENDBRANCH   1   8
BRANCH   3  18
ATOM     18  C   UNL     1       0.861  10.357  19.291  0.00  0.00    +0.000 A 
ATOM     19  C   UNL     1      -0.446  10.730  19.838  0.00  0.00    +0.000 A 
ATOM     20  C   UNL     1      -0.972  11.951  19.655  0.00  0.00    +0.000 A 
ATOM     21  C   UNL     1      -0.219  12.964  18.878  0.00  0.00    +0.000 A 
ATOM     22  O   UNL     1      -0.670  14.086  18.686  0.00  0.00    +0.000 OA
ATOM     23  N   UNL     1       0.998  12.554  18.396  0.00  0.00    +0.000 N 
ATOM     24  C   UNL     1       1.525  11.300  18.593  0.00  0.00    +0.000 A 
ATOM     25  H   UNL     1       1.513  13.241  17.858  0.00  0.00    +0.000 HD
ENDBRANCH   3  18
TORSDOF 2
ENDMDL
MODEL 7
REMARK VINA RESULT:      -8.0      2.070      8.477
REMARK  Name = 
REMARK  3 active torsions:
REMARK  status: ('A' for Active; 'I' for Inactive)
REMARK    1  A    between atoms: C_1  and  N_2
REMARK    2  A    between atoms: C_3  and  C_4
REMARK    3  A    between atoms: C_6  and  C_7
REMARK                            x       y       z     vdW  Elec       q    Type
REMARK                         _______ _______ _______ _____ _____    ______ ____
ROOT
ATOM      1  C   UNL     1       1.883   8.463  18.847  0.00  0.00    +0.000 A 
ATOM      2  N   UNL     1       1.272   8.731  19.989  0.00  0.00    +0.000 NA
ATOM      3  C   UNL     1       0.590   9.896  19.757  0.00  0.00    +0.000 A 
ATOM      4  N   UNL     1       0.746  10.371  18.516  0.00  0.00    +0.000 NA
ATOM      5  O   UNL     1       1.589   9.445  17.914  0.00  0.00    +0.000 OA
ENDROOT
BRANCH   1   8
ATOM      6  C   UNL     1       1.791   5.968  20.480  0.00  0.00    +0.000 C 
ATOM      7  N   UNL     1       2.552   6.100  19.245  0.00  0.00    +0.000 N 
ATOM      8  C   UNL     1       2.680   7.302  18.540  0.00  0.00    +0.000 A 
ATOM      9  C   UNL     1       3.518   7.398  17.491  0.00  0.00    +0.000 A 
ATOM     10  C   UNL     1       4.299   6.247  17.048  0.00  0.00    +0.000 A 
ATOM     11  C   UNL     1       5.212   6.346  15.992  0.00  0.00    +0.000 A 
ATOM     12  C   UNL     1       5.911   5.216  15.556  0.00  0.00    +0.000 A 
ATOM     13  C   UNL     1       5.689   3.978  16.159  0.00  0.00    +0.000 A 
ATOM     14  C   UNL     1       4.790   3.874  17.219  0.00  0.00    +0.000 A 
ATOM     15  C   UNL     1       4.110   5.012  17.670  0.00  0.00    +0.000 A 
ATOM     16  C   UNL     1       3.211   4.925  18.844  0.00  0.00    +0.000 A 
ATOM     17  O   UNL     1       3.094   3.850  19.428  0.00  0.00    +0.000 OA
ENDBRANCH   1   8
BRANCH   3  18
ATOM     18  C   UNL     1      -0.216  10.459  20.807  0.00  0.00    +0.000 A 
ATOM     19  C   UNL     1      -1.061  11.631  20.558  0.00  0.00    +0.000 A 
ATOM     20  C   UNL     1      -1.810  12.186  21.523  0.00  0.00    +0.000 A 
ATOM     21  C   UNL     1      -1.793  11.608  22.888  0.00  0.00    +0.000 A 
ATOM     22  O   UNL     1      -2.459  12.092  23.795  0.00  0.00    +0.000 OA
ATOM     23  N   UNL     1      -0.985  10.512  23.056  0.00  0.00    +0.000 N 
ATOM     24  C   UNL     1      -0.225   9.952  22.057  0.00  0.00    +0.000 A 
ATOM     25  H   UNL     1      -0.966  10.118  23.989  0.00  0.00    +0.000 HD
ENDBRANCH   3  18
TORSDOF 2
ENDMDL
MODEL 8
REMARK VINA RESULT:      -8.0      2.494      8.135
REMARK  Name = 
REMARK  3 active torsions:
REMARK  status: ('A' for Active; 'I' for Inactive)
REMARK    1  A    between atoms: C_1  and  N_2
REMARK    2  A    between atoms: C_3  and  C_4
REMARK    3  A    between atoms: C_6  and  C_7
REMARK                            x       y       z     vdW  Elec       q    Type
REMARK                         _______ _______ _______ _____ _____    ______ ____
ROOT
ATOM      1  C   UNL     1       2.238   7.904  18.387  0.00  0.00    +0.000 A 
ATOM      2  N   UNL     1       1.713   8.394  19.498  0.00  0.00    +0.000 NA
ATOM      3  C   UNL     1       1.383   9.687  19.190  0.00  0.00    +0.000 A 
ATOM      4  N   UNL     1       1.680  10.031  17.932  0.00  0.00    +0.000 NA
ATOM      5  O   UNL     1       2.239   8.876  17.399  0.00  0.00    +0.000 OA
ENDROOT
BRANCH   1   8
ATOM      6  C   UNL     1       4.839   7.265  17.074  0.00  0.00    +0.000 C 
ATOM      7  N   UNL     1       3.951   6.261  17.642  0.00  0.00    +0.000 N 
ATOM      8  C   UNL     1       2.684   6.553  18.160  0.00  0.00    +0.000 A 
ATOM      9  C   UNL     1       1.849   5.564  18.532  0.00  0.00    +0.000 A 
ATOM     10  C   UNL     1       2.249   4.164  18.425  0.00  0.00    +0.000 A 
ATOM     11  C   UNL     1       1.372   3.126  18.758  0.00  0.00    +0.000 A 
ATOM     12  C   UNL     1       1.799   1.796  18.693  0.00  0.00    +0.000 A 
ATOM     13  C   UNL     1       3.106   1.496  18.312  0.00  0.00    +0.000 A 
ATOM     14  C   UNL     1       3.982   2.524  17.966  0.00  0.00    +0.000 A 
ATOM     15  C   UNL     1       3.545   3.854  18.008  0.00  0.00    +0.000 A 
ATOM     16  C   UNL     1       4.444   4.947  17.571  0.00  0.00    +0.000 A 
ATOM     17  O   UNL     1       5.563   4.666  17.147  0.00  0.00    +0.000 OA
ENDBRANCH   1   8
BRANCH   3  18
ATOM     18  C   UNL     1       0.754  10.509  20.189  0.00  0.00    +0.000 A 
ATOM     19  C   UNL     1       0.194   9.914  21.406  0.00  0.00    +0.000 A 
ATOM     20  C   UNL     1      -0.413  10.654  22.346  0.00  0.00    +0.000 A 
ATOM     21  C   UNL     1      -0.528  12.121  22.162  0.00  0.00    +0.000 A 
ATOM     22  O   UNL     1      -1.081  12.828  22.996  0.00  0.00    +0.000 OA
ATOM     23  N   UNL     1       0.018  12.616  21.005  0.00  0.00    +0.000 N 
ATOM     24  C   UNL     1       0.639  11.845  20.051  0.00  0.00    +0.000 A 
ATOM     25  H   UNL     1      -0.065  13.617  20.873  0.00  0.00    +0.000 HD
ENDBRANCH   3  18
TORSDOF 2
ENDMDL
MODEL 9
REMARK VINA RESULT:      -7.9      2.908      4.920
REMARK  Name = 
REMARK  3 active torsions:
REMARK  status: ('A' for Active; 'I' for Inactive)
REMARK    1  A    between atoms: C_1  and  N_2
REMARK    2  A    between atoms: C_3  and  C_4
REMARK    3  A    between atoms: C_6  and  C_7
REMARK                            x       y       z     vdW  Elec       q    Type
REMARK                         _______ _______ _______ _____ _____    ______ ____
ROOT
ATOM      1  C   UNL     1       4.887   6.410  17.167  0.00  0.00    +0.000 A 
ATOM      2  N   UNL     1       4.837   5.650  16.086  0.00  0.00    +0.000 NA
ATOM      3  C   UNL     1       6.123   5.626  15.614  0.00  0.00    +0.000 A 
ATOM      4  N   UNL     1       6.978   6.341  16.353  0.00  0.00    +0.000 NA
ATOM      5  O   UNL     1       6.183   6.858  17.368  0.00  0.00    +0.000 OA
ENDROOT
BRANCH   1   8
ATOM      6  C   UNL     1       3.998   4.492  19.272  0.00  0.00    +0.000 C 
ATOM      7  N   UNL     1       3.467   5.841  19.129  0.00  0.00    +0.000 N 
ATOM      8  C   UNL     1       3.808   6.699  18.077  0.00  0.00    +0.000 A 
ATOM      9  C   UNL     1       3.171   7.874  17.915  0.00  0.00    +0.000 A 
ATOM     10  C   UNL     1       2.125   8.294  18.842  0.00  0.00    +0.000 A 
ATOM     11  C   UNL     1       1.420   9.489  18.656  0.00  0.00    +0.000 A 
ATOM     12  C   UNL     1       0.457   9.891  19.587  0.00  0.00    +0.000 A 
ATOM     13  C   UNL     1       0.206   9.113  20.717  0.00  0.00    +0.000 A 
ATOM     14  C   UNL     1       0.896   7.916  20.903  0.00  0.00    +0.000 A 
ATOM     15  C   UNL     1       1.841   7.503  19.957  0.00  0.00    +0.000 A 
ATOM     16  C   UNL     1       2.524   6.198  20.107  0.00  0.00    +0.000 A 
ATOM     17  O   UNL     1       2.227   5.475  21.057  0.00  0.00    +0.000 OA
ENDBRANCH   1   8
BRANCH   3  18
ATOM     18  C   UNL     1       6.426   4.851  14.441  0.00  0.00    +0.000 A 
ATOM     19  C   UNL     1       7.414   5.321  13.465  0.00  0.00    +0.000 A 
ATOM     20  C   UNL     1       7.704   4.626  12.355  0.00  0.00    +0.000 A 
ATOM     21  C   UNL     1       7.013   3.341  12.093  0.00  0.00    +0.000 A 
ATOM     22  O   UNL     1       7.247   2.683  11.087  0.00  0.00    +0.000 OA
ATOM     23  N   UNL     1       6.102   2.955  13.044  0.00  0.00    +0.000 N 
ATOM     24  C   UNL     1       5.817   3.677  14.179  0.00  0.00    +0.000 A 
ATOM     25  H   UNL     1       5.623   2.081  12.865  0.00  0.00    +0.000 HD
ENDBRANCH   3  18
TORSDOF 2
ENDMDL
