MODEL 1
REMARK VINA RESULT:      -8.0      0.000      0.000
REMARK  Name = 
REMARK  4 active torsions:
REMARK  status: ('A' for Active; 'I' for Inactive)
REMARK    1  A    between atoms: C_1  and  C_2
REMARK    2  A    between atoms: N_4  and  C_5
REMARK    3  A    between atoms: C_10  and  C_11
REMARK    4  A    between atoms: C_21  and  C_22
REMARK                            x       y       z     vdW  Elec       q    Type
REMARK                         _______ _______ _______ _____ _____    ______ ____
ROOT
ATOM      1  C   UNL     1       4.295   6.738  17.538  0.00  0.00    +0.000 C 
ATOM      2  O   UNL     1       4.237   7.831  16.979  0.00  0.00    +0.000 OA
ATOM      3  N   UNL     1       3.464   6.359  18.603  0.00  0.00    +0.000 N 
ATOM      4  C   UNL     1       2.493   7.204  19.197  0.00  0.00    +0.000 A 
ATOM      5  C   UNL     1       2.042   8.453  18.789  0.00  0.00    +0.000 A 
ATOM      6  C   UNL     1       1.096   9.119  19.582  0.00  0.00    +0.000 A 
ATOM      7  C   UNL     1       0.616   8.541  20.767  0.00  0.00    +0.000 A 
ATOM      8  C   UNL     1       1.058   7.281  21.166  0.00  0.00    +0.000 A 
ATOM      9  C   UNL     1       1.979   6.625  20.361  0.00  0.00    +0.000 A 
ATOM     10  C   UNL     1       2.530   5.259  20.584  0.00  0.00    +0.000 C 
ATOM     11  C   UNL     1       3.617   5.174  19.503  0.00  0.00    +0.000 C 
ENDROOT
BRANCH   1  17
ATOM     12  C   UNL     1       6.002   4.164  15.279  0.00  0.00    +0.000 A 
ATOM     13  C   UNL     1       7.212   3.998  15.953  0.00  0.00    +0.000 A 
ATOM     14  C   UNL     1       7.445   4.681  17.147  0.00  0.00    +0.000 A 
ATOM     15  C   UNL     1       6.486   5.561  17.646  0.00  0.00    +0.000 A 
ATOM     16  F   UNL     1       6.771   6.220  18.779  0.00  0.00    +0.000 F 
ATOM     17  C   UNL     1       5.279   5.770  16.969  0.00  0.00    +0.000 A 
ATOM     18  C   UNL     1       5.035   5.031  15.806  0.00  0.00    +0.000 A 
BRANCH  12  22
ATOM     19  C   UNL     1       5.741   2.795  11.781  0.00  0.00    +0.000 C 
ATOM     20  C   UNL     1       6.293   3.701  12.855  0.00  0.00    +0.000 C 
ATOM     21  O   UNL     1       7.212   4.473  12.611  0.00  0.00    +0.000 OA
ATOM     22  N   UNL     1       5.682   3.507  14.076  0.00  0.00    +0.000 N 
ATOM     23  H   UNL     1       5.000   2.760  14.128  0.00  0.00    +0.000 HD
ENDBRANCH  12  22
ENDBRANCH   1  17
BRANCH  11  24
ATOM     24  C   UNL     1       3.513   3.828  18.786  0.00  0.00    +0.000 C 
ATOM     25  N   UNL     1       4.520   2.936  19.005  0.00  0.00    +0.000 N 
ATOM     26  O   UNL     1       2.615   3.585  17.984  0.00  0.00    +0.000 OA
ATOM     27  H   UNL     1       4.428   2.008  18.612  0.00  0.00    +0.000 HD
ATOM     28  H   UNL     1       5.216   3.086  19.728  0.00  0.00    +0.000 HD
ENDBRANCH  11  24
TORSDOF 3
ENDMDL
MODEL 2
REMARK VINA RESULT:      -7.1      2.208      6.815
REMARK  Name = 
REMARK  4 active torsions:
REMARK  status: ('A' for Active; 'I' for Inactive)
REMARK    1  A    between atoms: C_1  and  C_2
REMARK    2  A    between atoms: N_4  and  C_5
REMARK    3  A    between atoms: C_10  and  C_11
REMARK    4  A    between atoms: C_21  and  C_22
REMARK                            x       y       z     vdW  Elec       q    Type
REMARK                         _______ _______ _______ _____ _____    ______ ____
ROOT
ATOM      1  C   UNL     1       3.604   3.689  17.094  0.00  0.00    +0.000 C 
ATOM      2  O   UNL     1       2.757   3.247  16.321  0.00  0.00    +0.000 OA
ATOM      3  N   UNL     1       4.862   4.159  16.688  0.00  0.00    +0.000 N 
ATOM      4  C   UNL     1       5.330   4.137  15.350  0.00  0.00    +0.000 A 
ATOM      5  C   UNL     1       4.644   3.830  14.180  0.00  0.00    +0.000 A 
ATOM      6  C   UNL     1       5.346   3.833  12.967  0.00  0.00    +0.000 A 
ATOM      7  C   UNL     1       6.716   4.134  12.930  0.00  0.00    +0.000 A 
ATOM      8  C   UNL     1       7.399   4.456  14.102  0.00  0.00    +0.000 A 
ATOM      9  C   UNL     1       6.686   4.470  15.292  0.00  0.00    +0.000 A 
ATOM     10  C   UNL     1       7.217   4.839  16.635  0.00  0.00    +0.000 C 
ATOM     11  C   UNL     1       6.042   4.475  17.553  0.00  0.00    +0.000 C 
ENDROOT
BRANCH   1  17
ATOM     12  C   UNL     1       2.244   4.947  20.441  0.00  0.00    +0.000 A 
ATOM     13  C   UNL     1       2.423   3.811  21.230  0.00  0.00    +0.000 A 
ATOM     14  C   UNL     1       3.019   2.671  20.688  0.00  0.00    +0.000 A 
ATOM     15  C   UNL     1       3.398   2.653  19.347  0.00  0.00    +0.000 A 
ATOM     16  F   UNL     1       3.935   1.523  18.864  0.00  0.00    +0.000 F 
ATOM     17  C   UNL     1       3.197   3.768  18.527  0.00  0.00    +0.000 A 
ATOM     18  C   UNL     1       2.655   4.925  19.101  0.00  0.00    +0.000 A 
BRANCH  12  22
ATOM     19  C   UNL     1       1.005   8.445  21.075  0.00  0.00    +0.000 C 
ATOM     20  C   UNL     1       1.810   7.391  20.353  0.00  0.00    +0.000 C 
ATOM     21  O   UNL     1       2.470   7.679  19.362  0.00  0.00    +0.000 OA
ATOM     22  N   UNL     1       1.661   6.139  20.910  0.00  0.00    +0.000 N 
ATOM     23  H   UNL     1       1.002   6.058  21.675  0.00  0.00    +0.000 HD
ENDBRANCH  12  22
ENDBRANCH   1  17
BRANCH  11  24
ATOM     24  C   UNL     1       5.801   5.614  18.543  0.00  0.00    +0.000 C 
ATOM     25  N   UNL     1       5.329   6.785  18.030  0.00  0.00    +0.000 N 
ATOM     26  O   UNL     1       6.096   5.517  19.732  0.00  0.00    +0.000 OA
ATOM     27  H   UNL     1       5.079   7.523  18.677  0.00  0.00    +0.000 HD
ATOM     28  H   UNL     1       4.999   6.852  17.072  0.00  0.00    +0.000 HD
ENDBRANCH  11  24
TORSDOF 3
ENDMDL
MODEL 3
REMARK VINA RESULT:      -6.9      6.593     11.357
REMARK  Name = 
REMARK  4 active torsions:
REMARK  status: ('A' for Active; 'I' for Inactive)
REMARK    1  A    between atoms: C_1  and  C_2
REMARK    2  A    between atoms: N_4  and  C_5
REMARK    3  A    between atoms: C_10  and  C_11
REMARK    4  A    between atoms: C_21  and  C_22
REMARK                            x       y       z     vdW  Elec       q    Type
REMARK                         _______ _______ _______ _____ _____    ______ ____
ROOT
ATOM      1  C   UNL     1      -0.402  11.098  22.132  0.00  0.00    +0.000 C 
ATOM      2  O   UNL     1      -0.174  10.405  23.121  0.00  0.00    +0.000 OA
ATOM      3  N   UNL     1      -0.030  10.744  20.826  0.00  0.00    +0.000 N 
ATOM      4  C   UNL     1       0.694   9.572  20.493  0.00  0.00    +0.000 A 
ATOM      5  C   UNL     1       1.033   8.486  21.292  0.00  0.00    +0.000 A 
ATOM      6  C   UNL     1       1.805   7.456  20.736  0.00  0.00    +0.000 A 
ATOM      7  C   UNL     1       2.231   7.518  19.401  0.00  0.00    +0.000 A 
ATOM      8  C   UNL     1       1.877   8.599  18.597  0.00  0.00    +0.000 A 
ATOM      9  C   UNL     1       1.096   9.601  19.154  0.00  0.00    +0.000 A 
ATOM     10  C   UNL     1       0.570  10.805  18.451  0.00  0.00    +0.000 C 
ATOM     11  C   UNL     1      -0.032  11.613  19.608  0.00  0.00    +0.000 C 
ENDROOT
BRANCH   1  17
ATOM     12  C   UNL     1      -3.248  13.548  22.865  0.00  0.00    +0.000 A 
ATOM     13  C   UNL     1      -2.547  14.753  22.881  0.00  0.00    +0.000 A 
ATOM     14  C   UNL     1      -1.178  14.768  22.612  0.00  0.00    +0.000 A 
ATOM     15  C   UNL     1      -0.502  13.574  22.368  0.00  0.00    +0.000 A 
ATOM     16  F   UNL     1       0.820  13.637  22.149  0.00  0.00    +0.000 F 
ATOM     17  C   UNL     1      -1.177  12.349  22.381  0.00  0.00    +0.000 A 
ATOM     18  C   UNL     1      -2.561  12.357  22.590  0.00  0.00    +0.000 A 
BRANCH  12  22
ATOM     19  C   UNL     1      -6.724  12.861  24.140  0.00  0.00    +0.000 C 
ATOM     20  C   UNL     1      -5.222  12.712  24.122  0.00  0.00    +0.000 C 
ATOM     21  O   UNL     1      -4.651  12.031  24.965  0.00  0.00    +0.000 OA
ATOM     22  N   UNL     1      -4.630  13.444  23.115  0.00  0.00    +0.000 N 
ATOM     23  H   UNL     1      -5.242  14.030  22.560  0.00  0.00    +0.000 HD
ENDBRANCH  12  22
ENDBRANCH   1  17
BRANCH  11  24
ATOM     24  C   UNL     1      -1.416  12.120  19.206  0.00  0.00    +0.000 C 
ATOM     25  N   UNL     1      -1.542  13.461  18.995  0.00  0.00    +0.000 N 
ATOM     26  O   UNL     1      -2.393  11.377  19.154  0.00  0.00    +0.000 OA
ATOM     27  H   UNL     1      -2.426  13.807  18.643  0.00  0.00    +0.000 HD
ATOM     28  H   UNL     1      -0.732  14.071  18.947  0.00  0.00    +0.000 HD
ENDBRANCH  11  24
TORSDOF 3
ENDMDL
MODEL 4
REMARK VINA RESULT:      -6.9      6.803     11.603
REMARK  Name = 
REMARK  4 active torsions:
REMARK  status: ('A' for Active; 'I' for Inactive)
REMARK    1  A    between atoms: C_1  and  C_2
REMARK    2  A    between atoms: N_4  and  C_5
REMARK    3  A    between atoms: C_10  and  C_11
REMARK    4  A    between atoms: C_21  and  C_22
REMARK                            x       y       z     vdW  Elec       q    Type
REMARK                         _______ _______ _______ _____ _____    ______ ____
ROOT
ATOM      1  C   UNL     1      -0.524  11.109  22.269  0.00  0.00    +0.000 C 
ATOM      2  O   UNL     1      -0.101  10.337  23.126  0.00  0.00    +0.000 OA
ATOM      3  N   UNL     1      -0.288  10.957  20.894  0.00  0.00    +0.000 N 
ATOM      4  C   UNL     1       0.504   9.926  20.329  0.00  0.00    +0.000 A 
ATOM      5  C   UNL     1       1.054   8.803  20.935  0.00  0.00    +0.000 A 
ATOM      6  C   UNL     1       1.851   7.944  20.165  0.00  0.00    +0.000 A 
ATOM      7  C   UNL     1       2.094   8.211  18.810  0.00  0.00    +0.000 A 
ATOM      8  C   UNL     1       1.529   9.330  18.200  0.00  0.00    +0.000 A 
ATOM      9  C   UNL     1       0.726  10.160  18.969  0.00  0.00    +0.000 A 
ATOM     10  C   UNL     1      -0.007  11.366  18.494  0.00  0.00    +0.000 C 
ATOM     11  C   UNL     1      -0.536  11.956  19.808  0.00  0.00    +0.000 C 
ENDROOT
BRANCH   1  17
ATOM     12  C   UNL     1      -3.494  13.102  23.628  0.00  0.00    +0.000 A 
ATOM     13  C   UNL     1      -2.922  14.370  23.730  0.00  0.00    +0.000 A 
ATOM     14  C   UNL     1      -1.605  14.577  23.319  0.00  0.00    +0.000 A 
ATOM     15  C   UNL     1      -0.846  13.509  22.845  0.00  0.00    +0.000 A 
ATOM     16  F   UNL     1       0.425  13.752  22.494  0.00  0.00    +0.000 F 
ATOM     17  C   UNL     1      -1.386  12.221  22.766  0.00  0.00    +0.000 A 
ATOM     18  C   UNL     1      -2.728  12.041  23.124  0.00  0.00    +0.000 A 
BRANCH  12  22
ATOM     19  C   UNL     1      -7.208  12.581  23.958  0.00  0.00    +0.000 C 
ATOM     20  C   UNL     1      -5.954  13.075  23.279  0.00  0.00    +0.000 C 
ATOM     21  O   UNL     1      -6.008  13.610  22.178  0.00  0.00    +0.000 OA
ATOM     22  N   UNL     1      -4.816  12.808  24.011  0.00  0.00    +0.000 N 
ATOM     23  H   UNL     1      -4.940  12.272  24.861  0.00  0.00    +0.000 HD
ENDBRANCH  12  22
ENDBRANCH   1  17
BRANCH  11  24
ATOM     24  C   UNL     1      -2.005  12.339  19.637  0.00  0.00    +0.000 C 
ATOM     25  N   UNL     1      -2.312  13.663  19.738  0.00  0.00    +0.000 N 
ATOM     26  O   UNL     1      -2.887  11.494  19.498  0.00  0.00    +0.000 OA
ATOM     27  H   UNL     1      -3.263  13.949  19.540  0.00  0.00    +0.000 HD
ATOM     28  H   UNL     1      -1.590  14.376  19.762  0.00  0.00    +0.000 HD
ENDBRANCH  11  24
TORSDOF 3
ENDMDL
MODEL 5
REMARK VINA RESULT:      -6.8      2.111      3.393
REMARK  Name = 
REMARK  4 active torsions:
REMARK  status: ('A' for Active; 'I' for Inactive)
REMARK    1  A    between atoms: C_1  and  C_2
REMARK    2  A    between atoms: N_4  and  C_5
REMARK    3  A    between atoms: C_10  and  C_11
REMARK    4  A    between atoms: C_21  and  C_22
REMARK                            x       y       z     vdW  Elec       q    Type
REMARK                         _______ _______ _______ _____ _____    ______ ____
ROOT
ATOM      1  C   UNL     1       5.179   4.029  18.792  0.00  0.00    +0.000 C 
ATOM      2  O   UNL     1       5.788   3.232  19.502  0.00  0.00    +0.000 OA
ATOM      3  N   UNL     1       3.814   4.319  18.936  0.00  0.00    +0.000 N 
ATOM      4  C   UNL     1       2.960   3.695  19.880  0.00  0.00    +0.000 A 
ATOM      5  C   UNL     1       3.279   2.840  20.928  0.00  0.00    +0.000 A 
ATOM      6  C   UNL     1       2.239   2.309  21.704  0.00  0.00    +0.000 A 
ATOM      7  C   UNL     1       0.901   2.629  21.429  0.00  0.00    +0.000 A 
ATOM      8  C   UNL     1       0.584   3.499  20.387  0.00  0.00    +0.000 A 
ATOM      9  C   UNL     1       1.625   4.033  19.641  0.00  0.00    +0.000 A 
ATOM     10  C   UNL     1       1.499   5.017  18.529  0.00  0.00    +0.000 C 
ATOM     11  C   UNL     1       2.934   5.066  17.984  0.00  0.00    +0.000 C 
ENDROOT
BRANCH   1  17
ATOM     12  C   UNL     1       6.794   5.105  15.495  0.00  0.00    +0.000 A 
ATOM     13  C   UNL     1       7.546   6.197  15.926  0.00  0.00    +0.000 A 
ATOM     14  C   UNL     1       7.560   6.546  17.277  0.00  0.00    +0.000 A 
ATOM     15  C   UNL     1       6.790   5.829  18.191  0.00  0.00    +0.000 A 
ATOM     16  F   UNL     1       6.810   6.224  19.472  0.00  0.00    +0.000 F 
ATOM     17  C   UNL     1       6.000   4.751  17.776  0.00  0.00    +0.000 A 
ATOM     18  C   UNL     1       6.045   4.375  16.428  0.00  0.00    +0.000 A 
BRANCH  12  22
ATOM     19  C   UNL     1       7.273   4.368  11.834  0.00  0.00    +0.000 C 
ATOM     20  C   UNL     1       7.593   5.049  13.143  0.00  0.00    +0.000 C 
ATOM     21  O   UNL     1       8.552   5.805  13.236  0.00  0.00    +0.000 OA
ATOM     22  N   UNL     1       6.732   4.680  14.154  0.00  0.00    +0.000 N 
ATOM     23  H   UNL     1       6.045   3.970  13.930  0.00  0.00    +0.000 HD
ENDBRANCH  12  22
ENDBRANCH   1  17
BRANCH  11  24
ATOM     24  C   UNL     1       3.343   6.522  17.768  0.00  0.00    +0.000 C 
ATOM     25  N   UNL     1       2.961   7.417  18.722  0.00  0.00    +0.000 N 
ATOM     26  O   UNL     1       3.917   6.893  16.746  0.00  0.00    +0.000 OA
ATOM     27  H   UNL     1       3.296   8.369  18.645  0.00  0.00    +0.000 HD
ATOM     28  H   UNL     1       2.568   7.114  19.608  0.00  0.00    +0.000 HD
ENDBRANCH  11  24
TORSDOF 3
ENDMDL
MODEL 6
REMARK VINA RESULT:      -6.7      4.439      8.516
REMARK  Name = 
REMARK  4 active torsions:
REMARK  status: ('A' for Active; 'I' for Inactive)
REMARK    1  A    between atoms: C_1  and  C_2
REMARK    2  A    between atoms: N_4  and  C_5
REMARK    3  A    between atoms: C_10  and  C_11
REMARK    4  A    between atoms: C_21  and  C_22
REMARK                            x       y       z     vdW  Elec       q    Type
REMARK                         _______ _______ _______ _____ _____    ______ ____
ROOT
ATOM      1  C   UNL     1       1.176   9.823  18.502  0.00  0.00    +0.000 C 
ATOM      2  O   UNL     1       1.719   9.937  17.406  0.00  0.00    +0.000 OA
ATOM      3  N   UNL     1       1.423   8.766  19.391  0.00  0.00    +0.000 N 
ATOM      4  C   UNL     1       2.289   7.677  19.115  0.00  0.00    +0.000 A 
ATOM      5  C   UNL     1       3.168   7.495  18.054  0.00  0.00    +0.000 A 
ATOM      6  C   UNL     1       3.891   6.296  17.977  0.00  0.00    +0.000 A 
ATOM      7  C   UNL     1       3.729   5.296  18.947  0.00  0.00    +0.000 A 
ATOM      8  C   UNL     1       2.859   5.487  20.019  0.00  0.00    +0.000 A 
ATOM      9  C   UNL     1       2.166   6.687  20.093  0.00  0.00    +0.000 A 
ATOM     10  C   UNL     1       1.236   7.102  21.181  0.00  0.00    +0.000 C 
ATOM     11  C   UNL     1       0.645   8.402  20.616  0.00  0.00    +0.000 C 
ENDROOT
BRANCH   1  17
ATOM     12  C   UNL     1      -1.966  11.906  19.155  0.00  0.00    +0.000 A 
ATOM     13  C   UNL     1      -1.397  13.064  19.684  0.00  0.00    +0.000 A 
ATOM     14  C   UNL     1      -0.010  13.178  19.783  0.00  0.00    +0.000 A 
ATOM     15  C   UNL     1       0.807  12.118  19.391  0.00  0.00    +0.000 A 
ATOM     16  F   UNL     1       2.132  12.263  19.537  0.00  0.00    +0.000 F 
ATOM     17  C   UNL     1       0.257  10.933  18.890  0.00  0.00    +0.000 A 
ATOM     18  C   UNL     1      -1.133  10.859  18.738  0.00  0.00    +0.000 A 
BRANCH  12  22
ATOM     19  C   UNL     1      -5.507  11.288  18.033  0.00  0.00    +0.000 C 
ATOM     20  C   UNL     1      -4.029  11.515  17.826  0.00  0.00    +0.000 C 
ATOM     21  O   UNL     1      -3.542  11.474  16.703  0.00  0.00    +0.000 OA
ATOM     22  N   UNL     1      -3.354  11.713  19.011  0.00  0.00    +0.000 N 
ATOM     23  H   UNL     1      -3.895  11.623  19.863  0.00  0.00    +0.000 HD
ENDBRANCH  12  22
ENDBRANCH   1  17
BRANCH  11  24
ATOM     24  C   UNL     1       0.653   9.476  21.702  0.00  0.00    +0.000 C 
ATOM     25  N   UNL     1      -0.558   9.863  22.193  0.00  0.00    +0.000 N 
ATOM     26  O   UNL     1       1.688  10.031  22.063  0.00  0.00    +0.000 OA
ATOM     27  H   UNL     1      -0.573  10.507  22.974  0.00  0.00    +0.000 HD
ATOM     28  H   UNL     1      -1.409   9.354  21.972  0.00  0.00    +0.000 HD
ENDBRANCH  11  24
TORSDOF 3
ENDMDL
MODEL 7
REMARK VINA RESULT:      -6.7      1.941      3.452
REMARK  Name = 
REMARK  4 active torsions:
REMARK  status: ('A' for Active; 'I' for Inactive)
REMARK    1  A    between atoms: C_1  and  C_2
REMARK    2  A    between atoms: N_4  and  C_5
REMARK    3  A    between atoms: C_10  and  C_11
REMARK    4  A    between atoms: C_21  and  C_22
REMARK                            x       y       z     vdW  Elec       q    Type
REMARK                         _______ _______ _______ _____ _____    ______ ____
ROOT
ATOM      1  C   UNL     1       4.703   3.418  17.183  0.00  0.00    +0.000 C 
ATOM      2  O   UNL     1       4.783   2.233  17.497  0.00  0.00    +0.000 OA
ATOM      3  N   UNL     1       4.075   4.395  17.970  0.00  0.00    +0.000 N 
ATOM      4  C   UNL     1       3.413   4.128  19.195  0.00  0.00    +0.000 A 
ATOM      5  C   UNL     1       3.379   2.958  19.944  0.00  0.00    +0.000 A 
ATOM      6  C   UNL     1       2.605   2.928  21.113  0.00  0.00    +0.000 A 
ATOM      7  C   UNL     1       1.875   4.055  21.520  0.00  0.00    +0.000 A 
ATOM      8  C   UNL     1       1.923   5.232  20.777  0.00  0.00    +0.000 A 
ATOM      9  C   UNL     1       2.708   5.253  19.633  0.00  0.00    +0.000 A 
ATOM     10  C   UNL     1       2.933   6.424  18.739  0.00  0.00    +0.000 C 
ATOM     11  C   UNL     1       3.705   5.789  17.573  0.00  0.00    +0.000 C 
ENDROOT
BRANCH   1  17
ATOM     12  C   UNL     1       5.418   4.162  13.498  0.00  0.00    +0.000 A 
ATOM     13  C   UNL     1       6.747   4.576  13.577  0.00  0.00    +0.000 A 
ATOM     14  C   UNL     1       7.409   4.569  14.805  0.00  0.00    +0.000 A 
ATOM     15  C   UNL     1       6.731   4.187  15.961  0.00  0.00    +0.000 A 
ATOM     16  F   UNL     1       7.401   4.229  17.122  0.00  0.00    +0.000 F 
ATOM     17  C   UNL     1       5.387   3.800  15.913  0.00  0.00    +0.000 A 
ATOM     18  C   UNL     1       4.755   3.753  14.664  0.00  0.00    +0.000 A 
BRANCH  12  22
ATOM     19  C   UNL     1       3.699   3.358  10.246  0.00  0.00    +0.000 C 
ATOM     20  C   UNL     1       4.632   3.085  11.402  0.00  0.00    +0.000 C 
ATOM     21  O   UNL     1       5.221   2.015  11.491  0.00  0.00    +0.000 OA
ATOM     22  N   UNL     1       4.679   4.129  12.300  0.00  0.00    +0.000 N 
ATOM     23  H   UNL     1       4.056   4.908  12.124  0.00  0.00    +0.000 HD
ENDBRANCH  12  22
ENDBRANCH   1  17
BRANCH  11  24
ATOM     24  C   UNL     1       4.900   6.673  17.217  0.00  0.00    +0.000 C 
ATOM     25  N   UNL     1       4.924   7.197  15.959  0.00  0.00    +0.000 N 
ATOM     26  O   UNL     1       5.840   6.842  17.990  0.00  0.00    +0.000 OA
ATOM     27  H   UNL     1       5.658   7.855  15.730  0.00  0.00    +0.000 HD
ATOM     28  H   UNL     1       4.118   7.141  15.344  0.00  0.00    +0.000 HD
ENDBRANCH  11  24
TORSDOF 3
ENDMDL
MODEL 8
REMARK VINA RESULT:      -6.6      4.428      8.837
REMARK  Name = 
REMARK  4 active torsions:
REMARK  status: ('A' for Active; 'I' for Inactive)
REMARK    1  A    between atoms: C_1  and  C_2
REMARK    2  A    between atoms: N_4  and  C_5
REMARK    3  A    between atoms: C_10  and  C_11
REMARK    4  A    between atoms: C_21  and  C_22
REMARK                            x       y       z     vdW  Elec       q    Type
REMARK                         _______ _______ _______ _____ _____    ______ ____
ROOT
ATOM      1  C   UNL     1       1.454   9.685  18.482  0.00  0.00    +0.000 C 
ATOM      2  O   UNL     1       2.032   9.762  17.401  0.00  0.00    +0.000 OA
ATOM      3  N   UNL     1       1.593   8.606  19.368  0.00  0.00    +0.000 N 
ATOM      4  C   UNL     1       2.374   7.452  19.105  0.00  0.00    +0.000 A 
ATOM      5  C   UNL     1       3.262   7.206  18.065  0.00  0.00    +0.000 A 
ATOM      6  C   UNL     1       3.887   5.953  17.995  0.00  0.00    +0.000 A 
ATOM      7  C   UNL     1       3.621   4.963  18.953  0.00  0.00    +0.000 A 
ATOM      8  C   UNL     1       2.742   5.217  20.004  0.00  0.00    +0.000 A 
ATOM      9  C   UNL     1       2.147   6.468  20.071  0.00  0.00    +0.000 A 
ATOM     10  C   UNL     1       1.227   6.951  21.139  0.00  0.00    +0.000 C 
ATOM     11  C   UNL     1       0.757   8.298  20.570  0.00  0.00    +0.000 C 
ENDROOT
BRANCH   1  17
ATOM     12  C   UNL     1       0.327  13.090  19.816  0.00  0.00    +0.000 A 
ATOM     13  C   UNL     1      -1.027  13.055  19.487  0.00  0.00    +0.000 A 
ATOM     14  C   UNL     1      -1.570  11.920  18.881  0.00  0.00    +0.000 A 
ATOM     15  C   UNL     1      -0.750  10.837  18.568  0.00  0.00    +0.000 A 
ATOM     16  F   UNL     1      -1.312   9.785  17.956  0.00  0.00    +0.000 F 
ATOM     17  C   UNL     1       0.619  10.864  18.856  0.00  0.00    +0.000 A 
ATOM     18  C   UNL     1       1.135  11.983  19.520  0.00  0.00    +0.000 A 
BRANCH  12  22
ATOM     19  C   UNL     1       1.712  15.731  22.114  0.00  0.00    +0.000 C 
ATOM     20  C   UNL     1       0.878  14.521  21.771  0.00  0.00    +0.000 C 
ATOM     21  O   UNL     1       0.258  13.922  22.641  0.00  0.00    +0.000 OA
ATOM     22  N   UNL     1       0.953  14.189  20.435  0.00  0.00    +0.000 N 
ATOM     23  H   UNL     1       1.587  14.736  19.866  0.00  0.00    +0.000 HD
ENDBRANCH  12  22
ENDBRANCH   1  17
BRANCH  11  24
ATOM     24  C   UNL     1       0.824   9.361  21.665  0.00  0.00    +0.000 C 
ATOM     25  N   UNL     1      -0.357   9.919  22.054  0.00  0.00    +0.000 N 
ATOM     26  O   UNL     1       1.893   9.761  22.121  0.00  0.00    +0.000 OA
ATOM     27  H   UNL     1      -0.347  10.560  22.838  0.00  0.00    +0.000 HD
ATOM     28  H   UNL     1      -1.249   9.539  21.754  0.00  0.00    +0.000 HD
ENDBRANCH  11  24
TORSDOF 3
ENDMDL
MODEL 9
REMARK VINA RESULT:      -6.6      4.604      8.904
REMARK  Name = 
REMARK  4 active torsions:
REMARK  status: ('A' for Active; 'I' for Inactive)
REMARK    1  A    between atoms: C_1  and  C_2
REMARK    2  A    between atoms: N_4  and  C_5
REMARK    3  A    between atoms: C_10  and  C_11
REMARK    4  A    between atoms: C_21  and  C_22
REMARK                            x       y       z     vdW  Elec       q    Type
REMARK                         _______ _______ _______ _____ _____    ______ ____
ROOT
ATOM      1  C   UNL     1       1.273  10.020  18.446  0.00  0.00    +0.000 C 
ATOM      2  O   UNL     1       1.845  10.062  17.359  0.00  0.00    +0.000 OA
ATOM      3  N   UNL     1       1.413   8.967  19.363  0.00  0.00    +0.000 N 
ATOM      4  C   UNL     1       2.190   7.804  19.131  0.00  0.00    +0.000 A 
ATOM      5  C   UNL     1       3.071   7.524  18.094  0.00  0.00    +0.000 A 
ATOM      6  C   UNL     1       3.692   6.267  18.059  0.00  0.00    +0.000 A 
ATOM      7  C   UNL     1       3.429   5.307  19.047  0.00  0.00    +0.000 A 
ATOM      8  C   UNL     1       2.557   5.596  20.095  0.00  0.00    +0.000 A 
ATOM      9  C   UNL     1       1.965   6.850  20.128  0.00  0.00    +0.000 A 
ATOM     10  C   UNL     1       1.052   7.368  21.186  0.00  0.00    +0.000 C 
ATOM     11  C   UNL     1       0.583   8.698  20.579  0.00  0.00    +0.000 C 
ENDROOT
BRANCH   1  17
ATOM     12  C   UNL     1      -1.697  12.370  18.991  0.00  0.00    +0.000 A 
ATOM     13  C   UNL     1      -1.042  13.491  19.499  0.00  0.00    +0.000 A 
ATOM     14  C   UNL     1       0.348  13.494  19.618  0.00  0.00    +0.000 A 
ATOM     15  C   UNL     1       1.080  12.361  19.268  0.00  0.00    +0.000 A 
ATOM     16  F   UNL     1       2.411  12.401  19.433  0.00  0.00    +0.000 F 
ATOM     17  C   UNL     1       0.443  11.211  18.789  0.00  0.00    +0.000 A 
ATOM     18  C   UNL     1      -0.946  11.247  18.616  0.00  0.00    +0.000 A 
BRANCH  12  22
ATOM     19  C   UNL     1      -5.449  12.319  19.302  0.00  0.00    +0.000 C 
ATOM     20  C   UNL     1      -4.036  12.407  19.827  0.00  0.00    +0.000 C 
ATOM     21  O   UNL     1      -3.823  12.605  21.017  0.00  0.00    +0.000 OA
ATOM     22  N   UNL     1      -3.093  12.286  18.829  0.00  0.00    +0.000 N 
ATOM     23  H   UNL     1      -3.442  12.220  17.881  0.00  0.00    +0.000 HD
ENDBRANCH  12  22
ENDBRANCH   1  17
BRANCH  11  24
ATOM     24  C   UNL     1       0.659   9.794  21.641  0.00  0.00    +0.000 C 
ATOM     25  N   UNL     1      -0.523  10.327  22.061  0.00  0.00    +0.000 N 
ATOM     26  O   UNL     1       1.732  10.239  22.043  0.00  0.00    +0.000 OA
ATOM     27  H   UNL     1      -0.502  10.990  22.825  0.00  0.00    +0.000 HD
ATOM     28  H   UNL     1      -1.414   9.911  21.807  0.00  0.00    +0.000 HD
ENDBRANCH  11  24
TORSDOF 3
ENDMDL
