MODEL 1
REMARK VINA RESULT:      -8.8      0.000      0.000
REMARK  Name = 
REMARK  5 active torsions:
REMARK  status: ('A' for Active; 'I' for Inactive)
REMARK    1  A    between atoms: C_2  and  O_5
REMARK    2  A    between atoms: O_5  and  C_6
REMARK    3  A    between atoms: C_10  and  C_11
REMARK    4  A    between atoms: C_11  and  C_12
REMARK    5  A    between atoms: C_14  and  C_15
REMARK                            x       y       z     vdW  Elec       q    Type
REMARK                         _______ _______ _______ _____ _____    ______ ____
ROOT
ATOM      1  C   UNL     1       2.426   4.837  19.705  0.00  0.00    +0.000 C 
ATOM      2  C   UNL     1       1.324   3.858  19.155  0.00  0.00    +0.000 C 
ATOM      3  C   UNL     1       1.705   2.878  20.280  0.00  0.00    +0.000 C 
ATOM      4  C   UNL     1       2.251   4.090  21.068  0.00  0.00    +0.000 C 
ENDROOT
BRANCH   1   9
ATOM      5  C   UNL     1       1.484   8.522  20.746  0.00  0.00    +0.000 A 
ATOM      6  C   UNL     1       1.496   9.187  19.529  0.00  0.00    +0.000 A 
ATOM      7  C   UNL     1       1.842   8.499  18.372  0.00  0.00    +0.000 A 
ATOM      8  C   UNL     1       2.145   7.136  18.429  0.00  0.00    +0.000 A 
ATOM      9  C   UNL     1       2.086   6.404  19.634  0.00  0.00    +0.000 A 
ATOM     10  C   UNL     1       1.731   7.141  20.786  0.00  0.00    +0.000 A 
BRANCH   5  11
ATOM     11  O   UNL     1       1.143   9.110  21.928  0.00  0.00    +0.000 OA
BRANCH  11  13
ATOM     12  F   UNL     1      -0.812  10.333  21.551  0.00  0.00    +0.000 F 
ATOM     13  C   UNL     1      -0.253   9.276  22.179  0.00  0.00    +0.000 C 
ATOM     14  F   UNL     1      -0.442   9.429  23.508  0.00  0.00    +0.000 F 
ATOM     15  F   UNL     1      -0.902   8.158  21.787  0.00  0.00    +0.000 F 
ENDBRANCH  11  13
ENDBRANCH   5  11
ENDBRANCH   1   9
BRANCH   1  16
ATOM     16  C   UNL     1       3.783   4.573  19.019  0.00  0.00    +0.000 A 
ATOM     17  N   UNL     1       3.986   4.700  17.725  0.00  0.00    +0.000 NA
ATOM     18  C   UNL     1       5.336   4.481  17.600  0.00  0.00    +0.000 A 
ATOM     19  N   UNL     1       5.957   4.232  18.762  0.00  0.00    +0.000 NA
ATOM     20  O   UNL     1       4.927   4.268  19.702  0.00  0.00    +0.000 OA
BRANCH  18  21
ATOM     21  C   UNL     1       5.993   4.558  16.319  0.00  0.00    +0.000 A 
ATOM     22  C   UNL     1       5.611   3.769  15.252  0.00  0.00    +0.000 A 
ATOM     23  N   UNL     1       6.179   3.822  14.027  0.00  0.00    +0.000 NA
ATOM     24  C   UNL     1       7.170   4.716  13.886  0.00  0.00    +0.000 A 
ATOM     25  N   UNL     1       7.635   5.532  14.845  0.00  0.00    +0.000 NA
ATOM     26  C   UNL     1       7.030   5.432  16.049  0.00  0.00    +0.000 A 
ENDBRANCH  18  21
ENDBRANCH   1  16
TORSDOF 5
ENDMDL
MODEL 2
REMARK VINA RESULT:      -8.8      4.950      8.034
REMARK  Name = 
REMARK  5 active torsions:
REMARK  status: ('A' for Active; 'I' for Inactive)
REMARK    1  A    between atoms: C_2  and  O_5
REMARK    2  A    between atoms: O_5  and  C_6
REMARK    3  A    between atoms: C_10  and  C_11
REMARK    4  A    between atoms: C_11  and  C_12
REMARK    5  A    between atoms: C_14  and  C_15
REMARK                            x       y       z     vdW  Elec       q    Type
REMARK                         _______ _______ _______ _____ _____    ______ ____
ROOT
ATOM      1  C   UNL     1       3.023   5.270  18.744  0.00  0.00    +0.000 C 
ATOM      2  C   UNL     1       2.738   4.324  19.969  0.00  0.00    +0.000 C 
ATOM      3  C   UNL     1       1.449   3.874  19.257  0.00  0.00    +0.000 C 
ATOM      4  C   UNL     1       2.107   4.301  17.925  0.00  0.00    +0.000 C 
ENDROOT
BRANCH   1   9
ATOM      5  C   UNL     1       6.274   5.777  16.571  0.00  0.00    +0.000 A 
ATOM      6  C   UNL     1       7.280   5.733  17.525  0.00  0.00    +0.000 A 
ATOM      7  C   UNL     1       6.949   5.589  18.867  0.00  0.00    +0.000 A 
ATOM      8  C   UNL     1       5.612   5.455  19.251  0.00  0.00    +0.000 A 
ATOM      9  C   UNL     1       4.560   5.430  18.310  0.00  0.00    +0.000 A 
ATOM     10  C   UNL     1       4.940   5.581  16.958  0.00  0.00    +0.000 A 
BRANCH   5  11
ATOM     11  O   UNL     1       6.504   5.900  15.232  0.00  0.00    +0.000 OA
BRANCH  11  13
ATOM     12  F   UNL     1       6.770   3.581  15.139  0.00  0.00    +0.000 F 
ATOM     13  C   UNL     1       6.441   4.701  14.460  0.00  0.00    +0.000 C 
ATOM     14  F   UNL     1       7.279   4.815  13.407  0.00  0.00    +0.000 F 
ATOM     15  F   UNL     1       5.185   4.555  13.985  0.00  0.00    +0.000 F 
ENDBRANCH  11  13
ENDBRANCH   5  11
ENDBRANCH   1   9
BRANCH   1  16
ATOM     16  C   UNL     1       2.404   6.665  18.976  0.00  0.00    +0.000 A 
ATOM     17  N   UNL     1       1.801   7.022  20.089  0.00  0.00    +0.000 NA
ATOM     18  C   UNL     1       1.526   8.351  19.881  0.00  0.00    +0.000 A 
ATOM     19  N   UNL     1       1.942   8.813  18.693  0.00  0.00    +0.000 NA
ATOM     20  O   UNL     1       2.503   7.693  18.080  0.00  0.00    +0.000 OA
BRANCH  18  21
ATOM     21  C   UNL     1       0.880   9.151  20.891  0.00  0.00    +0.000 A 
ATOM     22  C   UNL     1      -0.095  10.078  20.578  0.00  0.00    +0.000 A 
ATOM     23  N   UNL     1      -0.746  10.833  21.491  0.00  0.00    +0.000 NA
ATOM     24  C   UNL     1      -0.392  10.631  22.769  0.00  0.00    +0.000 A 
ATOM     25  N   UNL     1       0.542   9.767  23.199  0.00  0.00    +0.000 NA
ATOM     26  C   UNL     1       1.161   9.042  22.241  0.00  0.00    +0.000 A 
ENDBRANCH  18  21
ENDBRANCH   1  16
TORSDOF 5
ENDMDL
MODEL 3
REMARK VINA RESULT:      -8.7      4.751      7.900
REMARK  Name = 
REMARK  5 active torsions:
REMARK  status: ('A' for Active; 'I' for Inactive)
REMARK    1  A    between atoms: C_2  and  O_5
REMARK    2  A    between atoms: O_5  and  C_6
REMARK    3  A    between atoms: C_10  and  C_11
REMARK    4  A    between atoms: C_11  and  C_12
REMARK    5  A    between atoms: C_14  and  C_15
REMARK                            x       y       z     vdW  Elec       q    Type
REMARK                         _______ _______ _______ _____ _____    ______ ____
ROOT
ATOM      1  C   UNL     1       2.924   4.843  19.044  0.00  0.00    +0.000 C 
ATOM      2  C   UNL     1       2.619   4.019  20.348  0.00  0.00    +0.000 C 
ATOM      3  C   UNL     1       1.279   3.603  19.713  0.00  0.00    +0.000 C 
ATOM      4  C   UNL     1       1.918   3.877  18.333  0.00  0.00    +0.000 C 
ENDROOT
BRANCH   1   9
ATOM      5  C   UNL     1       6.160   4.415  16.831  0.00  0.00    +0.000 A 
ATOM      6  C   UNL     1       7.156   4.904  17.663  0.00  0.00    +0.000 A 
ATOM      7  C   UNL     1       6.821   5.416  18.911  0.00  0.00    +0.000 A 
ATOM      8  C   UNL     1       5.490   5.407  19.339  0.00  0.00    +0.000 A 
ATOM      9  C   UNL     1       4.452   4.862  18.554  0.00  0.00    +0.000 A 
ATOM     10  C   UNL     1       4.837   4.354  17.293  0.00  0.00    +0.000 A 
BRANCH   5  11
ATOM     11  O   UNL     1       6.397   3.881  15.599  0.00  0.00    +0.000 OA
BRANCH  11  13
ATOM     12  F   UNL     1       5.611   5.926  14.788  0.00  0.00    +0.000 F 
ATOM     13  C   UNL     1       6.036   4.683  14.475  0.00  0.00    +0.000 C 
ATOM     14  F   UNL     1       5.049   4.062  13.794  0.00  0.00    +0.000 F 
ATOM     15  F   UNL     1       7.106   4.794  13.658  0.00  0.00    +0.000 F 
ENDBRANCH  11  13
ENDBRANCH   5  11
ENDBRANCH   1   9
BRANCH   1  16
ATOM     16  C   UNL     1       2.407   6.291  19.179  0.00  0.00    +0.000 A 
ATOM     17  N   UNL     1       1.756   6.740  20.230  0.00  0.00    +0.000 NA
ATOM     18  C   UNL     1       1.608   8.077  19.956  0.00  0.00    +0.000 A 
ATOM     19  N   UNL     1       2.146   8.456  18.787  0.00  0.00    +0.000 NA
ATOM     20  O   UNL     1       2.656   7.270  18.258  0.00  0.00    +0.000 OA
BRANCH  18  21
ATOM     21  C   UNL     1       0.958   8.967  20.886  0.00  0.00    +0.000 A 
ATOM     22  C   UNL     1      -0.045   9.831  20.493  0.00  0.00    +0.000 A 
ATOM     23  N   UNL     1      -0.700  10.665  21.331  0.00  0.00    +0.000 NA
ATOM     24  C   UNL     1      -0.319  10.612  22.617  0.00  0.00    +0.000 A 
ATOM     25  N   UNL     1       0.644   9.822  23.120  0.00  0.00    +0.000 NA
ATOM     26  C   UNL     1       1.265   9.012  22.233  0.00  0.00    +0.000 A 
ENDBRANCH  18  21
ENDBRANCH   1  16
TORSDOF 5
ENDMDL
MODEL 4
REMARK VINA RESULT:      -8.7      4.745      7.920
REMARK  Name = 
REMARK  5 active torsions:
REMARK  status: ('A' for Active; 'I' for Inactive)
REMARK    1  A    between atoms: C_2  and  O_5
REMARK    2  A    between atoms: O_5  and  C_6
REMARK    3  A    between atoms: C_10  and  C_11
REMARK    4  A    between atoms: C_11  and  C_12
REMARK    5  A    between atoms: C_14  and  C_15
REMARK                            x       y       z     vdW  Elec       q    Type
REMARK                         _______ _______ _______ _____ _____    ______ ____
ROOT
ATOM      1  C   UNL     1       2.939   4.769  19.088  0.00  0.00    +0.000 C 
ATOM      2  C   UNL     1       2.686   3.987  20.430  0.00  0.00    +0.000 C 
ATOM      3  C   UNL     1       1.331   3.537  19.853  0.00  0.00    +0.000 C 
ATOM      4  C   UNL     1       1.922   3.770  18.444  0.00  0.00    +0.000 C 
ENDROOT
BRANCH   1   9
ATOM      5  C   UNL     1       6.103   4.320  16.776  0.00  0.00    +0.000 A 
ATOM      6  C   UNL     1       7.124   4.824  17.568  0.00  0.00    +0.000 A 
ATOM      7  C   UNL     1       6.828   5.353  18.819  0.00  0.00    +0.000 A 
ATOM      8  C   UNL     1       5.512   5.346  19.291  0.00  0.00    +0.000 A 
ATOM      9  C   UNL     1       4.451   4.786  18.548  0.00  0.00    +0.000 A 
ATOM     10  C   UNL     1       4.795   4.261  17.282  0.00  0.00    +0.000 A 
BRANCH   5  11
ATOM     11  O   UNL     1       6.300   3.768  15.545  0.00  0.00    +0.000 OA
BRANCH  11  13
ATOM     12  F   UNL     1       5.032   4.105  13.613  0.00  0.00    +0.000 F 
ATOM     13  C   UNL     1       5.998   4.593  14.420  0.00  0.00    +0.000 C 
ATOM     14  F   UNL     1       7.119   4.753  13.683  0.00  0.00    +0.000 F 
ATOM     15  F   UNL     1       5.608   5.808  14.862  0.00  0.00    +0.000 F 
ENDBRANCH  11  13
ENDBRANCH   5  11
ENDBRANCH   1   9
BRANCH   1  16
ATOM     16  C   UNL     1       2.412   6.216  19.191  0.00  0.00    +0.000 A 
ATOM     17  N   UNL     1       1.758   6.684  20.232  0.00  0.00    +0.000 NA
ATOM     18  C   UNL     1       1.600   8.013  19.928  0.00  0.00    +0.000 A 
ATOM     19  N   UNL     1       2.134   8.369  18.750  0.00  0.00    +0.000 NA
ATOM     20  O   UNL     1       2.652   7.176  18.248  0.00  0.00    +0.000 OA
BRANCH  18  21
ATOM     21  C   UNL     1       0.944   8.919  20.838  0.00  0.00    +0.000 A 
ATOM     22  C   UNL     1       1.244   8.947  22.185  0.00  0.00    +0.000 A 
ATOM     23  N   UNL     1       0.675   9.793  23.073  0.00  0.00    +0.000 NA
ATOM     24  C   UNL     1      -0.229  10.643  22.564  0.00  0.00    +0.000 A 
ATOM     25  N   UNL     1      -0.610  10.710  21.278  0.00  0.00    +0.000 NA
ATOM     26  C   UNL     1      -0.009   9.838  20.439  0.00  0.00    +0.000 A 
ENDBRANCH  18  21
ENDBRANCH   1  16
TORSDOF 5
ENDMDL
MODEL 5
REMARK VINA RESULT:      -8.5      4.885      7.676
REMARK  Name = 
REMARK  5 active torsions:
REMARK  status: ('A' for Active; 'I' for Inactive)
REMARK    1  A    between atoms: C_2  and  O_5
REMARK    2  A    between atoms: O_5  and  C_6
REMARK    3  A    between atoms: C_10  and  C_11
REMARK    4  A    between atoms: C_11  and  C_12
REMARK    5  A    between atoms: C_14  and  C_15
REMARK                            x       y       z     vdW  Elec       q    Type
REMARK                         _______ _______ _______ _____ _____    ______ ____
ROOT
ATOM      1  C   UNL     1       2.828   4.856  18.680  0.00  0.00    +0.000 C 
ATOM      2  C   UNL     1       2.602   3.465  19.378  0.00  0.00    +0.000 C 
ATOM      3  C   UNL     1       1.237   3.387  18.670  0.00  0.00    +0.000 C 
ATOM      4  C   UNL     1       1.800   4.360  17.609  0.00  0.00    +0.000 C 
ENDROOT
BRANCH   1   9
ATOM      5  C   UNL     1       5.961   5.704  16.440  0.00  0.00    +0.000 A 
ATOM      6  C   UNL     1       6.982   5.785  17.375  0.00  0.00    +0.000 A 
ATOM      7  C   UNL     1       6.694   5.619  18.725  0.00  0.00    +0.000 A 
ATOM      8  C   UNL     1       5.387   5.340  19.135  0.00  0.00    +0.000 A 
ATOM      9  C   UNL     1       4.328   5.185  18.215  0.00  0.00    +0.000 A 
ATOM     10  C   UNL     1       4.664   5.362  16.854  0.00  0.00    +0.000 A 
BRANCH   5  11
ATOM     11  O   UNL     1       6.151   5.837  15.096  0.00  0.00    +0.000 OA
BRANCH  11  13
ATOM     12  F   UNL     1       6.729   3.573  15.098  0.00  0.00    +0.000 F 
ATOM     13  C   UNL     1       6.338   4.631  14.355  0.00  0.00    +0.000 C 
ATOM     14  F   UNL     1       7.274   4.844  13.404  0.00  0.00    +0.000 F 
ATOM     15  F   UNL     1       5.178   4.313  13.741  0.00  0.00    +0.000 F 
ENDBRANCH  11  13
ENDBRANCH   5  11
ENDBRANCH   1   9
BRANCH   1  16
ATOM     16  C   UNL     1       2.299   6.005  19.566  0.00  0.00    +0.000 A 
ATOM     17  N   UNL     1       2.204   7.254  19.163  0.00  0.00    +0.000 NA
ATOM     18  C   UNL     1       1.589   7.875  20.223  0.00  0.00    +0.000 A 
ATOM     19  N   UNL     1       1.305   7.054  21.244  0.00  0.00    +0.000 NA
ATOM     20  O   UNL     1       1.795   5.818  20.822  0.00  0.00    +0.000 OA
BRANCH  18  21
ATOM     21  C   UNL     1       1.263   9.279  20.184  0.00  0.00    +0.000 A 
ATOM     22  C   UNL     1       1.029  10.008  21.333  0.00  0.00    +0.000 A 
ATOM     23  N   UNL     1       0.744  11.329  21.349  0.00  0.00    +0.000 NA
ATOM     24  C   UNL     1       0.701  11.927  20.149  0.00  0.00    +0.000 A 
ATOM     25  N   UNL     1       0.904  11.329  18.964  0.00  0.00    +0.000 NA
ATOM     26  C   UNL     1       1.182  10.007  19.011  0.00  0.00    +0.000 A 
ENDBRANCH  18  21
ENDBRANCH   1  16
TORSDOF 5
ENDMDL
MODEL 6
REMARK VINA RESULT:      -8.5      4.952      8.011
REMARK  Name = 
REMARK  5 active torsions:
REMARK  status: ('A' for Active; 'I' for Inactive)
REMARK    1  A    between atoms: C_2  and  O_5
REMARK    2  A    between atoms: O_5  and  C_6
REMARK    3  A    between atoms: C_10  and  C_11
REMARK    4  A    between atoms: C_11  and  C_12
REMARK    5  A    between atoms: C_14  and  C_15
REMARK                            x       y       z     vdW  Elec       q    Type
REMARK                         _______ _______ _______ _____ _____    ______ ____
ROOT
ATOM      1  C   UNL     1       3.006   5.316  18.816  0.00  0.00    +0.000 C 
ATOM      2  C   UNL     1       2.756   4.418  20.083  0.00  0.00    +0.000 C 
ATOM      3  C   UNL     1       1.449   3.939  19.424  0.00  0.00    +0.000 C 
ATOM      4  C   UNL     1       2.070   4.316  18.060  0.00  0.00    +0.000 C 
ENDROOT
BRANCH   1   9
ATOM      5  C   UNL     1       6.194   5.786  16.542  0.00  0.00    +0.000 A 
ATOM      6  C   UNL     1       7.227   5.735  17.465  0.00  0.00    +0.000 A 
ATOM      7  C   UNL     1       6.937   5.598  18.818  0.00  0.00    +0.000 A 
ATOM      8  C   UNL     1       5.611   5.479  19.242  0.00  0.00    +0.000 A 
ATOM      9  C   UNL     1       4.530   5.461  18.335  0.00  0.00    +0.000 A 
ATOM     10  C   UNL     1       4.870   5.604  16.971  0.00  0.00    +0.000 A 
BRANCH   5  11
ATOM     11  O   UNL     1       6.384   5.903  15.197  0.00  0.00    +0.000 OA
BRANCH  11  13
ATOM     12  F   UNL     1       5.138   4.386  13.930  0.00  0.00    +0.000 F 
ATOM     13  C   UNL     1       6.350   4.693  14.440  0.00  0.00    +0.000 C 
ATOM     14  F   UNL     1       6.743   3.671  15.232  0.00  0.00    +0.000 F 
ATOM     15  F   UNL     1       7.226   4.794  13.417  0.00  0.00    +0.000 F 
ENDBRANCH  11  13
ENDBRANCH   5  11
ENDBRANCH   1   9
BRANCH   1  16
ATOM     16  C   UNL     1       2.392   6.719  19.011  0.00  0.00    +0.000 A 
ATOM     17  N   UNL     1       1.744   7.089  20.095  0.00  0.00    +0.000 NA
ATOM     18  C   UNL     1       1.492   8.419  19.867  0.00  0.00    +0.000 A 
ATOM     19  N   UNL     1       1.963   8.869  18.694  0.00  0.00    +0.000 NA
ATOM     20  O   UNL     1       2.539   7.739  18.114  0.00  0.00    +0.000 OA
BRANCH  18  21
ATOM     21  C   UNL     1       0.810   9.232  20.843  0.00  0.00    +0.000 A 
ATOM     22  C   UNL     1       0.018   8.681  21.830  0.00  0.00    +0.000 A 
ATOM     23  N   UNL     1      -0.620   9.399  22.781  0.00  0.00    +0.000 NA
ATOM     24  C   UNL     1      -0.440  10.727  22.723  0.00  0.00    +0.000 A 
ATOM     25  N   UNL     1       0.298  11.381  21.812  0.00  0.00    +0.000 NA
ATOM     26  C   UNL     1       0.910  10.611  20.885  0.00  0.00    +0.000 A 
ENDBRANCH  18  21
ENDBRANCH   1  16
TORSDOF 5
ENDMDL
MODEL 7
REMARK VINA RESULT:      -8.5      4.859      7.634
REMARK  Name = 
REMARK  5 active torsions:
REMARK  status: ('A' for Active; 'I' for Inactive)
REMARK    1  A    between atoms: C_2  and  O_5
REMARK    2  A    between atoms: O_5  and  C_6
REMARK    3  A    between atoms: C_10  and  C_11
REMARK    4  A    between atoms: C_11  and  C_12
REMARK    5  A    between atoms: C_14  and  C_15
REMARK                            x       y       z     vdW  Elec       q    Type
REMARK                         _______ _______ _______ _____ _____    ______ ____
ROOT
ATOM      1  C   UNL     1       2.909   4.746  18.665  0.00  0.00    +0.000 C 
ATOM      2  C   UNL     1       2.702   3.327  19.312  0.00  0.00    +0.000 C 
ATOM      3  C   UNL     1       1.350   3.245  18.579  0.00  0.00    +0.000 C 
ATOM      4  C   UNL     1       1.909   4.265  17.562  0.00  0.00    +0.000 C 
ENDROOT
BRANCH   1   9
ATOM      5  C   UNL     1       6.058   5.730  16.505  0.00  0.00    +0.000 A 
ATOM      6  C   UNL     1       7.062   5.804  17.459  0.00  0.00    +0.000 A 
ATOM      7  C   UNL     1       6.756   5.590  18.798  0.00  0.00    +0.000 A 
ATOM      8  C   UNL     1       5.450   5.270  19.178  0.00  0.00    +0.000 A 
ATOM      9  C   UNL     1       4.409   5.121  18.236  0.00  0.00    +0.000 A 
ATOM     10  C   UNL     1       4.763   5.348  16.887  0.00  0.00    +0.000 A 
BRANCH   5  11
ATOM     11  O   UNL     1       6.268   5.909  15.170  0.00  0.00    +0.000 OA
BRANCH  11  13
ATOM     12  F   UNL     1       7.291   4.853  13.354  0.00  0.00    +0.000 F 
ATOM     13  C   UNL     1       6.427   4.727  14.384  0.00  0.00    +0.000 C 
ATOM     14  F   UNL     1       5.224   4.371  13.882  0.00  0.00    +0.000 F 
ATOM     15  F   UNL     1       6.863   3.729  15.183  0.00  0.00    +0.000 F 
ENDBRANCH  11  13
ENDBRANCH   5  11
ENDBRANCH   1   9
BRANCH   1  16
ATOM     16  C   UNL     1       2.343   5.852  19.581  0.00  0.00    +0.000 A 
ATOM     17  N   UNL     1       2.261   7.118  19.233  0.00  0.00    +0.000 NA
ATOM     18  C   UNL     1       1.603   7.690  20.294  0.00  0.00    +0.000 A 
ATOM     19  N   UNL     1       1.280   6.822  21.265  0.00  0.00    +0.000 NA
ATOM     20  O   UNL     1       1.790   5.608  20.806  0.00  0.00    +0.000 OA
BRANCH  18  21
ATOM     21  C   UNL     1       1.275   9.093  20.306  0.00  0.00    +0.000 A 
ATOM     22  C   UNL     1       1.121   9.819  19.142  0.00  0.00    +0.000 A 
ATOM     23  N   UNL     1       0.791  11.129  19.101  0.00  0.00    +0.000 NA
ATOM     24  C   UNL     1       0.608  11.718  20.293  0.00  0.00    +0.000 A 
ATOM     25  N   UNL     1       0.734  11.124  21.491  0.00  0.00    +0.000 NA
ATOM     26  C   UNL     1       1.068   9.815  21.468  0.00  0.00    +0.000 A 
ENDBRANCH  18  21
ENDBRANCH   1  16
TORSDOF 5
ENDMDL
MODEL 8
REMARK VINA RESULT:      -8.4      3.516      6.836
REMARK  Name = 
REMARK  5 active torsions:
REMARK  status: ('A' for Active; 'I' for Inactive)
REMARK    1  A    between atoms: C_2  and  O_5
REMARK    2  A    between atoms: O_5  and  C_6
REMARK    3  A    between atoms: C_10  and  C_11
REMARK    4  A    between atoms: C_11  and  C_12
REMARK    5  A    between atoms: C_14  and  C_15
REMARK                            x       y       z     vdW  Elec       q    Type
REMARK                         _______ _______ _______ _____ _____    ______ ____
ROOT
ATOM      1  C   UNL     1       4.396   5.937  17.673  0.00  0.00    +0.000 C 
ATOM      2  C   UNL     1       5.094   6.115  16.275  0.00  0.00    +0.000 C 
ATOM      3  C   UNL     1       6.166   6.971  16.975  0.00  0.00    +0.000 C 
ATOM      4  C   UNL     1       5.801   6.244  18.289  0.00  0.00    +0.000 C 
ENDROOT
BRANCH   1   9
ATOM      5  C   UNL     1       2.916   2.790  19.533  0.00  0.00    +0.000 A 
ATOM      6  C   UNL     1       2.521   1.980  18.479  0.00  0.00    +0.000 A 
ATOM      7  C   UNL     1       2.673   2.428  17.172  0.00  0.00    +0.000 A 
ATOM      8  C   UNL     1       3.250   3.675  16.920  0.00  0.00    +0.000 A 
ATOM      9  C   UNL     1       3.725   4.507  17.957  0.00  0.00    +0.000 A 
ATOM     10  C   UNL     1       3.550   4.014  19.270  0.00  0.00    +0.000 A 
BRANCH   5  11
ATOM     11  O   UNL     1       2.820   2.428  20.844  0.00  0.00    +0.000 OA
BRANCH  11  13
ATOM     12  F   UNL     1       0.781   3.569  20.861  0.00  0.00    +0.000 F 
ATOM     13  C   UNL     1       1.781   3.045  21.603  0.00  0.00    +0.000 C 
ATOM     14  F   UNL     1       2.314   4.038  22.348  0.00  0.00    +0.000 F 
ATOM     15  F   UNL     1       1.251   2.129  22.442  0.00  0.00    +0.000 F 
ENDBRANCH  11  13
ENDBRANCH   5  11
ENDBRANCH   1   9
BRANCH   1  16
ATOM     16  C   UNL     1       3.354   7.051  17.909  0.00  0.00    +0.000 A 
ATOM     17  N   UNL     1       2.734   7.241  19.054  0.00  0.00    +0.000 NA
ATOM     18  C   UNL     1       2.010   8.386  18.829  0.00  0.00    +0.000 A 
ATOM     19  N   UNL     1       2.172   8.898  17.600  0.00  0.00    +0.000 NA
ATOM     20  O   UNL     1       3.043   8.003  16.980  0.00  0.00    +0.000 OA
BRANCH  18  21
ATOM     21  C   UNL     1       1.192   8.973  19.861  0.00  0.00    +0.000 A 
ATOM     22  C   UNL     1       1.241   8.536  21.170  0.00  0.00    +0.000 A 
ATOM     23  N   UNL     1       0.513   9.069  22.176  0.00  0.00    +0.000 NA
ATOM     24  C   UNL     1      -0.291  10.087  21.833  0.00  0.00    +0.000 A 
ATOM     25  N   UNL     1      -0.431  10.597  20.599  0.00  0.00    +0.000 NA
ATOM     26  C   UNL     1       0.320  10.021  19.634  0.00  0.00    +0.000 A 
ENDBRANCH  18  21
ENDBRANCH   1  16
TORSDOF 5
ENDMDL
MODEL 9
REMARK VINA RESULT:      -8.4      4.645      7.499
REMARK  Name = 
REMARK  5 active torsions:
REMARK  status: ('A' for Active; 'I' for Inactive)
REMARK    1  A    between atoms: C_2  and  O_5
REMARK    2  A    between atoms: O_5  and  C_6
REMARK    3  A    between atoms: C_10  and  C_11
REMARK    4  A    between atoms: C_11  and  C_12
REMARK    5  A    between atoms: C_14  and  C_15
REMARK                            x       y       z     vdW  Elec       q    Type
REMARK                         _______ _______ _______ _____ _____    ______ ____
ROOT
ATOM      1  C   UNL     1       3.189   4.197  18.676  0.00  0.00    +0.000 C 
ATOM      2  C   UNL     1       2.911   2.847  19.433  0.00  0.00    +0.000 C 
ATOM      3  C   UNL     1       1.602   2.726  18.632  0.00  0.00    +0.000 C 
ATOM      4  C   UNL     1       2.242   3.638  17.563  0.00  0.00    +0.000 C 
ENDROOT
BRANCH   1   9
ATOM      5  C   UNL     1       6.584   4.475  16.687  0.00  0.00    +0.000 A 
ATOM      6  C   UNL     1       7.429   5.054  17.622  0.00  0.00    +0.000 A 
ATOM      7  C   UNL     1       6.935   5.406  18.872  0.00  0.00    +0.000 A 
ATOM      8  C   UNL     1       5.601   5.148  19.199  0.00  0.00    +0.000 A 
ATOM      9  C   UNL     1       4.721   4.503  18.304  0.00  0.00    +0.000 A 
ATOM     10  C   UNL     1       5.263   4.164  17.044  0.00  0.00    +0.000 A 
BRANCH   5  11
ATOM     11  O   UNL     1       6.983   4.084  15.444  0.00  0.00    +0.000 OA
BRANCH  11  13
ATOM     12  F   UNL     1       5.668   5.855  14.674  0.00  0.00    +0.000 F 
ATOM     13  C   UNL     1       6.386   4.762  14.338  0.00  0.00    +0.000 C 
ATOM     14  F   UNL     1       5.567   3.904  13.691  0.00  0.00    +0.000 F 
ATOM     15  F   UNL     1       7.360   5.141  13.482  0.00  0.00    +0.000 F 
ENDBRANCH  11  13
ENDBRANCH   5  11
ENDBRANCH   1   9
BRANCH   1  16
ATOM     16  C   UNL     1       2.599   5.392  19.454  0.00  0.00    +0.000 A 
ATOM     17  N   UNL     1       2.494   6.607  18.959  0.00  0.00    +0.000 NA
ATOM     18  C   UNL     1       1.822   7.287  19.945  0.00  0.00    +0.000 A 
ATOM     19  N   UNL     1       1.512   6.534  21.011  0.00  0.00    +0.000 NA
ATOM     20  O   UNL     1       2.047   5.284  20.699  0.00  0.00    +0.000 OA
BRANCH  18  21
ATOM     21  C   UNL     1       1.468   8.676  19.791  0.00  0.00    +0.000 A 
ATOM     22  C   UNL     1       1.067   9.452  20.861  0.00  0.00    +0.000 A 
ATOM     23  N   UNL     1       0.749  10.762  20.772  0.00  0.00    +0.000 NA
ATOM     24  C   UNL     1       0.846  11.300  19.547  0.00  0.00    +0.000 A 
ATOM     25  N   UNL     1       1.217  10.652  18.430  0.00  0.00    +0.000 NA
ATOM     26  C   UNL     1       1.520   9.343  18.582  0.00  0.00    +0.000 A 
ENDBRANCH  18  21
ENDBRANCH   1  16
TORSDOF 5
ENDMDL
