MODEL 1
REMARK VINA RESULT:      -8.3      0.000      0.000
REMARK  Name = 
REMARK  5 active torsions:
REMARK  status: ('A' for Active; 'I' for Inactive)
REMARK    1  A    between atoms: C_2  and  C_4
REMARK    2  A    between atoms: C_7  and  C_8
REMARK    3  A    between atoms: N_11  and  C_12
REMARK    4  A    between atoms: C_12  and  C_13
REMARK    5  A    between atoms: C_18  and  C_19
REMARK                            x       y       z     vdW  Elec       q    Type
REMARK                         _______ _______ _______ _____ _____    ______ ____
ROOT
ATOM      1  C   UNL     1       2.614   6.477  19.514  0.00  0.00    +0.000 A 
ATOM      2  N   UNL     1       2.215   5.549  20.450  0.00  0.00    +0.000 NA
ATOM      3  N   UNL     1       2.970   4.477  20.284  0.00  0.00    +0.000 NA
ATOM      4  N   UNL     1       3.782   4.782  19.259  0.00  0.00    +0.000 N 
ATOM      5  N   UNL     1       3.624   6.026  18.744  0.00  0.00    +0.000 NA
ENDROOT
BRANCH   1   9
ATOM      6  C   UNL     1       0.829  10.357  19.192  0.00  0.00    +0.000 A 
ATOM      7  C   UNL     1       1.481   9.781  18.099  0.00  0.00    +0.000 A 
ATOM      8  C   UNL     1       2.048   8.507  18.215  0.00  0.00    +0.000 A 
ATOM      9  C   UNL     1       1.981   7.789  19.421  0.00  0.00    +0.000 A 
ATOM     10  C   UNL     1       1.324   8.373  20.512  0.00  0.00    +0.000 A 
ATOM     11  C   UNL     1       0.759   9.653  20.401  0.00  0.00    +0.000 A 
BRANCH   6  13
ATOM     12  N   UNL     1      -0.548  12.013  18.045  0.00  0.00    +0.000 N 
ATOM     13  C   UNL     1       0.245  11.722  19.121  0.00  0.00    +0.000 C 
ATOM     14  O   UNL     1       0.442  12.551  20.000  0.00  0.00    +0.000 OA
ATOM     15  H   UNL     1      -1.006  12.916  18.055  0.00  0.00    +0.000 HD
ATOM     16  H   UNL     1      -0.925  11.302  17.435  0.00  0.00    +0.000 HD
ENDBRANCH   6  13
ENDBRANCH   1   9
BRANCH   4  17
ATOM     17  C   UNL     1       4.891   3.918  18.898  0.00  0.00    +0.000 C 
BRANCH  17  18
ATOM     18  C   UNL     1       5.556   4.314  17.593  0.00  0.00    +0.000 A 
ATOM     19  C   UNL     1       4.941   3.867  16.403  0.00  0.00    +0.000 A 
ATOM     20  C   UNL     1       5.433   4.225  15.148  0.00  0.00    +0.000 A 
ATOM     21  C   UNL     1       6.555   5.035  15.050  0.00  0.00    +0.000 A 
ATOM     22  C   UNL     1       7.194   5.467  16.209  0.00  0.00    +0.000 A 
ATOM     23  C   UNL     1       6.722   5.113  17.494  0.00  0.00    +0.000 A 
BRANCH  23  24
ATOM     24  C   UNL     1       7.532   5.646  18.663  0.00  0.00    +0.000 C 
ATOM     25  F   UNL     1       6.831   5.850  19.805  0.00  0.00    +0.000 F 
ATOM     26  F   UNL     1       8.562   4.819  18.994  0.00  0.00    +0.000 F 
ATOM     27  F   UNL     1       8.106   6.849  18.373  0.00  0.00    +0.000 F 
ENDBRANCH  23  24
ENDBRANCH  17  18
ENDBRANCH   4  17
TORSDOF 5
ENDMDL
MODEL 2
REMARK VINA RESULT:      -8.2      0.392      1.042
REMARK  Name = 
REMARK  5 active torsions:
REMARK  status: ('A' for Active; 'I' for Inactive)
REMARK    1  A    between atoms: C_2  and  C_4
REMARK    2  A    between atoms: C_7  and  C_8
REMARK    3  A    between atoms: N_11  and  C_12
REMARK    4  A    between atoms: C_12  and  C_13
REMARK    5  A    between atoms: C_18  and  C_19
REMARK                            x       y       z     vdW  Elec       q    Type
REMARK                         _______ _______ _______ _____ _____    ______ ____
ROOT
ATOM      1  C   UNL     1       2.625   6.474  19.523  0.00  0.00    +0.000 A 
ATOM      2  N   UNL     1       2.213   5.542  20.450  0.00  0.00    +0.000 NA
ATOM      3  N   UNL     1       2.969   4.471  20.288  0.00  0.00    +0.000 NA
ATOM      4  N   UNL     1       3.794   4.780  19.275  0.00  0.00    +0.000 N 
ATOM      5  N   UNL     1       3.643   6.027  18.763  0.00  0.00    +0.000 NA
ENDROOT
BRANCH   1   9
ATOM      6  C   UNL     1       0.702  10.295  19.299  0.00  0.00    +0.000 A 
ATOM      7  C   UNL     1       0.678   9.555  20.483  0.00  0.00    +0.000 A 
ATOM      8  C   UNL     1       1.322   8.314  20.546  0.00  0.00    +0.000 A 
ATOM      9  C   UNL     1       1.994   7.788  19.429  0.00  0.00    +0.000 A 
ATOM     10  C   UNL     1       2.016   8.538  18.245  0.00  0.00    +0.000 A 
ATOM     11  C   UNL     1       1.366   9.780  18.177  0.00  0.00    +0.000 A 
BRANCH   6  13
ATOM     12  N   UNL     1       0.453  12.473  18.227  0.00  0.00    +0.000 N 
ATOM     13  C   UNL     1       0.001  11.601  19.179  0.00  0.00    +0.000 C 
ATOM     14  O   UNL     1      -0.959  11.881  19.884  0.00  0.00    +0.000 OA
ATOM     15  H   UNL     1      -0.087  13.320  18.101  0.00  0.00    +0.000 HD
ATOM     16  H   UNL     1       1.072  12.195  17.479  0.00  0.00    +0.000 HD
ENDBRANCH   6  13
ENDBRANCH   1   9
BRANCH   4  17
ATOM     17  C   UNL     1       4.907   3.916  18.923  0.00  0.00    +0.000 C 
BRANCH  17  18
ATOM     18  C   UNL     1       5.571   4.302  17.615  0.00  0.00    +0.000 A 
ATOM     19  C   UNL     1       4.954   3.851  16.428  0.00  0.00    +0.000 A 
ATOM     20  C   UNL     1       5.446   4.200  15.170  0.00  0.00    +0.000 A 
ATOM     21  C   UNL     1       6.570   5.005  15.067  0.00  0.00    +0.000 A 
ATOM     22  C   UNL     1       7.212   5.442  16.223  0.00  0.00    +0.000 A 
ATOM     23  C   UNL     1       6.740   5.096  17.510  0.00  0.00    +0.000 A 
BRANCH  23  24
ATOM     24  C   UNL     1       7.553   5.634  18.675  0.00  0.00    +0.000 C 
ATOM     25  F   UNL     1       6.865   5.801  19.831  0.00  0.00    +0.000 F 
ATOM     26  F   UNL     1       8.610   4.830  18.977  0.00  0.00    +0.000 F 
ATOM     27  F   UNL     1       8.090   6.856  18.395  0.00  0.00    +0.000 F 
ENDBRANCH  23  24
ENDBRANCH  17  18
ENDBRANCH   4  17
TORSDOF 5
ENDMDL
MODEL 3
REMARK VINA RESULT:      -8.0      5.461      6.756
REMARK  Name = 
REMARK  5 active torsions:
REMARK  status: ('A' for Active; 'I' for Inactive)
REMARK    1  A    between atoms: C_2  and  C_4
REMARK    2  A    between atoms: C_7  and  C_8
REMARK    3  A    between atoms: N_11  and  C_12
REMARK    4  A    between atoms: C_12  and  C_13
REMARK    5  A    between atoms: C_18  and  C_19
REMARK                            x       y       z     vdW  Elec       q    Type
REMARK                         _______ _______ _______ _____ _____    ______ ____
ROOT
ATOM      1  C   UNL     1       8.376   8.936  18.320  0.00  0.00    +0.000 A 
ATOM      2  N   UNL     1       7.502   8.860  17.258  0.00  0.00    +0.000 NA
ATOM      3  N   UNL     1       7.153   7.591  17.132  0.00  0.00    +0.000 NA
ATOM      4  N   UNL     1       7.827   6.950  18.099  0.00  0.00    +0.000 N 
ATOM      5  N   UNL     1       8.596   7.736  18.891  0.00  0.00    +0.000 NA
ENDROOT
BRANCH   1   9
ATOM      6  C   UNL     1      10.123  12.677  19.462  0.00  0.00    +0.000 A 
ATOM      7  C   UNL     1       9.552  12.515  18.198  0.00  0.00    +0.000 A 
ATOM      8  C   UNL     1       8.974  11.291  17.843  0.00  0.00    +0.000 A 
ATOM      9  C   UNL     1       8.960  10.208  18.739  0.00  0.00    +0.000 A 
ATOM     10  C   UNL     1       9.532  10.379  20.006  0.00  0.00    +0.000 A 
ATOM     11  C   UNL     1      10.119  11.603  20.363  0.00  0.00    +0.000 A 
BRANCH   6  13
ATOM     12  N   UNL     1       9.986  14.923  20.405  0.00  0.00    +0.000 N 
ATOM     13  C   UNL     1      10.781  13.948  19.865  0.00  0.00    +0.000 C 
ATOM     14  O   UNL     1      11.987  14.114  19.744  0.00  0.00    +0.000 OA
ATOM     15  H   UNL     1      10.461  15.748  20.751  0.00  0.00    +0.000 HD
ATOM     16  H   UNL     1       9.050  14.745  20.738  0.00  0.00    +0.000 HD
ENDBRANCH   6  13
ENDBRANCH   1   9
BRANCH   4  17
ATOM     17  C   UNL     1       7.558   5.554  18.401  0.00  0.00    +0.000 C 
BRANCH  17  18
ATOM     18  C   UNL     1       6.101   5.176  18.223  0.00  0.00    +0.000 A 
ATOM     19  C   UNL     1       5.251   5.365  19.335  0.00  0.00    +0.000 A 
ATOM     20  C   UNL     1       3.882   5.108  19.261  0.00  0.00    +0.000 A 
ATOM     21  C   UNL     1       3.328   4.650  18.075  0.00  0.00    +0.000 A 
ATOM     22  C   UNL     1       4.149   4.430  16.972  0.00  0.00    +0.000 A 
ATOM     23  C   UNL     1       5.541   4.675  17.021  0.00  0.00    +0.000 A 
BRANCH  23  24
ATOM     24  C   UNL     1       6.307   4.374  15.745  0.00  0.00    +0.000 C 
ATOM     25  F   UNL     1       7.656   4.353  15.873  0.00  0.00    +0.000 F 
ATOM     26  F   UNL     1       5.959   3.172  15.209  0.00  0.00    +0.000 F 
ATOM     27  F   UNL     1       6.052   5.297  14.773  0.00  0.00    +0.000 F 
ENDBRANCH  23  24
ENDBRANCH  17  18
ENDBRANCH   4  17
TORSDOF 5
ENDMDL
MODEL 4
REMARK VINA RESULT:      -8.0      5.324      6.747
REMARK  Name = 
REMARK  5 active torsions:
REMARK  status: ('A' for Active; 'I' for Inactive)
REMARK    1  A    between atoms: C_2  and  C_4
REMARK    2  A    between atoms: C_7  and  C_8
REMARK    3  A    between atoms: N_11  and  C_12
REMARK    4  A    between atoms: C_12  and  C_13
REMARK    5  A    between atoms: C_18  and  C_19
REMARK                            x       y       z     vdW  Elec       q    Type
REMARK                         _______ _______ _______ _____ _____    ______ ____
ROOT
ATOM      1  C   UNL     1       8.301   8.904  18.205  0.00  0.00    +0.000 A 
ATOM      2  N   UNL     1       7.388   8.806  17.177  0.00  0.00    +0.000 NA
ATOM      3  N   UNL     1       7.048   7.533  17.077  0.00  0.00    +0.000 NA
ATOM      4  N   UNL     1       7.765   6.909  18.025  0.00  0.00    +0.000 N 
ATOM      5  N   UNL     1       8.555   7.712  18.779  0.00  0.00    +0.000 NA
ENDROOT
BRANCH   1   9
ATOM      6  C   UNL     1       9.989  12.649  19.416  0.00  0.00    +0.000 A 
ATOM      7  C   UNL     1      10.117  11.517  20.224  0.00  0.00    +0.000 A 
ATOM      8  C   UNL     1       9.572  10.297  19.809  0.00  0.00    +0.000 A 
ATOM      9  C   UNL     1       8.885  10.186  18.588  0.00  0.00    +0.000 A 
ATOM     10  C   UNL     1       8.763  11.326  17.782  0.00  0.00    +0.000 A 
ATOM     11  C   UNL     1       9.303  12.552  18.198  0.00  0.00    +0.000 A 
BRANCH   6  13
ATOM     12  N   UNL     1      11.880  14.137  19.821  0.00  0.00    +0.000 N 
ATOM     13  C   UNL     1      10.522  13.972  19.836  0.00  0.00    +0.000 C 
ATOM     14  O   UNL     1       9.780  14.890  20.160  0.00  0.00    +0.000 OA
ATOM     15  H   UNL     1      12.222  15.067  20.028  0.00  0.00    +0.000 HD
ATOM     16  H   UNL     1      12.503  13.502  19.343  0.00  0.00    +0.000 HD
ENDBRANCH   6  13
ENDBRANCH   1   9
BRANCH   4  17
ATOM     17  C   UNL     1       7.523   5.515  18.351  0.00  0.00    +0.000 C 
BRANCH  17  18
ATOM     18  C   UNL     1       6.064   5.119  18.234  0.00  0.00    +0.000 A 
ATOM     19  C   UNL     1       5.254   5.322  19.372  0.00  0.00    +0.000 A 
ATOM     20  C   UNL     1       3.886   5.051  19.354  0.00  0.00    +0.000 A 
ATOM     21  C   UNL     1       3.293   4.565  18.198  0.00  0.00    +0.000 A 
ATOM     22  C   UNL     1       4.075   4.332  17.069  0.00  0.00    +0.000 A 
ATOM     23  C   UNL     1       5.465   4.591  17.063  0.00  0.00    +0.000 A 
BRANCH  23  24
ATOM     24  C   UNL     1       6.187   4.273  15.765  0.00  0.00    +0.000 C 
ATOM     25  F   UNL     1       7.535   4.415  15.805  0.00  0.00    +0.000 F 
ATOM     26  F   UNL     1       5.953   2.998  15.347  0.00  0.00    +0.000 F 
ATOM     27  F   UNL     1       5.771   5.076  14.745  0.00  0.00    +0.000 F 
ENDBRANCH  23  24
ENDBRANCH  17  18
ENDBRANCH   4  17
TORSDOF 5
ENDMDL
MODEL 5
REMARK VINA RESULT:      -7.9      3.141      4.274
REMARK  Name = 
REMARK  5 active torsions:
REMARK  status: ('A' for Active; 'I' for Inactive)
REMARK    1  A    between atoms: C_2  and  C_4
REMARK    2  A    between atoms: C_7  and  C_8
REMARK    3  A    between atoms: N_11  and  C_12
REMARK    4  A    between atoms: C_12  and  C_13
REMARK    5  A    between atoms: C_18  and  C_19
REMARK                            x       y       z     vdW  Elec       q    Type
REMARK                         _______ _______ _______ _____ _____    ______ ____
ROOT
ATOM      1  C   UNL     1       1.761   8.516  18.825  0.00  0.00    +0.000 A 
ATOM      2  N   UNL     1       2.466   8.438  17.644  0.00  0.00    +0.000 NA
ATOM      3  N   UNL     1       3.349   7.465  17.781  0.00  0.00    +0.000 NA
ATOM      4  N   UNL     1       3.161   7.001  19.026  0.00  0.00    +0.000 N 
ATOM      5  N   UNL     1       2.169   7.603  19.727  0.00  0.00    +0.000 NA
ENDROOT
BRANCH   1   9
ATOM      6  C   UNL     1      -1.381  11.356  19.466  0.00  0.00    +0.000 A 
ATOM      7  C   UNL     1      -0.480  11.049  20.488  0.00  0.00    +0.000 A 
ATOM      8  C   UNL     1       0.549  10.129  20.260  0.00  0.00    +0.000 A 
ATOM      9  C   UNL     1       0.694   9.496  19.014  0.00  0.00    +0.000 A 
ATOM     10  C   UNL     1      -0.213   9.810  17.993  0.00  0.00    +0.000 A 
ATOM     11  C   UNL     1      -1.249  10.728  18.220  0.00  0.00    +0.000 A 
BRANCH   6  13
ATOM     12  N   UNL     1      -3.535  12.269  18.771  0.00  0.00    +0.000 N 
ATOM     13  C   UNL     1      -2.510  12.300  19.678  0.00  0.00    +0.000 C 
ATOM     14  O   UNL     1      -2.541  13.059  20.636  0.00  0.00    +0.000 OA
ATOM     15  H   UNL     1      -4.333  12.856  18.976  0.00  0.00    +0.000 HD
ATOM     16  H   UNL     1      -3.664  11.510  18.117  0.00  0.00    +0.000 HD
ENDBRANCH   6  13
ENDBRANCH   1   9
BRANCH   4  17
ATOM     17  C   UNL     1       3.825   5.793  19.485  0.00  0.00    +0.000 C 
BRANCH  17  18
ATOM     18  C   UNL     1       3.242   4.528  18.886  0.00  0.00    +0.000 A 
ATOM     19  C   UNL     1       3.771   4.104  17.647  0.00  0.00    +0.000 A 
ATOM     20  C   UNL     1       3.350   2.922  17.039  0.00  0.00    +0.000 A 
ATOM     21  C   UNL     1       2.386   2.135  17.650  0.00  0.00    +0.000 A 
ATOM     22  C   UNL     1       1.829   2.544  18.859  0.00  0.00    +0.000 A 
ATOM     23  C   UNL     1       2.232   3.742  19.494  0.00  0.00    +0.000 A 
BRANCH  23  24
ATOM     24  C   UNL     1       1.524   4.063  20.799  0.00  0.00    +0.000 C 
ATOM     25  F   UNL     1       0.743   5.171  20.774  0.00  0.00    +0.000 F 
ATOM     26  F   UNL     1       0.722   3.044  21.213  0.00  0.00    +0.000 F 
ATOM     27  F   UNL     1       2.409   4.270  21.816  0.00  0.00    +0.000 F 
ENDBRANCH  23  24
ENDBRANCH  17  18
ENDBRANCH   4  17
TORSDOF 5
ENDMDL
MODEL 6
REMARK VINA RESULT:      -7.9      3.213      4.464
REMARK  Name = 
REMARK  5 active torsions:
REMARK  status: ('A' for Active; 'I' for Inactive)
REMARK    1  A    between atoms: C_2  and  C_4
REMARK    2  A    between atoms: C_7  and  C_8
REMARK    3  A    between atoms: N_11  and  C_12
REMARK    4  A    between atoms: C_12  and  C_13
REMARK    5  A    between atoms: C_18  and  C_19
REMARK                            x       y       z     vdW  Elec       q    Type
REMARK                         _______ _______ _______ _____ _____    ______ ____
ROOT
ATOM      1  C   UNL     1       1.201   8.671  20.432  0.00  0.00    +0.000 A 
ATOM      2  N   UNL     1       1.349   8.738  19.063  0.00  0.00    +0.000 NA
ATOM      3  N   UNL     1       2.200   7.788  18.717  0.00  0.00    +0.000 NA
ATOM      4  N   UNL     1       2.543   7.194  19.870  0.00  0.00    +0.000 N 
ATOM      5  N   UNL     1       1.939   7.686  20.980  0.00  0.00    +0.000 NA
ENDROOT
BRANCH   1   9
ATOM      6  C   UNL     1      -1.339  11.431  22.499  0.00  0.00    +0.000 A 
ATOM      7  C   UNL     1      -0.971  11.661  21.172  0.00  0.00    +0.000 A 
ATOM      8  C   UNL     1      -0.151  10.744  20.505  0.00  0.00    +0.000 A 
ATOM      9  C   UNL     1       0.320   9.587  21.150  0.00  0.00    +0.000 A 
ATOM     10  C   UNL     1      -0.057   9.363  22.481  0.00  0.00    +0.000 A 
ATOM     11  C   UNL     1      -0.874  10.283  23.154  0.00  0.00    +0.000 A 
BRANCH   6  13
ATOM     12  N   UNL     1      -3.416  11.976  23.658  0.00  0.00    +0.000 N 
ATOM     13  C   UNL     1      -2.179  12.398  23.255  0.00  0.00    +0.000 C 
ATOM     14  O   UNL     1      -1.776  13.520  23.530  0.00  0.00    +0.000 OA
ATOM     15  H   UNL     1      -3.940  12.615  24.243  0.00  0.00    +0.000 HD
ATOM     16  H   UNL     1      -3.689  11.004  23.663  0.00  0.00    +0.000 HD
ENDBRANCH   6  13
ENDBRANCH   1   9
BRANCH   4  17
ATOM     17  C   UNL     1       3.327   5.971  19.880  0.00  0.00    +0.000 C 
BRANCH  17  18
ATOM     18  C   UNL     1       2.541   4.756  19.423  0.00  0.00    +0.000 A 
ATOM     19  C   UNL     1       1.469   4.344  20.245  0.00  0.00    +0.000 A 
ATOM     20  C   UNL     1       0.644   3.278  19.888  0.00  0.00    +0.000 A 
ATOM     21  C   UNL     1       0.871   2.593  18.703  0.00  0.00    +0.000 A 
ATOM     22  C   UNL     1       1.938   2.964  17.888  0.00  0.00    +0.000 A 
ATOM     23  C   UNL     1       2.795   4.036  18.230  0.00  0.00    +0.000 A 
BRANCH  23  24
ATOM     24  C   UNL     1       3.923   4.312  17.251  0.00  0.00    +0.000 C 
ATOM     25  F   UNL     1       3.883   3.588  16.106  0.00  0.00    +0.000 F 
ATOM     26  F   UNL     1       3.964   5.619  16.870  0.00  0.00    +0.000 F 
ATOM     27  F   UNL     1       5.144   4.050  17.799  0.00  0.00    +0.000 F 
ENDBRANCH  23  24
ENDBRANCH  17  18
ENDBRANCH   4  17
TORSDOF 5
ENDMDL
MODEL 7
REMARK VINA RESULT:      -7.8      3.137      4.160
REMARK  Name = 
REMARK  5 active torsions:
REMARK  status: ('A' for Active; 'I' for Inactive)
REMARK    1  A    between atoms: C_2  and  C_4
REMARK    2  A    between atoms: C_7  and  C_8
REMARK    3  A    between atoms: N_11  and  C_12
REMARK    4  A    between atoms: C_12  and  C_13
REMARK    5  A    between atoms: C_18  and  C_19
REMARK                            x       y       z     vdW  Elec       q    Type
REMARK                         _______ _______ _______ _____ _____    ______ ____
ROOT
ATOM      1  C   UNL     1       1.860   8.392  18.906  0.00  0.00    +0.000 A 
ATOM      2  N   UNL     1       2.551   8.312  17.716  0.00  0.00    +0.000 NA
ATOM      3  N   UNL     1       3.422   7.326  17.837  0.00  0.00    +0.000 NA
ATOM      4  N   UNL     1       3.242   6.857  19.082  0.00  0.00    +0.000 N 
ATOM      5  N   UNL     1       2.266   7.467  19.797  0.00  0.00    +0.000 NA
ENDROOT
BRANCH   1   9
ATOM      6  C   UNL     1      -1.198  11.344  19.433  0.00  0.00    +0.000 A 
ATOM      7  C   UNL     1      -0.948  10.797  18.173  0.00  0.00    +0.000 A 
ATOM      8  C   UNL     1       0.046   9.824  18.018  0.00  0.00    +0.000 A 
ATOM      9  C   UNL     1       0.809   9.385  19.113  0.00  0.00    +0.000 A 
ATOM     10  C   UNL     1       0.550   9.937  20.375  0.00  0.00    +0.000 A 
ATOM     11  C   UNL     1      -0.441  10.917  20.533  0.00  0.00    +0.000 A 
BRANCH   6  13
ATOM     12  N   UNL     1      -1.775  13.698  19.716  0.00  0.00    +0.000 N 
ATOM     13  C   UNL     1      -2.219  12.406  19.635  0.00  0.00    +0.000 C 
ATOM     14  O   UNL     1      -3.412  12.145  19.700  0.00  0.00    +0.000 OA
ATOM     15  H   UNL     1      -2.488  14.415  19.768  0.00  0.00    +0.000 HD
ATOM     16  H   UNL     1      -0.847  13.977  19.432  0.00  0.00    +0.000 HD
ENDBRANCH   6  13
ENDBRANCH   1   9
BRANCH   4  17
ATOM     17  C   UNL     1       3.895   5.637  19.525  0.00  0.00    +0.000 C 
BRANCH  17  18
ATOM     18  C   UNL     1       3.272   4.382  18.945  0.00  0.00    +0.000 A 
ATOM     19  C   UNL     1       3.784   3.927  17.710  0.00  0.00    +0.000 A 
ATOM     20  C   UNL     1       3.326   2.750  17.119  0.00  0.00    +0.000 A 
ATOM     21  C   UNL     1       2.341   2.000  17.743  0.00  0.00    +0.000 A 
ATOM     22  C   UNL     1       1.801   2.441  18.949  0.00  0.00    +0.000 A 
ATOM     23  C   UNL     1       2.241   3.635  19.567  0.00  0.00    +0.000 A 
BRANCH  23  24
ATOM     24  C   UNL     1       1.549   3.994  20.870  0.00  0.00    +0.000 C 
ATOM     25  F   UNL     1       0.869   2.980  21.460  0.00  0.00    +0.000 F 
ATOM     26  F   UNL     1       2.422   4.459  21.805  0.00  0.00    +0.000 F 
ATOM     27  F   UNL     1       0.631   4.989  20.697  0.00  0.00    +0.000 F 
ENDBRANCH  23  24
ENDBRANCH  17  18
ENDBRANCH   4  17
TORSDOF 5
ENDMDL
MODEL 8
REMARK VINA RESULT:      -7.8      3.169      4.224
REMARK  Name = 
REMARK  5 active torsions:
REMARK  status: ('A' for Active; 'I' for Inactive)
REMARK    1  A    between atoms: C_2  and  C_4
REMARK    2  A    between atoms: C_7  and  C_8
REMARK    3  A    between atoms: N_11  and  C_12
REMARK    4  A    between atoms: C_12  and  C_13
REMARK    5  A    between atoms: C_18  and  C_19
REMARK                            x       y       z     vdW  Elec       q    Type
REMARK                         _______ _______ _______ _____ _____    ______ ____
ROOT
ATOM      1  C   UNL     1       1.590   8.627  18.979  0.00  0.00    +0.000 A 
ATOM      2  N   UNL     1       2.163   8.534  17.730  0.00  0.00    +0.000 NA
ATOM      3  N   UNL     1       3.065   7.570  17.786  0.00  0.00    +0.000 NA
ATOM      4  N   UNL     1       3.018   7.126  19.052  0.00  0.00    +0.000 N 
ATOM      5  N   UNL     1       2.102   7.733  19.847  0.00  0.00    +0.000 NA
ENDROOT
BRANCH   1   9
ATOM      6  C   UNL     1      -1.464  11.531  19.744  0.00  0.00    +0.000 A 
ATOM      7  C   UNL     1      -1.248  11.050  18.451  0.00  0.00    +0.000 A 
ATOM      8  C   UNL     1      -0.255  10.092  18.218  0.00  0.00    +0.000 A 
ATOM      9  C   UNL     1       0.541   9.602  19.267  0.00  0.00    +0.000 A 
ATOM     10  C   UNL     1       0.316  10.088  20.562  0.00  0.00    +0.000 A 
ATOM     11  C   UNL     1      -0.674  11.053  20.798  0.00  0.00    +0.000 A 
BRANCH   6  13
ATOM     12  N   UNL     1      -3.598  12.599  19.234  0.00  0.00    +0.000 N 
ATOM     13  C   UNL     1      -2.484  12.575  20.028  0.00  0.00    +0.000 C 
ATOM     14  O   UNL     1      -2.350  13.369  20.949  0.00  0.00    +0.000 OA
ATOM     15  H   UNL     1      -4.320  13.260  19.494  0.00  0.00    +0.000 HD
ATOM     16  H   UNL     1      -3.858  11.832  18.632  0.00  0.00    +0.000 HD
ENDBRANCH   6  13
ENDBRANCH   1   9
BRANCH   4  17
ATOM     17  C   UNL     1       3.740   5.932  19.456  0.00  0.00    +0.000 C 
BRANCH  17  18
ATOM     18  C   UNL     1       3.175   4.661  18.850  0.00  0.00    +0.000 A 
ATOM     19  C   UNL     1       3.689   4.270  17.594  0.00  0.00    +0.000 A 
ATOM     20  C   UNL     1       3.285   3.086  16.976  0.00  0.00    +0.000 A 
ATOM     21  C   UNL     1       2.353   2.266  17.595  0.00  0.00    +0.000 A 
ATOM     22  C   UNL     1       1.812   2.643  18.822  0.00  0.00    +0.000 A 
ATOM     23  C   UNL     1       2.198   3.841  19.467  0.00  0.00    +0.000 A 
BRANCH  23  24
ATOM     24  C   UNL     1       1.510   4.125  20.791  0.00  0.00    +0.000 C 
ATOM     25  F   UNL     1       0.704   5.214  20.800  0.00  0.00    +0.000 F 
ATOM     26  F   UNL     1       0.740   3.081  21.204  0.00  0.00    +0.000 F 
ATOM     27  F   UNL     1       2.411   4.336  21.793  0.00  0.00    +0.000 F 
ENDBRANCH  23  24
ENDBRANCH  17  18
ENDBRANCH   4  17
TORSDOF 5
ENDMDL
MODEL 9
REMARK VINA RESULT:      -7.7      4.390      7.750
REMARK  Name = 
REMARK  5 active torsions:
REMARK  status: ('A' for Active; 'I' for Inactive)
REMARK    1  A    between atoms: C_2  and  C_4
REMARK    2  A    between atoms: C_7  and  C_8
REMARK    3  A    between atoms: N_11  and  C_12
REMARK    4  A    between atoms: C_12  and  C_13
REMARK    5  A    between atoms: C_18  and  C_19
REMARK                            x       y       z     vdW  Elec       q    Type
REMARK                         _______ _______ _______ _____ _____    ______ ____
ROOT
ATOM      1  C   UNL     1       3.154   5.641  18.567  0.00  0.00    +0.000 A 
ATOM      2  N   UNL     1       2.152   4.756  18.899  0.00  0.00    +0.000 NA
ATOM      3  N   UNL     1       1.486   5.283  19.911  0.00  0.00    +0.000 NA
ATOM      4  N   UNL     1       2.104   6.447  20.163  0.00  0.00    +0.000 N 
ATOM      5  N   UNL     1       3.145   6.741  19.345  0.00  0.00    +0.000 NA
ENDROOT
BRANCH   1   9
ATOM      6  C   UNL     1       5.846   4.904  15.318  0.00  0.00    +0.000 A 
ATOM      7  C   UNL     1       5.511   6.210  15.681  0.00  0.00    +0.000 A 
ATOM      8  C   UNL     1       4.640   6.436  16.753  0.00  0.00    +0.000 A 
ATOM      9  C   UNL     1       4.085   5.366  17.476  0.00  0.00    +0.000 A 
ATOM     10  C   UNL     1       4.428   4.059  17.107  0.00  0.00    +0.000 A 
ATOM     11  C   UNL     1       5.297   3.828  16.029  0.00  0.00    +0.000 A 
BRANCH   6  13
ATOM     12  N   UNL     1       6.421   3.549  13.372  0.00  0.00    +0.000 N 
ATOM     13  C   UNL     1       6.738   4.619  14.164  0.00  0.00    +0.000 C 
ATOM     14  O   UNL     1       7.706   5.324  13.910  0.00  0.00    +0.000 OA
ATOM     15  H   UNL     1       6.987   3.420  12.543  0.00  0.00    +0.000 HD
ATOM     16  H   UNL     1       5.519   3.096  13.400  0.00  0.00    +0.000 HD
ENDBRANCH   6  13
ENDBRANCH   1   9
BRANCH   4  17
ATOM     17  C   UNL     1       1.542   7.409  21.095  0.00  0.00    +0.000 C 
BRANCH  17  18
ATOM     18  C   UNL     1       1.048   8.675  20.420  0.00  0.00    +0.000 A 
ATOM     19  C   UNL     1       1.451   8.884  19.083  0.00  0.00    +0.000 A 
ATOM     20  C   UNL     1       1.005   9.982  18.349  0.00  0.00    +0.000 A 
ATOM     21  C   UNL     1       0.148  10.903  18.934  0.00  0.00    +0.000 A 
ATOM     22  C   UNL     1      -0.243  10.733  20.259  0.00  0.00    +0.000 A 
ATOM     23  C   UNL     1       0.201   9.633  21.029  0.00  0.00    +0.000 A 
BRANCH  23  24
ATOM     24  C   UNL     1      -0.297   9.591  22.463  0.00  0.00    +0.000 C 
ATOM     25  F   UNL     1      -1.053   8.511  22.780  0.00  0.00    +0.000 F 
ATOM     26  F   UNL     1       0.725   9.614  23.363  0.00  0.00    +0.000 F 
ATOM     27  F   UNL     1      -1.073  10.672  22.761  0.00  0.00    +0.000 F 
ENDBRANCH  23  24
ENDBRANCH  17  18
ENDBRANCH   4  17
TORSDOF 5
ENDMDL
