MODEL 1
REMARK VINA RESULT:      -9.0      0.000      0.000
REMARK  Name = 
REMARK  5 active torsions:
REMARK  status: ('A' for Active; 'I' for Inactive)
REMARK    1  A    between atoms: C_1  and  C_2
REMARK    2  A    between atoms: C_7  and  N_8
REMARK    3  A    between atoms: C_9  and  C_11
REMARK    4  A    between atoms: C_13  and  C_14
REMARK    5  A    between atoms: C_23  and  C_24
REMARK                            x       y       z     vdW  Elec       q    Type
REMARK                         _______ _______ _______ _____ _____    ______ ____
ROOT
ATOM      1  C   UNL     1       2.763   6.657  18.601  0.00  0.00    +0.000 A 
ATOM      2  C   UNL     1       3.751   6.440  17.491  0.00  0.00    +0.000 A 
ATOM      3  C   UNL     1       4.329   5.230  17.426  0.00  0.00    +0.000 A 
ATOM      4  N   UNL     1       3.960   4.273  18.371  0.00  0.00    +0.000 N 
ATOM      5  C   UNL     1       4.408   2.991  18.565  0.00  0.00    +0.000 A 
ATOM      6  N   UNL     1       3.803   2.397  19.567  0.00  0.00    +0.000 NA
ATOM      7  C   UNL     1       2.909   3.344  20.067  0.00  0.00    +0.000 A 
ATOM      8  C   UNL     1       2.997   4.529  19.350  0.00  0.00    +0.000 A 
ATOM      9  N   UNL     1       2.390   5.754  19.464  0.00  0.00    +0.000 NA
ENDROOT
BRANCH   3  10
ATOM     10  C   UNL     1       5.313   4.987  16.359  0.00  0.00    +0.000 A 
ATOM     11  C   UNL     1       6.639   5.418  16.500  0.00  0.00    +0.000 A 
ATOM     12  C   UNL     1       7.552   5.241  15.458  0.00  0.00    +0.000 A 
ATOM     13  C   UNL     1       7.147   4.639  14.268  0.00  0.00    +0.000 A 
ATOM     14  C   UNL     1       5.827   4.211  14.119  0.00  0.00    +0.000 A 
ATOM     15  C   UNL     1       4.913   4.385  15.159  0.00  0.00    +0.000 A 
ENDBRANCH   3  10
BRANCH   7  16
ATOM     16  C   UNL     1       2.047   3.073  21.213  0.00  0.00    +0.000 C 
ATOM     17  N   UNL     1       0.715   3.125  20.910  0.00  0.00    +0.000 N 
ATOM     18  O   UNL     1       2.431   2.811  22.348  0.00  0.00    +0.000 OA
ATOM     19  H   UNL     1       0.432   3.306  19.954  0.00  0.00    +0.000 HD
ATOM     20  H   UNL     1       0.039   2.900  21.622  0.00  0.00    +0.000 HD
ENDBRANCH   7  16
BRANCH   1  22
ATOM     21  N   UNL     1       1.314   8.318  19.730  0.00  0.00    +0.000 N 
ATOM     22  C   UNL     1       2.201   8.072  18.694  0.00  0.00    +0.000 C 
ATOM     23  O   UNL     1       2.597   8.862  17.842  0.00  0.00    +0.000 OA
ATOM     24  H   UNL     1       1.085   7.516  20.313  0.00  0.00    +0.000 HD
BRANCH  21  31
ATOM     25  C   UNL     1       1.027   9.255  22.545  0.00  0.00    +0.000 C 
ATOM     26  C   UNL     1       0.544  10.023  21.343  0.00  0.00    +0.000 A 
ATOM     27  C   UNL     1      -0.073  11.271  21.583  0.00  0.00    +0.000 A 
ATOM     28  C   UNL     1      -0.534  12.068  20.537  0.00  0.00    +0.000 A 
ATOM     29  C   UNL     1      -0.368  11.636  19.233  0.00  0.00    +0.000 A 
ATOM     30  C   UNL     1       0.247  10.408  18.982  0.00  0.00    +0.000 A 
ATOM     31  C   UNL     1       0.705   9.574  20.016  0.00  0.00    +0.000 A 
ENDBRANCH  21  31
ENDBRANCH   1  22
TORSDOF 4
ENDMDL
MODEL 2
REMARK VINA RESULT:      -8.8      0.496      1.624
REMARK  Name = 
REMARK  5 active torsions:
REMARK  status: ('A' for Active; 'I' for Inactive)
REMARK    1  A    between atoms: C_1  and  C_2
REMARK    2  A    between atoms: C_7  and  N_8
REMARK    3  A    between atoms: C_9  and  C_11
REMARK    4  A    between atoms: C_13  and  C_14
REMARK    5  A    between atoms: C_23  and  C_24
REMARK                            x       y       z     vdW  Elec       q    Type
REMARK                         _______ _______ _______ _____ _____    ______ ____
ROOT
ATOM      1  C   UNL     1       2.691   6.911  18.585  0.00  0.00    +0.000 A 
ATOM      2  C   UNL     1       3.681   6.692  17.476  0.00  0.00    +0.000 A 
ATOM      3  C   UNL     1       4.256   5.481  17.411  0.00  0.00    +0.000 A 
ATOM      4  N   UNL     1       3.884   4.525  18.356  0.00  0.00    +0.000 N 
ATOM      5  C   UNL     1       4.330   3.242  18.550  0.00  0.00    +0.000 A 
ATOM      6  N   UNL     1       3.722   2.649  19.552  0.00  0.00    +0.000 NA
ATOM      7  C   UNL     1       2.829   3.597  20.051  0.00  0.00    +0.000 A 
ATOM      8  C   UNL     1       2.921   4.782  19.334  0.00  0.00    +0.000 A 
ATOM      9  N   UNL     1       2.316   6.009  19.448  0.00  0.00    +0.000 NA
ENDROOT
BRANCH   3  10
ATOM     10  C   UNL     1       5.240   5.236  16.346  0.00  0.00    +0.000 A 
ATOM     11  C   UNL     1       4.873   4.551  15.179  0.00  0.00    +0.000 A 
ATOM     12  C   UNL     1       5.826   4.267  14.199  0.00  0.00    +0.000 A 
ATOM     13  C   UNL     1       7.152   4.658  14.379  0.00  0.00    +0.000 A 
ATOM     14  C   UNL     1       7.526   5.337  15.540  0.00  0.00    +0.000 A 
ATOM     15  C   UNL     1       6.575   5.624  16.520  0.00  0.00    +0.000 A 
ENDBRANCH   3  10
BRANCH   7  16
ATOM     16  C   UNL     1       1.966   3.328  21.196  0.00  0.00    +0.000 C 
ATOM     17  N   UNL     1       0.639   3.280  20.871  0.00  0.00    +0.000 N 
ATOM     18  O   UNL     1       2.346   3.145  22.347  0.00  0.00    +0.000 OA
ATOM     19  H   UNL     1       0.363   3.398  19.904  0.00  0.00    +0.000 HD
ATOM     20  H   UNL     1      -0.034   3.048  21.583  0.00  0.00    +0.000 HD
ENDBRANCH   7  16
BRANCH   1  22
ATOM     21  N   UNL     1       1.145   8.541  19.627  0.00  0.00    +0.000 N 
ATOM     22  C   UNL     1       2.133   8.327  18.678  0.00  0.00    +0.000 C 
ATOM     23  O   UNL     1       2.619   9.146  17.904  0.00  0.00    +0.000 OA
ATOM     24  H   UNL     1       0.853   7.720  20.151  0.00  0.00    +0.000 HD
BRANCH  21  31
ATOM     25  C   UNL     1      -0.872   9.665  17.743  0.00  0.00    +0.000 C 
ATOM     26  C   UNL     1      -0.424  10.346  19.009  0.00  0.00    +0.000 A 
ATOM     27  C   UNL     1      -1.016  11.592  19.313  0.00  0.00    +0.000 A 
ATOM     28  C   UNL     1      -0.685  12.291  20.473  0.00  0.00    +0.000 A 
ATOM     29  C   UNL     1       0.230  11.745  21.354  0.00  0.00    +0.000 A 
ATOM     30  C   UNL     1       0.817  10.510  21.070  0.00  0.00    +0.000 A 
ATOM     31  C   UNL     1       0.519   9.791  19.900  0.00  0.00    +0.000 A 
ENDBRANCH  21  31
ENDBRANCH   1  22
TORSDOF 4
ENDMDL
MODEL 3
REMARK VINA RESULT:      -8.6      2.530      4.830
REMARK  Name = 
REMARK  5 active torsions:
REMARK  status: ('A' for Active; 'I' for Inactive)
REMARK    1  A    between atoms: C_1  and  C_2
REMARK    2  A    between atoms: C_7  and  N_8
REMARK    3  A    between atoms: C_9  and  C_11
REMARK    4  A    between atoms: C_13  and  C_14
REMARK    5  A    between atoms: C_23  and  C_24
REMARK                            x       y       z     vdW  Elec       q    Type
REMARK                         _______ _______ _______ _____ _____    ______ ____
ROOT
ATOM      1  C   UNL     1       2.911   7.646  18.195  0.00  0.00    +0.000 A 
ATOM      2  C   UNL     1       2.246   6.584  19.023  0.00  0.00    +0.000 A 
ATOM      3  C   UNL     1       2.918   5.432  19.180  0.00  0.00    +0.000 A 
ATOM      4  N   UNL     1       4.174   5.318  18.585  0.00  0.00    +0.000 N 
ATOM      5  C   UNL     1       5.050   4.262  18.547  0.00  0.00    +0.000 A 
ATOM      6  N   UNL     1       6.148   4.549  17.886  0.00  0.00    +0.000 NA
ATOM      7  C   UNL     1       5.983   5.866  17.458  0.00  0.00    +0.000 A 
ATOM      8  C   UNL     1       4.754   6.364  17.866  0.00  0.00    +0.000 A 
ATOM      9  N   UNL     1       4.099   7.554  17.667  0.00  0.00    +0.000 NA
ENDROOT
BRANCH   3  10
ATOM     10  C   UNL     1       2.289   4.365  19.973  0.00  0.00    +0.000 A 
ATOM     11  C   UNL     1       2.578   4.226  21.338  0.00  0.00    +0.000 A 
ATOM     12  C   UNL     1       2.027   3.173  22.071  0.00  0.00    +0.000 A 
ATOM     13  C   UNL     1       1.191   2.248  21.448  0.00  0.00    +0.000 A 
ATOM     14  C   UNL     1       0.902   2.378  20.088  0.00  0.00    +0.000 A 
ATOM     15  C   UNL     1       1.450   3.430  19.353  0.00  0.00    +0.000 A 
ENDBRANCH   3  10
BRANCH   7  16
ATOM     16  C   UNL     1       6.992   6.559  16.663  0.00  0.00    +0.000 C 
ATOM     17  N   UNL     1       7.245   7.828  17.102  0.00  0.00    +0.000 N 
ATOM     18  O   UNL     1       7.586   6.089  15.699  0.00  0.00    +0.000 OA
ATOM     19  H   UNL     1       6.765   8.172  17.925  0.00  0.00    +0.000 HD
ATOM     20  H   UNL     1       7.965   8.371  16.652  0.00  0.00    +0.000 HD
ENDBRANCH   7  16
BRANCH   1  22
ATOM     21  N   UNL     1       0.900   9.002  18.696  0.00  0.00    +0.000 N 
ATOM     22  C   UNL     1       2.074   8.900  17.966  0.00  0.00    +0.000 C 
ATOM     23  O   UNL     1       2.527   9.706  17.158  0.00  0.00    +0.000 OA
ATOM     24  H   UNL     1       0.682   8.207  19.292  0.00  0.00    +0.000 HD
BRANCH  21  31
ATOM     25  C   UNL     1       1.142  11.227  20.664  0.00  0.00    +0.000 C 
ATOM     26  C   UNL     1       0.085  11.154  19.594  0.00  0.00    +0.000 A 
ATOM     27  C   UNL     1      -0.837  12.222  19.526  0.00  0.00    +0.000 A 
ATOM     28  C   UNL     1      -1.838  12.259  18.557  0.00  0.00    +0.000 A 
ATOM     29  C   UNL     1      -1.921  11.235  17.631  0.00  0.00    +0.000 A 
ATOM     30  C   UNL     1      -1.012  10.177  17.682  0.00  0.00    +0.000 A 
ATOM     31  C   UNL     1      -0.004  10.102  18.658  0.00  0.00    +0.000 A 
ENDBRANCH  21  31
ENDBRANCH   1  22
TORSDOF 4
ENDMDL
MODEL 4
REMARK VINA RESULT:      -8.4      2.520      4.904
REMARK  Name = 
REMARK  5 active torsions:
REMARK  status: ('A' for Active; 'I' for Inactive)
REMARK    1  A    between atoms: C_1  and  C_2
REMARK    2  A    between atoms: C_7  and  N_8
REMARK    3  A    between atoms: C_9  and  C_11
REMARK    4  A    between atoms: C_13  and  C_14
REMARK    5  A    between atoms: C_23  and  C_24
REMARK                            x       y       z     vdW  Elec       q    Type
REMARK                         _______ _______ _______ _____ _____    ______ ____
ROOT
ATOM      1  C   UNL     1       2.965   7.593  18.217  0.00  0.00    +0.000 A 
ATOM      2  C   UNL     1       2.316   6.508  19.028  0.00  0.00    +0.000 A 
ATOM      3  C   UNL     1       3.013   5.370  19.182  0.00  0.00    +0.000 A 
ATOM      4  N   UNL     1       4.277   5.290  18.598  0.00  0.00    +0.000 N 
ATOM      5  C   UNL     1       5.178   4.255  18.559  0.00  0.00    +0.000 A 
ATOM      6  N   UNL     1       6.275   4.573  17.912  0.00  0.00    +0.000 NA
ATOM      7  C   UNL     1       6.084   5.890  17.494  0.00  0.00    +0.000 A 
ATOM      8  C   UNL     1       4.840   6.356  17.894  0.00  0.00    +0.000 A 
ATOM      9  N   UNL     1       4.160   7.533  17.700  0.00  0.00    +0.000 NA
ENDROOT
BRANCH   3  10
ATOM     10  C   UNL     1       2.402   4.281  19.959  0.00  0.00    +0.000 A 
ATOM     11  C   UNL     1       1.497   3.396  19.357  0.00  0.00    +0.000 A 
ATOM     12  C   UNL     1       0.872   2.404  20.116  0.00  0.00    +0.000 A 
ATOM     13  C   UNL     1       1.140   2.293  21.480  0.00  0.00    +0.000 A 
ATOM     14  C   UNL     1       2.037   3.174  22.086  0.00  0.00    +0.000 A 
ATOM     15  C   UNL     1       2.664   4.165  21.331  0.00  0.00    +0.000 A 
ENDBRANCH   3  10
BRANCH   7  16
ATOM     16  C   UNL     1       7.085   6.613  16.715  0.00  0.00    +0.000 C 
ATOM     17  N   UNL     1       7.524   5.916  15.625  0.00  0.00    +0.000 N 
ATOM     18  O   UNL     1       7.509   7.735  16.967  0.00  0.00    +0.000 OA
ATOM     19  H   UNL     1       7.124   5.007  15.424  0.00  0.00    +0.000 HD
ATOM     20  H   UNL     1       8.177   6.351  14.993  0.00  0.00    +0.000 HD
ENDBRANCH   7  16
BRANCH   1  22
ATOM     21  N   UNL     1       0.939   8.916  18.739  0.00  0.00    +0.000 N 
ATOM     22  C   UNL     1       2.102   8.829  17.990  0.00  0.00    +0.000 C 
ATOM     23  O   UNL     1       2.527   9.635  17.168  0.00  0.00    +0.000 OA
ATOM     24  H   UNL     1       0.745   8.123  19.346  0.00  0.00    +0.000 HD
BRANCH  21  31
ATOM     25  C   UNL     1       1.002  11.023  20.847  0.00  0.00    +0.000 C 
ATOM     26  C   UNL     1       0.019  10.995  19.707  0.00  0.00    +0.000 A 
ATOM     27  C   UNL     1      -0.921  12.048  19.641  0.00  0.00    +0.000 A 
ATOM     28  C   UNL     1      -1.858  12.124  18.613  0.00  0.00    +0.000 A 
ATOM     29  C   UNL     1      -1.858  11.156  17.624  0.00  0.00    +0.000 A 
ATOM     30  C   UNL     1      -0.931  10.114  17.673  0.00  0.00    +0.000 A 
ATOM     31  C   UNL     1       0.014  10.000  18.706  0.00  0.00    +0.000 A 
ENDBRANCH  21  31
ENDBRANCH   1  22
TORSDOF 4
ENDMDL
MODEL 5
REMARK VINA RESULT:      -8.3      2.567      4.916
REMARK  Name = 
REMARK  5 active torsions:
REMARK  status: ('A' for Active; 'I' for Inactive)
REMARK    1  A    between atoms: C_1  and  C_2
REMARK    2  A    between atoms: C_7  and  N_8
REMARK    3  A    between atoms: C_9  and  C_11
REMARK    4  A    between atoms: C_13  and  C_14
REMARK    5  A    between atoms: C_23  and  C_24
REMARK                            x       y       z     vdW  Elec       q    Type
REMARK                         _______ _______ _______ _____ _____    ______ ____
ROOT
ATOM      1  C   UNL     1       2.978   7.753  18.254  0.00  0.00    +0.000 A 
ATOM      2  C   UNL     1       2.274   6.677  19.030  0.00  0.00    +0.000 A 
ATOM      3  C   UNL     1       2.890   5.485  19.103  0.00  0.00    +0.000 A 
ATOM      4  N   UNL     1       4.127   5.345  18.476  0.00  0.00    +0.000 N 
ATOM      5  C   UNL     1       4.947   4.251  18.356  0.00  0.00    +0.000 A 
ATOM      6  N   UNL     1       6.046   4.522  17.689  0.00  0.00    +0.000 NA
ATOM      7  C   UNL     1       5.941   5.870  17.345  0.00  0.00    +0.000 A 
ATOM      8  C   UNL     1       4.746   6.403  17.808  0.00  0.00    +0.000 A 
ATOM      9  N   UNL     1       4.150   7.634  17.696  0.00  0.00    +0.000 NA
ENDROOT
BRANCH   3  10
ATOM     10  C   UNL     1       2.222   4.404  19.845  0.00  0.00    +0.000 A 
ATOM     11  C   UNL     1       2.448   4.236  21.218  0.00  0.00    +0.000 A 
ATOM     12  C   UNL     1       1.861   3.170  21.903  0.00  0.00    +0.000 A 
ATOM     13  C   UNL     1       1.051   2.261  21.222  0.00  0.00    +0.000 A 
ATOM     14  C   UNL     1       0.825   2.421  19.854  0.00  0.00    +0.000 A 
ATOM     15  C   UNL     1       1.409   3.486  19.167  0.00  0.00    +0.000 A 
ENDBRANCH   3  10
BRANCH   7  16
ATOM     16  C   UNL     1       6.969   6.559  16.571  0.00  0.00    +0.000 C 
ATOM     17  N   UNL     1       7.409   5.837  15.497  0.00  0.00    +0.000 N 
ATOM     18  O   UNL     1       7.416   7.675  16.814  0.00  0.00    +0.000 OA
ATOM     19  H   UNL     1       6.991   4.935  15.303  0.00  0.00    +0.000 HD
ATOM     20  H   UNL     1       8.081   6.247  14.869  0.00  0.00    +0.000 HD
ENDBRANCH   7  16
BRANCH   1  22
ATOM     21  N   UNL     1       1.263   9.325  19.103  0.00  0.00    +0.000 N 
ATOM     22  C   UNL     1       2.202   9.058  18.118  0.00  0.00    +0.000 C 
ATOM     23  O   UNL     1       2.490   9.754  17.150  0.00  0.00    +0.000 OA
ATOM     24  H   UNL     1       1.148   8.601  19.809  0.00  0.00    +0.000 HD
BRANCH  21  31
ATOM     25  C   UNL     1      -1.185   9.601  17.426  0.00  0.00    +0.000 C 
ATOM     26  C   UNL     1      -0.691  10.653  18.382  0.00  0.00    +0.000 A 
ATOM     27  C   UNL     1      -1.454  11.838  18.487  0.00  0.00    +0.000 A 
ATOM     28  C   UNL     1      -1.093  12.862  19.360  0.00  0.00    +0.000 A 
ATOM     29  C   UNL     1       0.029  12.709  20.155  0.00  0.00    +0.000 A 
ATOM     30  C   UNL     1       0.788  11.541  20.067  0.00  0.00    +0.000 A 
ATOM     31  C   UNL     1       0.460  10.499  19.183  0.00  0.00    +0.000 A 
ENDBRANCH  21  31
ENDBRANCH   1  22
TORSDOF 4
ENDMDL
MODEL 6
REMARK VINA RESULT:      -8.2      1.410      1.894
REMARK  Name = 
REMARK  5 active torsions:
REMARK  status: ('A' for Active; 'I' for Inactive)
REMARK    1  A    between atoms: C_1  and  C_2
REMARK    2  A    between atoms: C_7  and  N_8
REMARK    3  A    between atoms: C_9  and  C_11
REMARK    4  A    between atoms: C_13  and  C_14
REMARK    5  A    between atoms: C_23  and  C_24
REMARK                            x       y       z     vdW  Elec       q    Type
REMARK                         _______ _______ _______ _____ _____    ______ ____
ROOT
ATOM      1  C   UNL     1       2.614   6.707  19.090  0.00  0.00    +0.000 A 
ATOM      2  C   UNL     1       3.569   6.626  17.933  0.00  0.00    +0.000 A 
ATOM      3  C   UNL     1       4.134   5.430  17.701  0.00  0.00    +0.000 A 
ATOM      4  N   UNL     1       3.784   4.365  18.529  0.00  0.00    +0.000 N 
ATOM      5  C   UNL     1       4.227   3.067  18.548  0.00  0.00    +0.000 A 
ATOM      6  N   UNL     1       3.645   2.355  19.486  0.00  0.00    +0.000 NA
ATOM      7  C   UNL     1       2.774   3.236  20.126  0.00  0.00    +0.000 A 
ATOM      8  C   UNL     1       2.852   4.501  19.560  0.00  0.00    +0.000 A 
ATOM      9  N   UNL     1       2.258   5.705  19.844  0.00  0.00    +0.000 NA
ENDROOT
BRANCH   3  10
ATOM     10  C   UNL     1       5.085   5.318  16.584  0.00  0.00    +0.000 A 
ATOM     11  C   UNL     1       4.745   4.603  15.427  0.00  0.00    +0.000 A 
ATOM     12  C   UNL     1       5.675   4.447  14.397  0.00  0.00    +0.000 A 
ATOM     13  C   UNL     1       6.951   4.997  14.516  0.00  0.00    +0.000 A 
ATOM     14  C   UNL     1       7.297   5.707  15.667  0.00  0.00    +0.000 A 
ATOM     15  C   UNL     1       6.370   5.866  16.697  0.00  0.00    +0.000 A 
ENDBRANCH   3  10
BRANCH   7  16
ATOM     16  C   UNL     1       1.942   2.828  21.254  0.00  0.00    +0.000 C 
ATOM     17  N   UNL     1       0.604   2.965  21.014  0.00  0.00    +0.000 N 
ATOM     18  O   UNL     1       2.356   2.391  22.323  0.00  0.00    +0.000 OA
ATOM     19  H   UNL     1       0.295   3.292  20.107  0.00  0.00    +0.000 HD
ATOM     20  H   UNL     1      -0.056   2.660  21.712  0.00  0.00    +0.000 HD
ENDBRANCH   7  16
BRANCH   1  22
ATOM     21  N   UNL     1       1.978   8.964  18.293  0.00  0.00    +0.000 N 
ATOM     22  C   UNL     1       2.067   8.102  19.375  0.00  0.00    +0.000 C 
ATOM     23  O   UNL     1       1.750   8.325  20.539  0.00  0.00    +0.000 OA
ATOM     24  H   UNL     1       2.326   8.599  17.409  0.00  0.00    +0.000 HD
BRANCH  21  31
ATOM     25  C   UNL     1      -0.956   9.446  18.497  0.00  0.00    +0.000 C 
ATOM     26  C   UNL     1       0.078  10.538  18.412  0.00  0.00    +0.000 A 
ATOM     27  C   UNL     1      -0.390  11.871  18.443  0.00  0.00    +0.000 A 
ATOM     28  C   UNL     1       0.488  12.951  18.392  0.00  0.00    +0.000 A 
ATOM     29  C   UNL     1       1.850  12.715  18.328  0.00  0.00    +0.000 A 
ATOM     30  C   UNL     1       2.326  11.403  18.304  0.00  0.00    +0.000 A 
ATOM     31  C   UNL     1       1.465  10.293  18.335  0.00  0.00    +0.000 A 
ENDBRANCH  21  31
ENDBRANCH   1  22
TORSDOF 4
ENDMDL
MODEL 7
REMARK VINA RESULT:      -8.2      2.616      4.931
REMARK  Name = 
REMARK  5 active torsions:
REMARK  status: ('A' for Active; 'I' for Inactive)
REMARK    1  A    between atoms: C_1  and  C_2
REMARK    2  A    between atoms: C_7  and  N_8
REMARK    3  A    between atoms: C_9  and  C_11
REMARK    4  A    between atoms: C_13  and  C_14
REMARK    5  A    between atoms: C_23  and  C_24
REMARK                            x       y       z     vdW  Elec       q    Type
REMARK                         _______ _______ _______ _____ _____    ______ ____
ROOT
ATOM      1  C   UNL     1       2.950   7.787  18.099  0.00  0.00    +0.000 A 
ATOM      2  C   UNL     1       2.172   6.632  18.664  0.00  0.00    +0.000 A 
ATOM      3  C   UNL     1       2.777   5.434  18.653  0.00  0.00    +0.000 A 
ATOM      4  N   UNL     1       4.072   5.356  18.141  0.00  0.00    +0.000 N 
ATOM      5  C   UNL     1       4.901   4.276  17.973  0.00  0.00    +0.000 A 
ATOM      6  N   UNL     1       6.062   4.613  17.459  0.00  0.00    +0.000 NA
ATOM      7  C   UNL     1       5.991   5.993  17.272  0.00  0.00    +0.000 A 
ATOM      8  C   UNL     1       4.756   6.480  17.674  0.00  0.00    +0.000 A 
ATOM      9  N   UNL     1       4.173   7.723  17.652  0.00  0.00    +0.000 NA
ENDROOT
BRANCH   3  10
ATOM     10  C   UNL     1       2.039   4.279  19.187  0.00  0.00    +0.000 A 
ATOM     11  C   UNL     1       1.357   3.408  18.324  0.00  0.00    +0.000 A 
ATOM     12  C   UNL     1       0.606   2.351  18.841  0.00  0.00    +0.000 A 
ATOM     13  C   UNL     1       0.524   2.158  20.220  0.00  0.00    +0.000 A 
ATOM     14  C   UNL     1       1.197   3.024  21.084  0.00  0.00    +0.000 A 
ATOM     15  C   UNL     1       1.950   4.080  20.571  0.00  0.00    +0.000 A 
ENDBRANCH   3  10
BRANCH   7  16
ATOM     16  C   UNL     1       7.092   6.758  16.696  0.00  0.00    +0.000 C 
ATOM     17  N   UNL     1       7.274   7.974  17.294  0.00  0.00    +0.000 N 
ATOM     18  O   UNL     1       7.814   6.387  15.778  0.00  0.00    +0.000 OA
ATOM     19  H   UNL     1       6.684   8.234  18.075  0.00  0.00    +0.000 HD
ATOM     20  H   UNL     1       8.042   8.556  17.003  0.00  0.00    +0.000 HD
ENDBRANCH   7  16
BRANCH   1  22
ATOM     21  N   UNL     1       1.199   9.290  18.997  0.00  0.00    +0.000 N 
ATOM     22  C   UNL     1       2.191   9.108  18.045  0.00  0.00    +0.000 C 
ATOM     23  O   UNL     1       2.539   9.890  17.166  0.00  0.00    +0.000 OA
ATOM     24  H   UNL     1       1.039   8.504  19.622  0.00  0.00    +0.000 HD
BRANCH  21  31
ATOM     25  C   UNL     1      -1.280   9.642  17.379  0.00  0.00    +0.000 C 
ATOM     26  C   UNL     1      -0.766  10.651  18.371  0.00  0.00    +0.000 A 
ATOM     27  C   UNL     1      -1.525  11.830  18.542  0.00  0.00    +0.000 A 
ATOM     28  C   UNL     1      -1.146  12.814  19.452  0.00  0.00    +0.000 A 
ATOM     29  C   UNL     1      -0.010  12.626  20.219  0.00  0.00    +0.000 A 
ATOM     30  C   UNL     1       0.745  11.462  20.066  0.00  0.00    +0.000 A 
ATOM     31  C   UNL     1       0.399  10.460  19.143  0.00  0.00    +0.000 A 
ENDBRANCH  21  31
ENDBRANCH   1  22
TORSDOF 4
ENDMDL
MODEL 8
REMARK VINA RESULT:      -7.9      2.328      5.017
REMARK  Name = 
REMARK  5 active torsions:
REMARK  status: ('A' for Active; 'I' for Inactive)
REMARK    1  A    between atoms: C_1  and  C_2
REMARK    2  A    between atoms: C_7  and  N_8
REMARK    3  A    between atoms: C_9  and  C_11
REMARK    4  A    between atoms: C_13  and  C_14
REMARK    5  A    between atoms: C_23  and  C_24
REMARK                            x       y       z     vdW  Elec       q    Type
REMARK                         _______ _______ _______ _____ _____    ______ ____
ROOT
ATOM      1  C   UNL     1       2.791   7.561  18.095  0.00  0.00    +0.000 A 
ATOM      2  C   UNL     1       2.238   6.551  19.060  0.00  0.00    +0.000 A 
ATOM      3  C   UNL     1       2.740   5.307  18.985  0.00  0.00    +0.000 A 
ATOM      4  N   UNL     1       3.736   5.056  18.041  0.00  0.00    +0.000 N 
ATOM      5  C   UNL     1       4.389   3.892  17.722  0.00  0.00    +0.000 A 
ATOM      6  N   UNL     1       5.278   4.064  16.771  0.00  0.00    +0.000 NA
ATOM      7  C   UNL     1       5.202   5.417  16.440  0.00  0.00    +0.000 A 
ATOM      8  C   UNL     1       4.237   6.056  17.205  0.00  0.00    +0.000 A 
ATOM      9  N   UNL     1       3.745   7.337  17.236  0.00  0.00    +0.000 NA
ENDROOT
BRANCH   3  10
ATOM     10  C   UNL     1       2.212   4.289  19.906  0.00  0.00    +0.000 A 
ATOM     11  C   UNL     1       1.120   3.491  19.537  0.00  0.00    +0.000 A 
ATOM     12  C   UNL     1       0.583   2.571  20.439  0.00  0.00    +0.000 A 
ATOM     13  C   UNL     1       1.127   2.444  21.717  0.00  0.00    +0.000 A 
ATOM     14  C   UNL     1       2.212   3.239  22.092  0.00  0.00    +0.000 A 
ATOM     15  C   UNL     1       2.752   4.158  21.192  0.00  0.00    +0.000 A 
ENDBRANCH   3  10
BRANCH   7  16
ATOM     16  C   UNL     1       6.031   6.011  15.396  0.00  0.00    +0.000 C 
ATOM     17  N   UNL     1       5.347   6.883  14.596  0.00  0.00    +0.000 N 
ATOM     18  O   UNL     1       7.224   5.791  15.222  0.00  0.00    +0.000 OA
ATOM     19  H   UNL     1       4.371   7.072  14.791  0.00  0.00    +0.000 HD
ATOM     20  H   UNL     1       5.842   7.386  13.878  0.00  0.00    +0.000 HD
ENDBRANCH   7  16
BRANCH   1  22
ATOM     21  N   UNL     1       1.158   9.110  19.126  0.00  0.00    +0.000 N 
ATOM     22  C   UNL     1       2.128   8.933  18.152  0.00  0.00    +0.000 C 
ATOM     23  O   UNL     1       2.525   9.754  17.331  0.00  0.00    +0.000 OA
ATOM     24  H   UNL     1       0.946   8.292  19.691  0.00  0.00    +0.000 HD
BRANCH  21  31
ATOM     25  C   UNL     1      -1.276   9.780  17.542  0.00  0.00    +0.000 C 
ATOM     26  C   UNL     1      -0.698  10.660  18.618  0.00  0.00    +0.000 A 
ATOM     27  C   UNL     1      -1.370  11.874  18.888  0.00  0.00    +0.000 A 
ATOM     28  C   UNL     1      -0.926  12.746  19.880  0.00  0.00    +0.000 A 
ATOM     29  C   UNL     1       0.187  12.410  20.629  0.00  0.00    +0.000 A 
ATOM     30  C   UNL     1       0.857  11.211  20.377  0.00  0.00    +0.000 A 
ATOM     31  C   UNL     1       0.445  10.320  19.372  0.00  0.00    +0.000 A 
ENDBRANCH  21  31
ENDBRANCH   1  22
TORSDOF 4
ENDMDL
MODEL 9
REMARK VINA RESULT:      -7.9      1.764      7.532
REMARK  Name = 
REMARK  5 active torsions:
REMARK  status: ('A' for Active; 'I' for Inactive)
REMARK    1  A    between atoms: C_1  and  C_2
REMARK    2  A    between atoms: C_7  and  N_8
REMARK    3  A    between atoms: C_9  and  C_11
REMARK    4  A    between atoms: C_13  and  C_14
REMARK    5  A    between atoms: C_23  and  C_24
REMARK                            x       y       z     vdW  Elec       q    Type
REMARK                         _______ _______ _______ _____ _____    ______ ____
ROOT
ATOM      1  C   UNL     1       4.468   5.640  17.290  0.00  0.00    +0.000 A 
ATOM      2  C   UNL     1       3.628   6.789  17.769  0.00  0.00    +0.000 A 
ATOM      3  C   UNL     1       2.914   6.590  18.889  0.00  0.00    +0.000 A 
ATOM      4  N   UNL     1       3.020   5.353  19.524  0.00  0.00    +0.000 N 
ATOM      5  C   UNL     1       2.387   4.866  20.640  0.00  0.00    +0.000 A 
ATOM      6  N   UNL     1       2.762   3.642  20.933  0.00  0.00    +0.000 NA
ATOM      7  C   UNL     1       3.690   3.300  19.949  0.00  0.00    +0.000 A 
ATOM      8  C   UNL     1       3.857   4.342  19.048  0.00  0.00    +0.000 A 
ATOM      9  N   UNL     1       4.594   4.495  17.901  0.00  0.00    +0.000 NA
ENDROOT
BRANCH   3  10
ATOM     10  C   UNL     1       2.070   7.690  19.379  0.00  0.00    +0.000 A 
ATOM     11  C   UNL     1       1.755   8.773  18.546  0.00  0.00    +0.000 A 
ATOM     12  C   UNL     1       1.006   9.845  19.037  0.00  0.00    +0.000 A 
ATOM     13  C   UNL     1       0.572   9.847  20.362  0.00  0.00    +0.000 A 
ATOM     14  C   UNL     1       0.885   8.774  21.198  0.00  0.00    +0.000 A 
ATOM     15  C   UNL     1       1.632   7.701  20.710  0.00  0.00    +0.000 A 
ENDBRANCH   3  10
BRANCH   7  16
ATOM     16  C   UNL     1       4.338   1.992  19.910  0.00  0.00    +0.000 C 
ATOM     17  N   UNL     1       4.073   1.294  18.766  0.00  0.00    +0.000 N 
ATOM     18  O   UNL     1       5.062   1.530  20.784  0.00  0.00    +0.000 OA
ATOM     19  H   UNL     1       3.501   1.722  18.047  0.00  0.00    +0.000 HD
ATOM     20  H   UNL     1       4.516   0.402  18.619  0.00  0.00    +0.000 HD
ENDBRANCH   7  16
BRANCH   1  22
ATOM     21  N   UNL     1       5.784   4.771  15.381  0.00  0.00    +0.000 N 
ATOM     22  C   UNL     1       5.187   5.877  15.967  0.00  0.00    +0.000 C 
ATOM     23  O   UNL     1       5.162   7.028  15.543  0.00  0.00    +0.000 OA
ATOM     24  H   UNL     1       5.722   3.905  15.911  0.00  0.00    +0.000 HD
BRANCH  21  31
ATOM     25  C   UNL     1       4.752   3.171  13.088  0.00  0.00    +0.000 C 
ATOM     26  C   UNL     1       6.008   4.001  13.045  0.00  0.00    +0.000 A 
ATOM     27  C   UNL     1       6.725   4.019  11.828  0.00  0.00    +0.000 A 
ATOM     28  C   UNL     1       7.887   4.774  11.679  0.00  0.00    +0.000 A 
ATOM     29  C   UNL     1       8.339   5.536  12.741  0.00  0.00    +0.000 A 
ATOM     30  C   UNL     1       7.636   5.533  13.947  0.00  0.00    +0.000 A 
ATOM     31  C   UNL     1       6.473   4.768  14.134  0.00  0.00    +0.000 A 
ENDBRANCH  21  31
ENDBRANCH   1  22
TORSDOF 4
ENDMDL
