MODEL 1
REMARK VINA RESULT:      -8.8      0.000      0.000
REMARK  Name = 
REMARK  3 active torsions:
REMARK  status: ('A' for Active; 'I' for Inactive)
REMARK    1  A    between atoms: C_2  and  C_16
REMARK    2  A    between atoms: C_6  and  C_7
REMARK    3  A    between atoms: C_20  and  N_21
REMARK                            x       y       z     vdW  Elec       q    Type
REMARK                         _______ _______ _______ _____ _____    ______ ____
ROOT
ATOM      1  O   UNL     1       1.828   9.005  19.252  0.00  0.00    +0.000 OA
ATOM      2  C   UNL     1       1.456   8.595  20.345  0.00  0.00    +0.000 C 
ATOM      3  N   UNL     1       1.653   7.341  20.878  0.00  0.00    +0.000 N 
ATOM      4  C   UNL     1       2.291   6.365  20.160  0.00  0.00    +0.000 A 
ATOM      5  N   UNL     1       2.979   6.474  19.056  0.00  0.00    +0.000 NA
ATOM      6  C   UNL     1       3.392   5.224  18.620  0.00  0.00    +0.000 A 
ATOM      7  C   UNL     1       2.980   4.180  19.430  0.00  0.00    +0.000 A 
ATOM      8  S   UNL     1       2.124   4.792  20.793  0.00  0.00    +0.000 S 
ATOM      9  H   UNL     1       1.193   7.050  21.728  0.00  0.00    +0.000 HD
ENDROOT
BRANCH   6  10
ATOM     10  C   UNL     1       4.196   5.091  17.402  0.00  0.00    +0.000 A 
ATOM     11  C   UNL     1       4.581   6.253  16.708  0.00  0.00    +0.000 A 
ATOM     12  C   UNL     1       5.366   6.174  15.553  0.00  0.00    +0.000 A 
ATOM     13  C   UNL     1       5.767   4.931  15.085  0.00  0.00    +0.000 A 
ATOM     14  F   UNL     1       6.520   4.850  13.981  0.00  0.00    +0.000 F 
ATOM     15  C   UNL     1       5.394   3.768  15.746  0.00  0.00    +0.000 A 
ATOM     16  C   UNL     1       4.611   3.846  16.903  0.00  0.00    +0.000 A 
ENDBRANCH   6  10
BRANCH   2  17
ATOM     17  C   UNL     1       0.617   9.505  21.170  0.00  0.00    +0.000 A 
ATOM     18  C   UNL     1       0.069   8.986  22.345  0.00  0.00    +0.000 A 
ATOM     19  C   UNL     1      -0.726   9.790  23.148  0.00  0.00    +0.000 A 
ATOM     20  C   UNL     1      -0.974  11.115  22.779  0.00  0.00    +0.000 A 
ATOM     21  C   UNL     1      -0.436  11.673  21.604  0.00  0.00    +0.000 A 
ATOM     22  C   UNL     1       0.356  10.834  20.797  0.00  0.00    +0.000 A 
BRANCH  21  23
ATOM     23  N   UNL     1      -0.663  13.048  21.274  0.00  0.00    +0.000 N 
ATOM     24  C   UNL     1      -1.793  13.525  20.647  0.00  0.00    +0.000 C 
ATOM     25  O   UNL     1      -2.735  12.907  20.166  0.00  0.00    +0.000 OA
ATOM     26  C   UNL     1      -1.738  15.020  20.585  0.00  0.00    +0.000 C 
ATOM     27  C   UNL     1      -0.390  15.380  21.148  0.00  0.00    +0.000 C 
ATOM     28  C   UNL     1       0.208  14.073  21.577  0.00  0.00    +0.000 C 
ATOM     29  O   UNL     1       1.292  14.021  22.146  0.00  0.00    +0.000 OA
ENDBRANCH  21  23
ENDBRANCH   2  17
TORSDOF 3
ENDMDL
MODEL 2
REMARK VINA RESULT:      -8.8      0.086      1.437
REMARK  Name = 
REMARK  3 active torsions:
REMARK  status: ('A' for Active; 'I' for Inactive)
REMARK    1  A    between atoms: C_2  and  C_16
REMARK    2  A    between atoms: C_6  and  C_7
REMARK    3  A    between atoms: C_20  and  N_21
REMARK                            x       y       z     vdW  Elec       q    Type
REMARK                         _______ _______ _______ _____ _____    ______ ____
ROOT
ATOM      1  O   UNL     1       1.831   9.032  19.256  0.00  0.00    +0.000 OA
ATOM      2  C   UNL     1       1.454   8.625  20.348  0.00  0.00    +0.000 C 
ATOM      3  N   UNL     1       1.640   7.369  20.881  0.00  0.00    +0.000 N 
ATOM      4  C   UNL     1       2.272   6.389  20.164  0.00  0.00    +0.000 A 
ATOM      5  N   UNL     1       2.963   6.492  19.061  0.00  0.00    +0.000 NA
ATOM      6  C   UNL     1       3.367   5.239  18.626  0.00  0.00    +0.000 A 
ATOM      7  C   UNL     1       2.945   4.199  19.435  0.00  0.00    +0.000 A 
ATOM      8  S   UNL     1       2.092   4.817  20.796  0.00  0.00    +0.000 S 
ATOM      9  H   UNL     1       1.177   7.082  21.730  0.00  0.00    +0.000 HD
ENDROOT
BRANCH   6  10
ATOM     10  C   UNL     1       4.172   5.101  17.409  0.00  0.00    +0.000 A 
ATOM     11  C   UNL     1       4.569   6.260  16.717  0.00  0.00    +0.000 A 
ATOM     12  C   UNL     1       5.356   6.176  15.564  0.00  0.00    +0.000 A 
ATOM     13  C   UNL     1       5.746   4.930  15.095  0.00  0.00    +0.000 A 
ATOM     14  F   UNL     1       6.501   4.843  13.993  0.00  0.00    +0.000 F 
ATOM     15  C   UNL     1       5.361   3.769  15.754  0.00  0.00    +0.000 A 
ATOM     16  C   UNL     1       4.576   3.853  16.909  0.00  0.00    +0.000 A 
ENDBRANCH   6  10
BRANCH   2  17
ATOM     17  C   UNL     1       0.621   9.541  21.172  0.00  0.00    +0.000 A 
ATOM     18  C   UNL     1       0.057   9.023  22.340  0.00  0.00    +0.000 A 
ATOM     19  C   UNL     1      -0.734   9.833  23.141  0.00  0.00    +0.000 A 
ATOM     20  C   UNL     1      -0.961  11.163  22.778  0.00  0.00    +0.000 A 
ATOM     21  C   UNL     1      -0.407  11.720  21.611  0.00  0.00    +0.000 A 
ATOM     22  C   UNL     1       0.380  10.876  20.804  0.00  0.00    +0.000 A 
BRANCH  21  23
ATOM     23  N   UNL     1      -0.613  13.100  21.287  0.00  0.00    +0.000 N 
ATOM     24  C   UNL     1       0.296  14.105  21.535  0.00  0.00    +0.000 C 
ATOM     25  O   UNL     1       1.357  14.060  22.146  0.00  0.00    +0.000 OA
ATOM     26  C   UNL     1      -0.201  15.388  20.945  0.00  0.00    +0.000 C 
ATOM     27  C   UNL     1      -1.569  15.061  20.409  0.00  0.00    +0.000 C 
ATOM     28  C   UNL     1      -1.734  13.590  20.651  0.00  0.00    +0.000 C 
ATOM     29  O   UNL     1      -2.728  12.985  20.265  0.00  0.00    +0.000 OA
ENDBRANCH  21  23
ENDBRANCH   2  17
TORSDOF 3
ENDMDL
MODEL 3
REMARK VINA RESULT:      -8.7      4.239      9.859
REMARK  Name = 
REMARK  3 active torsions:
REMARK  status: ('A' for Active; 'I' for Inactive)
REMARK    1  A    between atoms: C_2  and  C_16
REMARK    2  A    between atoms: C_6  and  C_7
REMARK    3  A    between atoms: C_20  and  N_21
REMARK                            x       y       z     vdW  Elec       q    Type
REMARK                         _______ _______ _______ _____ _____    ______ ____
ROOT
ATOM      1  O   UNL     1       0.785   7.136  21.331  0.00  0.00    +0.000 OA
ATOM      2  C   UNL     1       1.614   7.172  20.430  0.00  0.00    +0.000 C 
ATOM      3  N   UNL     1       1.872   8.217  19.572  0.00  0.00    +0.000 N 
ATOM      4  C   UNL     1       1.139   9.372  19.633  0.00  0.00    +0.000 A 
ATOM      5  N   UNL     1       0.312   9.773  20.559  0.00  0.00    +0.000 NA
ATOM      6  C   UNL     1      -0.280  10.972  20.191  0.00  0.00    +0.000 A 
ATOM      7  C   UNL     1       0.127  11.445  18.956  0.00  0.00    +0.000 A 
ATOM      8  S   UNL     1       1.321  10.400  18.287  0.00  0.00    +0.000 S 
ATOM      9  H   UNL     1       2.479   8.107  18.773  0.00  0.00    +0.000 HD
ENDROOT
BRANCH   6  10
ATOM     10  C   UNL     1      -1.240  11.629  21.082  0.00  0.00    +0.000 A 
ATOM     11  C   UNL     1      -2.183  12.518  20.533  0.00  0.00    +0.000 A 
ATOM     12  C   UNL     1      -3.131  13.151  21.343  0.00  0.00    +0.000 A 
ATOM     13  C   UNL     1      -3.138  12.900  22.708  0.00  0.00    +0.000 A 
ATOM     14  F   UNL     1      -4.046  13.501  23.487  0.00  0.00    +0.000 F 
ATOM     15  C   UNL     1      -2.214  12.033  23.277  0.00  0.00    +0.000 A 
ATOM     16  C   UNL     1      -1.266  11.399  22.467  0.00  0.00    +0.000 A 
ENDBRANCH   6  10
BRANCH   2  17
ATOM     17  C   UNL     1       2.379   5.926  20.152  0.00  0.00    +0.000 A 
ATOM     18  C   UNL     1       1.889   4.736  20.694  0.00  0.00    +0.000 A 
ATOM     19  C   UNL     1       2.567   3.547  20.470  0.00  0.00    +0.000 A 
ATOM     20  C   UNL     1       3.734   3.544  19.701  0.00  0.00    +0.000 A 
ATOM     21  C   UNL     1       4.255   4.723  19.137  0.00  0.00    +0.000 A 
ATOM     22  C   UNL     1       3.559   5.921  19.390  0.00  0.00    +0.000 A 
BRANCH  21  23
ATOM     23  N   UNL     1       5.425   4.687  18.311  0.00  0.00    +0.000 N 
ATOM     24  C   UNL     1       6.706   4.927  18.759  0.00  0.00    +0.000 C 
ATOM     25  O   UNL     1       7.085   5.307  19.860  0.00  0.00    +0.000 OA
ATOM     26  C   UNL     1       7.680   4.673  17.652  0.00  0.00    +0.000 C 
ATOM     27  C   UNL     1       6.827   4.360  16.453  0.00  0.00    +0.000 C 
ATOM     28  C   UNL     1       5.419   4.371  16.970  0.00  0.00    +0.000 C 
ATOM     29  O   UNL     1       4.470   4.085  16.249  0.00  0.00    +0.000 OA
ENDBRANCH  21  23
ENDBRANCH   2  17
TORSDOF 3
ENDMDL
MODEL 4
REMARK VINA RESULT:      -8.7      4.246      9.746
REMARK  Name = 
REMARK  3 active torsions:
REMARK  status: ('A' for Active; 'I' for Inactive)
REMARK    1  A    between atoms: C_2  and  C_16
REMARK    2  A    between atoms: C_6  and  C_7
REMARK    3  A    between atoms: C_20  and  N_21
REMARK                            x       y       z     vdW  Elec       q    Type
REMARK                         _______ _______ _______ _____ _____    ______ ____
ROOT
ATOM      1  O   UNL     1       0.703   7.117  21.290  0.00  0.00    +0.000 OA
ATOM      2  C   UNL     1       1.577   7.150  20.432  0.00  0.00    +0.000 C 
ATOM      3  N   UNL     1       1.892   8.203  19.602  0.00  0.00    +0.000 N 
ATOM      4  C   UNL     1       1.175   9.368  19.643  0.00  0.00    +0.000 A 
ATOM      5  N   UNL     1       0.309   9.771  20.534  0.00  0.00    +0.000 NA
ATOM      6  C   UNL     1      -0.245  10.984  20.154  0.00  0.00    +0.000 A 
ATOM      7  C   UNL     1       0.229  11.466  18.947  0.00  0.00    +0.000 A 
ATOM      8  S   UNL     1       1.438  10.412  18.322  0.00  0.00    +0.000 S 
ATOM      9  H   UNL     1       2.536   8.093  18.832  0.00  0.00    +0.000 HD
ENDROOT
BRANCH   6  10
ATOM     10  C   UNL     1      -1.237  11.644  21.006  0.00  0.00    +0.000 A 
ATOM     11  C   UNL     1      -2.256  12.405  20.404  0.00  0.00    +0.000 A 
ATOM     12  C   UNL     1      -3.237  13.036  21.177  0.00  0.00    +0.000 A 
ATOM     13  C   UNL     1      -3.200  12.910  22.558  0.00  0.00    +0.000 A 
ATOM     14  F   UNL     1      -4.137  13.508  23.303  0.00  0.00    +0.000 F 
ATOM     15  C   UNL     1      -2.201  12.171  23.179  0.00  0.00    +0.000 A 
ATOM     16  C   UNL     1      -1.221  11.539  22.406  0.00  0.00    +0.000 A 
ENDBRANCH   6  10
BRANCH   2  17
ATOM     17  C   UNL     1       2.334   5.897  20.174  0.00  0.00    +0.000 A 
ATOM     18  C   UNL     1       1.841   4.718  20.739  0.00  0.00    +0.000 A 
ATOM     19  C   UNL     1       2.513   3.523  20.534  0.00  0.00    +0.000 A 
ATOM     20  C   UNL     1       3.678   3.501  19.762  0.00  0.00    +0.000 A 
ATOM     21  C   UNL     1       4.202   4.667  19.175  0.00  0.00    +0.000 A 
ATOM     22  C   UNL     1       3.512   5.873  19.408  0.00  0.00    +0.000 A 
BRANCH  21  23
ATOM     23  N   UNL     1       5.369   4.611  18.346  0.00  0.00    +0.000 N 
ATOM     24  C   UNL     1       5.363   4.273  17.011  0.00  0.00    +0.000 C 
ATOM     25  O   UNL     1       4.440   3.866  16.316  0.00  0.00    +0.000 OA
ATOM     26  C   UNL     1       6.737   4.449  16.443  0.00  0.00    +0.000 C 
ATOM     27  C   UNL     1       7.595   4.826  17.621  0.00  0.00    +0.000 C 
ATOM     28  C   UNL     1       6.641   4.925  18.774  0.00  0.00    +0.000 C 
ATOM     29  O   UNL     1       7.015   5.284  19.885  0.00  0.00    +0.000 OA
ENDBRANCH  21  23
ENDBRANCH   2  17
TORSDOF 3
ENDMDL
MODEL 5
REMARK VINA RESULT:      -8.5      3.734      9.442
REMARK  Name = 
REMARK  3 active torsions:
REMARK  status: ('A' for Active; 'I' for Inactive)
REMARK    1  A    between atoms: C_2  and  C_16
REMARK    2  A    between atoms: C_6  and  C_7
REMARK    3  A    between atoms: C_20  and  N_21
REMARK                            x       y       z     vdW  Elec       q    Type
REMARK                         _______ _______ _______ _____ _____    ______ ____
ROOT
ATOM      1  O   UNL     1       2.037   8.725  19.124  0.00  0.00    +0.000 OA
ATOM      2  C   UNL     1       1.735   7.899  19.977  0.00  0.00    +0.000 C 
ATOM      3  N   UNL     1       0.929   8.089  21.077  0.00  0.00    +0.000 N 
ATOM      4  C   UNL     1       0.393   9.319  21.350  0.00  0.00    +0.000 A 
ATOM      5  N   UNL     1       0.336  10.379  20.589  0.00  0.00    +0.000 NA
ATOM      6  C   UNL     1      -0.225  11.441  21.282  0.00  0.00    +0.000 A 
ATOM      7  C   UNL     1      -0.574  11.139  22.587  0.00  0.00    +0.000 A 
ATOM      8  S   UNL     1      -0.257   9.480  22.916  0.00  0.00    +0.000 S 
ATOM      9  H   UNL     1       0.847   7.389  21.798  0.00  0.00    +0.000 HD
ENDROOT
BRANCH   6  10
ATOM     10  C   UNL     1      -0.406  12.739  20.629  0.00  0.00    +0.000 A 
ATOM     11  C   UNL     1      -0.886  13.824  21.386  0.00  0.00    +0.000 A 
ATOM     12  C   UNL     1      -1.054  15.087  20.809  0.00  0.00    +0.000 A 
ATOM     13  C   UNL     1      -0.746  15.270  19.469  0.00  0.00    +0.000 A 
ATOM     14  F   UNL     1      -0.902  16.476  18.911  0.00  0.00    +0.000 F 
ATOM     15  C   UNL     1      -0.278  14.214  18.696  0.00  0.00    +0.000 A 
ATOM     16  C   UNL     1      -0.107  12.952  19.273  0.00  0.00    +0.000 A 
ENDBRANCH   6  10
BRANCH   2  17
ATOM     17  C   UNL     1       2.372   6.557  19.888  0.00  0.00    +0.000 A 
ATOM     18  C   UNL     1       1.750   5.503  20.561  0.00  0.00    +0.000 A 
ATOM     19  C   UNL     1       2.306   4.234  20.516  0.00  0.00    +0.000 A 
ATOM     20  C   UNL     1       3.482   4.013  19.795  0.00  0.00    +0.000 A 
ATOM     21  C   UNL     1       4.135   5.050  19.103  0.00  0.00    +0.000 A 
ATOM     22  C   UNL     1       3.562   6.334  19.174  0.00  0.00    +0.000 A 
BRANCH  21  23
ATOM     23  N   UNL     1       5.313   4.789  18.329  0.00  0.00    +0.000 N 
ATOM     24  C   UNL     1       5.309   4.344  17.026  0.00  0.00    +0.000 C 
ATOM     25  O   UNL     1       4.366   3.992  16.328  0.00  0.00    +0.000 OA
ATOM     26  C   UNL     1       6.711   4.310  16.504  0.00  0.00    +0.000 C 
ATOM     27  C   UNL     1       7.570   4.681  17.682  0.00  0.00    +0.000 C 
ATOM     28  C   UNL     1       6.599   4.986  18.784  0.00  0.00    +0.000 C 
ATOM     29  O   UNL     1       6.978   5.390  19.877  0.00  0.00    +0.000 OA
ENDBRANCH  21  23
ENDBRANCH   2  17
TORSDOF 3
ENDMDL
MODEL 6
REMARK VINA RESULT:      -8.4      7.527      8.309
REMARK  Name = 
REMARK  3 active torsions:
REMARK  status: ('A' for Active; 'I' for Inactive)
REMARK    1  A    between atoms: C_2  and  C_16
REMARK    2  A    between atoms: C_6  and  C_7
REMARK    3  A    between atoms: C_20  and  N_21
REMARK                            x       y       z     vdW  Elec       q    Type
REMARK                         _______ _______ _______ _____ _____    ______ ____
ROOT
ATOM      1  O   UNL     1       8.112   9.490  16.987  0.00  0.00    +0.000 OA
ATOM      2  C   UNL     1       8.556   9.330  18.117  0.00  0.00    +0.000 C 
ATOM      3  N   UNL     1       8.580   8.164  18.849  0.00  0.00    +0.000 N 
ATOM      4  C   UNL     1       8.033   7.012  18.352  0.00  0.00    +0.000 A 
ATOM      5  N   UNL     1       7.642   6.746  17.134  0.00  0.00    +0.000 NA
ATOM      6  C   UNL     1       7.073   5.482  17.076  0.00  0.00    +0.000 A 
ATOM      7  C   UNL     1       7.045   4.821  18.292  0.00  0.00    +0.000 A 
ATOM      8  S   UNL     1       7.808   5.777  19.503  0.00  0.00    +0.000 S 
ATOM      9  H   UNL     1       8.842   8.158  19.823  0.00  0.00    +0.000 HD
ENDROOT
BRANCH   6  10
ATOM     10  C   UNL     1       6.570   4.954  15.806  0.00  0.00    +0.000 A 
ATOM     11  C   UNL     1       7.380   5.044  14.659  0.00  0.00    +0.000 A 
ATOM     12  C   UNL     1       6.949   4.534  13.431  0.00  0.00    +0.000 A 
ATOM     13  C   UNL     1       5.702   3.932  13.343  0.00  0.00    +0.000 A 
ATOM     14  F   UNL     1       5.285   3.439  12.171  0.00  0.00    +0.000 F 
ATOM     15  C   UNL     1       4.878   3.836  14.458  0.00  0.00    +0.000 A 
ATOM     16  C   UNL     1       5.310   4.345  15.687  0.00  0.00    +0.000 A 
ENDBRANCH   6  10
BRANCH   2  17
ATOM     17  C   UNL     1       9.045  10.536  18.839  0.00  0.00    +0.000 A 
ATOM     18  C   UNL     1       9.251  10.423  20.215  0.00  0.00    +0.000 A 
ATOM     19  C   UNL     1       9.701  11.519  20.936  0.00  0.00    +0.000 A 
ATOM     20  C   UNL     1       9.948  12.729  20.283  0.00  0.00    +0.000 A 
ATOM     21  C   UNL     1       9.755  12.879  18.898  0.00  0.00    +0.000 A 
ATOM     22  C   UNL     1       9.283  11.758  18.187  0.00  0.00    +0.000 A 
BRANCH  21  23
ATOM     23  N   UNL     1      10.063  14.115  18.242  0.00  0.00    +0.000 N 
ATOM     24  C   UNL     1      11.191  14.337  17.483  0.00  0.00    +0.000 C 
ATOM     25  O   UNL     1      12.164  13.613  17.307  0.00  0.00    +0.000 OA
ATOM     26  C   UNL     1      11.112  15.691  16.851  0.00  0.00    +0.000 C 
ATOM     27  C   UNL     1       9.856  16.304  17.409  0.00  0.00    +0.000 C 
ATOM     28  C   UNL     1       9.249  15.228  18.260  0.00  0.00    +0.000 C 
ATOM     29  O   UNL     1       8.167  15.383  18.814  0.00  0.00    +0.000 OA
ENDBRANCH  21  23
ENDBRANCH   2  17
TORSDOF 3
ENDMDL
MODEL 7
REMARK VINA RESULT:      -8.3      3.736      9.561
REMARK  Name = 
REMARK  3 active torsions:
REMARK  status: ('A' for Active; 'I' for Inactive)
REMARK    1  A    between atoms: C_2  and  C_16
REMARK    2  A    between atoms: C_6  and  C_7
REMARK    3  A    between atoms: C_20  and  N_21
REMARK                            x       y       z     vdW  Elec       q    Type
REMARK                         _______ _______ _______ _____ _____    ______ ____
ROOT
ATOM      1  O   UNL     1       1.982   8.778  19.110  0.00  0.00    +0.000 OA
ATOM      2  C   UNL     1       1.711   7.939  19.961  0.00  0.00    +0.000 C 
ATOM      3  N   UNL     1       0.920   8.106  21.076  0.00  0.00    +0.000 N 
ATOM      4  C   UNL     1       0.365   9.323  21.368  0.00  0.00    +0.000 A 
ATOM      5  N   UNL     1       0.275  10.387  20.617  0.00  0.00    +0.000 NA
ATOM      6  C   UNL     1      -0.294  11.433  21.328  0.00  0.00    +0.000 A 
ATOM      7  C   UNL     1      -0.616  11.115  22.636  0.00  0.00    +0.000 A 
ATOM      8  S   UNL     1      -0.261   9.459  22.947  0.00  0.00    +0.000 S 
ATOM      9  H   UNL     1       0.864   7.398  21.793  0.00  0.00    +0.000 HD
ENDROOT
BRANCH   6  10
ATOM     10  C   UNL     1      -0.512  12.733  20.688  0.00  0.00    +0.000 A 
ATOM     11  C   UNL     1      -1.246  13.718  21.375  0.00  0.00    +0.000 A 
ATOM     12  C   UNL     1      -1.460  14.980  20.811  0.00  0.00    +0.000 A 
ATOM     13  C   UNL     1      -0.942  15.261  19.555  0.00  0.00    +0.000 A 
ATOM     14  F   UNL     1      -1.141  16.468  19.012  0.00  0.00    +0.000 F 
ATOM     15  C   UNL     1      -0.220  14.305  18.852  0.00  0.00    +0.000 A 
ATOM     16  C   UNL     1      -0.004  13.043  19.416  0.00  0.00    +0.000 A 
ENDBRANCH   6  10
BRANCH   2  17
ATOM     17  C   UNL     1       2.371   6.611  19.851  0.00  0.00    +0.000 A 
ATOM     18  C   UNL     1       1.760   5.533  20.494  0.00  0.00    +0.000 A 
ATOM     19  C   UNL     1       2.338   4.274  20.427  0.00  0.00    +0.000 A 
ATOM     20  C   UNL     1       3.527   4.089  19.716  0.00  0.00    +0.000 A 
ATOM     21  C   UNL     1       4.169   5.152  19.053  0.00  0.00    +0.000 A 
ATOM     22  C   UNL     1       3.573   6.424  19.146  0.00  0.00    +0.000 A 
BRANCH  21  23
ATOM     23  N   UNL     1       5.359   4.927  18.288  0.00  0.00    +0.000 N 
ATOM     24  C   UNL     1       6.640   5.052  18.781  0.00  0.00    +0.000 C 
ATOM     25  O   UNL     1       7.016   5.463  19.872  0.00  0.00    +0.000 OA
ATOM     26  C   UNL     1       7.622   4.615  17.739  0.00  0.00    +0.000 C 
ATOM     27  C   UNL     1       6.787   4.317  16.524  0.00  0.00    +0.000 C 
ATOM     28  C   UNL     1       5.370   4.522  16.971  0.00  0.00    +0.000 C 
ATOM     29  O   UNL     1       4.424   4.294  16.226  0.00  0.00    +0.000 OA
ENDBRANCH  21  23
ENDBRANCH   2  17
TORSDOF 3
ENDMDL
MODEL 8
REMARK VINA RESULT:      -8.2      1.843      2.968
REMARK  Name = 
REMARK  3 active torsions:
REMARK  status: ('A' for Active; 'I' for Inactive)
REMARK    1  A    between atoms: C_2  and  C_16
REMARK    2  A    between atoms: C_6  and  C_7
REMARK    3  A    between atoms: C_20  and  N_21
REMARK                            x       y       z     vdW  Elec       q    Type
REMARK                         _______ _______ _______ _____ _____    ______ ____
ROOT
ATOM      1  O   UNL     1       3.053   8.047  17.441  0.00  0.00    +0.000 OA
ATOM      2  C   UNL     1       2.715   7.538  18.503  0.00  0.00    +0.000 C 
ATOM      3  N   UNL     1       2.960   6.252  18.928  0.00  0.00    +0.000 N 
ATOM      4  C   UNL     1       3.615   5.359  18.124  0.00  0.00    +0.000 A 
ATOM      5  N   UNL     1       4.280   5.579  17.021  0.00  0.00    +0.000 NA
ATOM      6  C   UNL     1       4.724   4.383  16.479  0.00  0.00    +0.000 A 
ATOM      7  C   UNL     1       4.359   3.264  17.208  0.00  0.00    +0.000 A 
ATOM      8  S   UNL     1       3.510   3.736  18.629  0.00  0.00    +0.000 S 
ATOM      9  H   UNL     1       2.525   5.879  19.759  0.00  0.00    +0.000 HD
ENDROOT
BRANCH   6  10
ATOM     10  C   UNL     1       5.508   4.375  15.242  0.00  0.00    +0.000 A 
ATOM     11  C   UNL     1       5.009   3.689  14.119  0.00  0.00    +0.000 A 
ATOM     12  C   UNL     1       5.714   3.674  12.912  0.00  0.00    +0.000 A 
ATOM     13  C   UNL     1       6.926   4.343  12.822  0.00  0.00    +0.000 A 
ATOM     14  F   UNL     1       7.604   4.335  11.668  0.00  0.00    +0.000 F 
ATOM     15  C   UNL     1       7.446   5.022  13.917  0.00  0.00    +0.000 A 
ATOM     16  C   UNL     1       6.740   5.040  15.124  0.00  0.00    +0.000 A 
ENDBRANCH   6  10
BRANCH   2  17
ATOM     17  C   UNL     1       1.862   8.350  19.412  0.00  0.00    +0.000 A 
ATOM     18  C   UNL     1       1.423   7.747  20.593  0.00  0.00    +0.000 A 
ATOM     19  C   UNL     1       0.621   8.458  21.473  0.00  0.00    +0.000 A 
ATOM     20  C   UNL     1       0.258   9.774  21.176  0.00  0.00    +0.000 A 
ATOM     21  C   UNL     1       0.684  10.415  19.998  0.00  0.00    +0.000 A 
ATOM     22  C   UNL     1       1.485   9.670  19.112  0.00  0.00    +0.000 A 
BRANCH  21  23
ATOM     23  N   UNL     1       0.340  11.782  19.741  0.00  0.00    +0.000 N 
ATOM     24  C   UNL     1       0.983  12.867  20.296  0.00  0.00    +0.000 C 
ATOM     25  O   UNL     1       1.853  12.898  21.157  0.00  0.00    +0.000 OA
ATOM     26  C   UNL     1       0.442  14.129  19.699  0.00  0.00    +0.000 C 
ATOM     27  C   UNL     1      -0.679  13.681  18.802  0.00  0.00    +0.000 C 
ATOM     28  C   UNL     1      -0.655  12.183  18.875  0.00  0.00    +0.000 C 
ATOM     29  O   UNL     1      -1.410  11.496  18.197  0.00  0.00    +0.000 OA
ENDBRANCH  21  23
ENDBRANCH   2  17
TORSDOF 3
ENDMDL
MODEL 9
REMARK VINA RESULT:      -8.1      2.357      3.350
REMARK  Name = 
REMARK  3 active torsions:
REMARK  status: ('A' for Active; 'I' for Inactive)
REMARK    1  A    between atoms: C_2  and  C_16
REMARK    2  A    between atoms: C_6  and  C_7
REMARK    3  A    between atoms: C_20  and  N_21
REMARK                            x       y       z     vdW  Elec       q    Type
REMARK                         _______ _______ _______ _____ _____    ______ ____
ROOT
ATOM      1  O   UNL     1       1.787   9.519  17.360  0.00  0.00    +0.000 OA
ATOM      2  C   UNL     1       1.363   9.497  18.509  0.00  0.00    +0.000 C 
ATOM      3  N   UNL     1       1.572   8.523  19.459  0.00  0.00    +0.000 N 
ATOM      4  C   UNL     1       2.290   7.396  19.162  0.00  0.00    +0.000 A 
ATOM      5  N   UNL     1       3.042   7.149  18.124  0.00  0.00    +0.000 NA
ATOM      6  C   UNL     1       3.528   5.852  18.177  0.00  0.00    +0.000 A 
ATOM      7  C   UNL     1       3.104   5.137  19.284  0.00  0.00    +0.000 A 
ATOM      8  S   UNL     1       2.142   6.138  20.302  0.00  0.00    +0.000 S 
ATOM      9  H   UNL     1       1.071   8.523  20.335  0.00  0.00    +0.000 HD
ENDROOT
BRANCH   6  10
ATOM     10  C   UNL     1       4.411   5.347  17.122  0.00  0.00    +0.000 A 
ATOM     11  C   UNL     1       4.637   3.961  17.026  0.00  0.00    +0.000 A 
ATOM     12  C   UNL     1       5.456   3.434  16.022  0.00  0.00    +0.000 A 
ATOM     13  C   UNL     1       6.055   4.291  15.111  0.00  0.00    +0.000 A 
ATOM     14  F   UNL     1       6.837   3.792  14.146  0.00  0.00    +0.000 F 
ATOM     15  C   UNL     1       5.854   5.664  15.187  0.00  0.00    +0.000 A 
ATOM     16  C   UNL     1       5.034   6.192  16.190  0.00  0.00    +0.000 A 
ENDBRANCH   6  10
BRANCH   2  17
ATOM     17  C   UNL     1       0.440  10.589  18.921  0.00  0.00    +0.000 A 
ATOM     18  C   UNL     1       0.962  11.607  19.721  0.00  0.00    +0.000 A 
ATOM     19  C   UNL     1       0.142  12.645  20.137  0.00  0.00    +0.000 A 
ATOM     20  C   UNL     1      -1.200  12.671  19.752  0.00  0.00    +0.000 A 
ATOM     21  C   UNL     1      -1.761  11.664  18.944  0.00  0.00    +0.000 A 
ATOM     22  C   UNL     1      -0.914  10.611  18.545  0.00  0.00    +0.000 A 
BRANCH  21  23
ATOM     23  N   UNL     1      -3.128  11.738  18.520  0.00  0.00    +0.000 N 
ATOM     24  C   UNL     1      -4.176  12.122  19.328  0.00  0.00    +0.000 C 
ATOM     25  O   UNL     1      -4.185  12.358  20.530  0.00  0.00    +0.000 OA
ATOM     26  C   UNL     1      -5.429  12.208  18.514  0.00  0.00    +0.000 C 
ATOM     27  C   UNL     1      -5.034  11.724  17.145  0.00  0.00    +0.000 C 
ATOM     28  C   UNL     1      -3.559  11.471  17.239  0.00  0.00    +0.000 C 
ATOM     29  O   UNL     1      -2.905  11.125  16.261  0.00  0.00    +0.000 OA
ENDBRANCH  21  23
ENDBRANCH   2  17
TORSDOF 3
ENDMDL
