MODEL 1
REMARK VINA RESULT:      -6.6      0.000      0.000
REMARK  Name = 
REMARK  9 active torsions:
REMARK  status: ('A' for Active; 'I' for Inactive)
REMARK    1  A    between atoms: C_1  and  N_2
REMARK    2  A    between atoms: N_2  and  C_3
REMARK    3  A    between atoms: N_2  and  C_4
REMARK    4  A    between atoms: C_6  and  C_7
REMARK    5  A    between atoms: C_7  and  C_8
REMARK    6  A    between atoms: C_8  and  C_9
REMARK    7  A    between atoms: N_13  and  C_14
REMARK    8  A    between atoms: C_16  and  N_17
REMARK    9  A    between atoms: C_24  and  C_25
REMARK                            x       y       z     vdW  Elec       q    Type
REMARK                         _______ _______ _______ _____ _____    ______ ____
ROOT
ATOM      1  C   UNL     1      -3.046  11.487  17.821  0.00  0.00    +0.000 A 
ATOM      2  C   UNL     1      -2.061  12.045  18.661  0.00  0.00    +0.000 A 
ATOM      3  C   UNL     1      -2.364  12.618  19.901  0.00  0.00    +0.000 A 
ATOM      4  C   UNL     1      -3.669  12.562  20.360  0.00  0.00    +0.000 A 
ATOM      5  C   UNL     1      -4.687  12.339  19.427  0.00  0.00    +0.000 A 
ATOM      6  C   UNL     1      -4.381  11.740  18.198  0.00  0.00    +0.000 A 
ENDROOT
BRANCH   5   7
ATOM      7  N   UNL     1      -5.846  13.213  19.499  0.00  0.00    +0.000 N 
ATOM      8  C   UNL     1      -5.560  14.361  20.406  0.00  0.00    +0.000 C 
ATOM      9  C   UNL     1      -6.200  13.954  21.702  0.00  0.00    +0.000 A 
ATOM     10  C   UNL     1      -7.179  13.001  21.405  0.00  0.00    +0.000 A 
ATOM     11  C   UNL     1      -7.846  12.277  22.378  0.00  0.00    +0.000 A 
ATOM     12  C   UNL     1      -7.480  12.504  23.703  0.00  0.00    +0.000 A 
ATOM     13  C   UNL     1      -6.483  13.446  24.021  0.00  0.00    +0.000 A 
ATOM     14  C   UNL     1      -5.834  14.209  23.024  0.00  0.00    +0.000 A 
ATOM     15  C   UNL     1      -7.025  12.601  19.990  0.00  0.00    +0.000 C 
ATOM     16  O   UNL     1      -7.717  11.762  19.442  0.00  0.00    +0.000 OA
BRANCH  14  17
ATOM     17  C   UNL     1      -4.734  15.156  23.430  0.00  0.00    +0.000 C 
ATOM     18  F   UNL     1      -3.497  14.576  23.461  0.00  0.00    +0.000 F 
ATOM     19  F   UNL     1      -4.616  16.210  22.572  0.00  0.00    +0.000 F 
ATOM     20  F   UNL     1      -4.914  15.696  24.663  0.00  0.00    +0.000 F 
ENDBRANCH  14  17
ENDBRANCH   5   7
BRANCH   1  22
ATOM     21  C   UNL     1      -3.649  10.888  15.511  0.00  0.00    +0.000 C 
ATOM     22  N   UNL     1      -2.693  10.867  16.616  0.00  0.00    +0.000 N 
ATOM     23  C   UNL     1      -1.854   9.670  16.704  0.00  0.00    +0.000 C 
ENDBRANCH   1  22
BRANCH   3  24
ATOM     24  C   UNL     1      -1.410  13.580  20.563  0.00  0.00    +0.000 C 
BRANCH  24  25
ATOM     25  C   UNL     1      -0.021  13.045  20.881  0.00  0.00    +0.000 C 
BRANCH  25  26
ATOM     26  C   UNL     1      -0.135  11.819  21.723  0.00  0.00    +0.000 A 
ATOM     27  N   UNL     1      -0.585  11.760  22.961  0.00  0.00    +0.000 NA
ATOM     28  N   UNL     1      -0.472  10.459  23.389  0.00  0.00    +0.000 NA
ATOM     29  C   UNL     1       0.046   9.756  22.415  0.00  0.00    +0.000 A 
ATOM     30  N   UNL     1       0.278  10.569  21.345  0.00  0.00    +0.000 N 
ATOM     31  C   UNL     1       0.871  10.181  20.095  0.00  0.00    +0.000 C 
ENDBRANCH  25  26
ENDBRANCH  24  25
ENDBRANCH   3  24
TORSDOF 6
ENDMDL
MODEL 2
REMARK VINA RESULT:      -6.6      3.808      6.998
REMARK  Name = 
REMARK  9 active torsions:
REMARK  status: ('A' for Active; 'I' for Inactive)
REMARK    1  A    between atoms: C_1  and  N_2
REMARK    2  A    between atoms: N_2  and  C_3
REMARK    3  A    between atoms: N_2  and  C_4
REMARK    4  A    between atoms: C_6  and  C_7
REMARK    5  A    between atoms: C_7  and  C_8
REMARK    6  A    between atoms: C_8  and  C_9
REMARK    7  A    between atoms: N_13  and  C_14
REMARK    8  A    between atoms: C_16  and  N_17
REMARK    9  A    between atoms: C_24  and  C_25
REMARK                            x       y       z     vdW  Elec       q    Type
REMARK                         _______ _______ _______ _____ _____    ______ ____
ROOT
ATOM      1  C   UNL     1      -2.751  11.644  18.509  0.00  0.00    +0.000 A 
ATOM      2  C   UNL     1      -3.672  12.149  19.448  0.00  0.00    +0.000 A 
ATOM      3  C   UNL     1      -3.344  13.158  20.360  0.00  0.00    +0.000 A 
ATOM      4  C   UNL     1      -2.092  13.743  20.283  0.00  0.00    +0.000 A 
ATOM      5  C   UNL     1      -1.077  13.045  19.619  0.00  0.00    +0.000 A 
ATOM      6  C   UNL     1      -1.414  12.055  18.688  0.00  0.00    +0.000 A 
ENDROOT
BRANCH   5   7
ATOM      7  N   UNL     1       0.205  12.947  20.297  0.00  0.00    +0.000 N 
ATOM      8  C   UNL     1       1.125  12.068  19.519  0.00  0.00    +0.000 C 
ATOM      9  C   UNL     1       1.025  10.745  20.222  0.00  0.00    +0.000 A 
ATOM     10  C   UNL     1       0.575  10.994  21.523  0.00  0.00    +0.000 A 
ATOM     11  C   UNL     1       0.201   9.987  22.396  0.00  0.00    +0.000 A 
ATOM     12  C   UNL     1       0.252   8.679  21.920  0.00  0.00    +0.000 A 
ATOM     13  C   UNL     1       0.685   8.410  20.607  0.00  0.00    +0.000 A 
ATOM     14  C   UNL     1       1.102   9.440  19.734  0.00  0.00    +0.000 A 
ATOM     15  C   UNL     1       0.148  12.407  21.605  0.00  0.00    +0.000 C 
ATOM     16  O   UNL     1      -0.320  12.917  22.607  0.00  0.00    +0.000 OA
BRANCH  14  17
ATOM     17  C   UNL     1       1.495   9.087  18.322  0.00  0.00    +0.000 C 
ATOM     18  F   UNL     1       2.483   9.881  17.814  0.00  0.00    +0.000 F 
ATOM     19  F   UNL     1       1.971   7.812  18.222  0.00  0.00    +0.000 F 
ATOM     20  F   UNL     1       0.468   9.173  17.438  0.00  0.00    +0.000 F 
ENDBRANCH  14  17
ENDBRANCH   5   7
BRANCH   1  22
ATOM     21  C   UNL     1      -2.156  10.217  16.593  0.00  0.00    +0.000 C 
ATOM     22  N   UNL     1      -3.139  10.678  17.572  0.00  0.00    +0.000 N 
ATOM     23  C   UNL     1      -4.525  10.725  17.102  0.00  0.00    +0.000 C 
ENDBRANCH   1  22
BRANCH   3  24
ATOM     24  C   UNL     1      -4.159  13.367  21.610  0.00  0.00    +0.000 C 
BRANCH  24  25
ATOM     25  C   UNL     1      -5.597  13.827  21.413  0.00  0.00    +0.000 C 
BRANCH  25  26
ATOM     26  C   UNL     1      -6.524  12.676  21.610  0.00  0.00    +0.000 A 
ATOM     27  N   UNL     1      -6.753  12.040  22.742  0.00  0.00    +0.000 NA
ATOM     28  N   UNL     1      -7.626  11.012  22.481  0.00  0.00    +0.000 NA
ATOM     29  C   UNL     1      -7.907  11.035  21.203  0.00  0.00    +0.000 A 
ATOM     30  N   UNL     1      -7.235  12.064  20.612  0.00  0.00    +0.000 N 
ATOM     31  C   UNL     1      -7.254  12.400  19.214  0.00  0.00    +0.000 C 
ENDBRANCH  25  26
ENDBRANCH  24  25
ENDBRANCH   3  24
TORSDOF 6
ENDMDL
MODEL 3
REMARK VINA RESULT:      -6.5      3.690      6.784
REMARK  Name = 
REMARK  9 active torsions:
REMARK  status: ('A' for Active; 'I' for Inactive)
REMARK    1  A    between atoms: C_1  and  N_2
REMARK    2  A    between atoms: N_2  and  C_3
REMARK    3  A    between atoms: N_2  and  C_4
REMARK    4  A    between atoms: C_6  and  C_7
REMARK    5  A    between atoms: C_7  and  C_8
REMARK    6  A    between atoms: C_8  and  C_9
REMARK    7  A    between atoms: N_13  and  C_14
REMARK    8  A    between atoms: C_16  and  N_17
REMARK    9  A    between atoms: C_24  and  C_25
REMARK                            x       y       z     vdW  Elec       q    Type
REMARK                         _______ _______ _______ _____ _____    ______ ____
ROOT
ATOM      1  C   UNL     1      -3.041  11.839  18.444  0.00  0.00    +0.000 A 
ATOM      2  C   UNL     1      -4.103  11.918  19.367  0.00  0.00    +0.000 A 
ATOM      3  C   UNL     1      -4.044  12.709  20.520  0.00  0.00    +0.000 A 
ATOM      4  C   UNL     1      -2.933  13.510  20.721  0.00  0.00    +0.000 A 
ATOM      5  C   UNL     1      -1.758  13.195  20.029  0.00  0.00    +0.000 A 
ATOM      6  C   UNL     1      -1.829  12.425  18.861  0.00  0.00    +0.000 A 
ENDROOT
BRANCH   5   7
ATOM      7  N   UNL     1      -0.529  13.163  20.803  0.00  0.00    +0.000 N 
ATOM      8  C   UNL     1       0.525  12.420  20.052  0.00  0.00    +0.000 C 
ATOM      9  C   UNL     1       0.492  11.050  20.665  0.00  0.00    +0.000 A 
ATOM     10  C   UNL     1      -0.077  11.172  21.937  0.00  0.00    +0.000 A 
ATOM     11  C   UNL     1      -0.423  10.081  22.714  0.00  0.00    +0.000 A 
ATOM     12  C   UNL     1      -0.217   8.816  22.167  0.00  0.00    +0.000 A 
ATOM     13  C   UNL     1       0.338   8.674  20.881  0.00  0.00    +0.000 A 
ATOM     14  C   UNL     1       0.725   9.792  20.109  0.00  0.00    +0.000 A 
ATOM     15  C   UNL     1      -0.636  12.534  22.067  0.00  0.00    +0.000 C 
ATOM     16  O   UNL     1      -1.224  12.935  23.056  0.00  0.00    +0.000 OA
BRANCH  14  17
ATOM     17  C   UNL     1       1.256   9.568  18.715  0.00  0.00    +0.000 C 
ATOM     18  F   UNL     1       2.187  10.490  18.330  0.00  0.00    +0.000 F 
ATOM     19  F   UNL     1       1.872   8.358  18.585  0.00  0.00    +0.000 F 
ATOM     20  F   UNL     1       0.293   9.602  17.758  0.00  0.00    +0.000 F 
ENDBRANCH  14  17
ENDBRANCH   5   7
BRANCH   1  22
ATOM     21  C   UNL     1      -4.211  11.446  16.314  0.00  0.00    +0.000 C 
ATOM     22  N   UNL     1      -3.166  11.085  17.271  0.00  0.00    +0.000 N 
ATOM     23  C   UNL     1      -2.859   9.656  17.361  0.00  0.00    +0.000 C 
ENDBRANCH   1  22
BRANCH   3  24
ATOM     24  C   UNL     1      -4.962  12.447  21.686  0.00  0.00    +0.000 C 
BRANCH  24  25
ATOM     25  C   UNL     1      -4.702  13.259  22.948  0.00  0.00    +0.000 C 
BRANCH  25  26
ATOM     26  C   UNL     1      -5.992  13.778  23.485  0.00  0.00    +0.000 A 
ATOM     27  N   UNL     1      -6.828  13.132  24.274  0.00  0.00    +0.000 NA
ATOM     28  N   UNL     1      -7.917  13.942  24.490  0.00  0.00    +0.000 NA
ATOM     29  C   UNL     1      -7.729  15.056  23.830  0.00  0.00    +0.000 A 
ATOM     30  N   UNL     1      -6.532  15.000  23.180  0.00  0.00    +0.000 N 
ATOM     31  C   UNL     1      -5.982  16.013  22.322  0.00  0.00    +0.000 C 
ENDBRANCH  25  26
ENDBRANCH  24  25
ENDBRANCH   3  24
TORSDOF 6
ENDMDL
MODEL 4
REMARK VINA RESULT:      -6.5      0.739      1.211
REMARK  Name = 
REMARK  9 active torsions:
REMARK  status: ('A' for Active; 'I' for Inactive)
REMARK    1  A    between atoms: C_1  and  N_2
REMARK    2  A    between atoms: N_2  and  C_3
REMARK    3  A    between atoms: N_2  and  C_4
REMARK    4  A    between atoms: C_6  and  C_7
REMARK    5  A    between atoms: C_7  and  C_8
REMARK    6  A    between atoms: C_8  and  C_9
REMARK    7  A    between atoms: N_13  and  C_14
REMARK    8  A    between atoms: C_16  and  N_17
REMARK    9  A    between atoms: C_24  and  C_25
REMARK                            x       y       z     vdW  Elec       q    Type
REMARK                         _______ _______ _______ _____ _____    ______ ____
ROOT
ATOM      1  C   UNL     1      -3.311  11.091  17.630  0.00  0.00    +0.000 A 
ATOM      2  C   UNL     1      -2.132  11.477  18.299  0.00  0.00    +0.000 A 
ATOM      3  C   UNL     1      -2.143  12.091  19.556  0.00  0.00    +0.000 A 
ATOM      4  C   UNL     1      -3.354  12.252  20.207  0.00  0.00    +0.000 A 
ATOM      5  C   UNL     1      -4.526  12.202  19.442  0.00  0.00    +0.000 A 
ATOM      6  C   UNL     1      -4.513  11.562  18.197  0.00  0.00    +0.000 A 
ENDROOT
BRANCH   5   7
ATOM      7  N   UNL     1      -5.501  13.256  19.666  0.00  0.00    +0.000 N 
ATOM      8  C   UNL     1      -4.991  14.209  20.695  0.00  0.00    +0.000 C 
ATOM      9  C   UNL     1      -5.675  13.763  21.955  0.00  0.00    +0.000 A 
ATOM     10  C   UNL     1      -6.819  13.050  21.583  0.00  0.00    +0.000 A 
ATOM     11  C   UNL     1      -7.593  12.343  22.487  0.00  0.00    +0.000 A 
ATOM     12  C   UNL     1      -7.170  12.329  23.814  0.00  0.00    +0.000 A 
ATOM     13  C   UNL     1      -6.010  13.026  24.204  0.00  0.00    +0.000 A 
ATOM     14  C   UNL     1      -5.247  13.778  23.283  0.00  0.00    +0.000 A 
ATOM     15  C   UNL     1      -6.765  12.813  20.125  0.00  0.00    +0.000 C 
ATOM     16  O   UNL     1      -7.610  12.190  19.507  0.00  0.00    +0.000 OA
BRANCH  14  17
ATOM     17  C   UNL     1      -3.983  14.449  23.758  0.00  0.00    +0.000 C 
ATOM     18  F   UNL     1      -3.949  15.791  23.507  0.00  0.00    +0.000 F 
ATOM     19  F   UNL     1      -3.809  14.329  25.106  0.00  0.00    +0.000 F 
ATOM     20  F   UNL     1      -2.858  13.944  23.190  0.00  0.00    +0.000 F 
ENDBRANCH  14  17
ENDBRANCH   5   7
BRANCH   1  22
ATOM     21  C   UNL     1      -2.123   9.528  16.145  0.00  0.00    +0.000 C 
ATOM     22  N   UNL     1      -3.251  10.421  16.402  0.00  0.00    +0.000 N 
ATOM     23  C   UNL     1      -3.777  11.127  15.231  0.00  0.00    +0.000 C 
ENDBRANCH   1  22
BRANCH   3  24
ATOM     24  C   UNL     1      -0.956  12.881  20.043  0.00  0.00    +0.000 C 
BRANCH  24  25
ATOM     25  C   UNL     1       0.309  12.087  20.340  0.00  0.00    +0.000 C 
BRANCH  25  26
ATOM     26  C   UNL     1       0.067  11.168  21.489  0.00  0.00    +0.000 A 
ATOM     27  N   UNL     1      -0.414  11.502  22.670  0.00  0.00    +0.000 NA
ATOM     28  N   UNL     1      -0.428  10.374  23.455  0.00  0.00    +0.000 NA
ATOM     29  C   UNL     1       0.046   9.382  22.746  0.00  0.00    +0.000 A 
ATOM     30  N   UNL     1       0.374   9.833  21.502  0.00  0.00    +0.000 N 
ATOM     31  C   UNL     1       0.957   9.056  20.442  0.00  0.00    +0.000 C 
ENDBRANCH  25  26
ENDBRANCH  24  25
ENDBRANCH   3  24
TORSDOF 6
ENDMDL
MODEL 5
REMARK VINA RESULT:      -6.5      3.600      6.796
REMARK  Name = 
REMARK  9 active torsions:
REMARK  status: ('A' for Active; 'I' for Inactive)
REMARK    1  A    between atoms: C_1  and  N_2
REMARK    2  A    between atoms: N_2  and  C_3
REMARK    3  A    between atoms: N_2  and  C_4
REMARK    4  A    between atoms: C_6  and  C_7
REMARK    5  A    between atoms: C_7  and  C_8
REMARK    6  A    between atoms: C_8  and  C_9
REMARK    7  A    between atoms: N_13  and  C_14
REMARK    8  A    between atoms: C_16  and  N_17
REMARK    9  A    between atoms: C_24  and  C_25
REMARK                            x       y       z     vdW  Elec       q    Type
REMARK                         _______ _______ _______ _____ _____    ______ ____
ROOT
ATOM      1  C   UNL     1      -3.181  11.837  18.649  0.00  0.00    +0.000 A 
ATOM      2  C   UNL     1      -4.264  12.011  19.534  0.00  0.00    +0.000 A 
ATOM      3  C   UNL     1      -4.204  12.865  20.641  0.00  0.00    +0.000 A 
ATOM      4  C   UNL     1      -3.068  13.633  20.828  0.00  0.00    +0.000 A 
ATOM      5  C   UNL     1      -1.888  13.232  20.191  0.00  0.00    +0.000 A 
ATOM      6  C   UNL     1      -1.957  12.399  19.067  0.00  0.00    +0.000 A 
ENDROOT
BRANCH   5   7
ATOM      7  N   UNL     1      -0.682  13.199  21.001  0.00  0.00    +0.000 N 
ATOM      8  C   UNL     1       0.381  12.426  20.297  0.00  0.00    +0.000 C 
ATOM      9  C   UNL     1       0.311  11.069  20.935  0.00  0.00    +0.000 A 
ATOM     10  C   UNL     1      -0.294  11.224  22.186  0.00  0.00    +0.000 A 
ATOM     11  C   UNL     1      -0.679  10.154  22.974  0.00  0.00    +0.000 A 
ATOM     12  C   UNL     1      -0.475   8.876  22.458  0.00  0.00    +0.000 A 
ATOM     13  C   UNL     1       0.115   8.700  21.191  0.00  0.00    +0.000 A 
ATOM     14  C   UNL     1       0.541   9.797  20.410  0.00  0.00    +0.000 A 
ATOM     15  C   UNL     1      -0.836  12.596  22.274  0.00  0.00    +0.000 C 
ATOM     16  O   UNL     1      -1.447  13.025  23.236  0.00  0.00    +0.000 OA
BRANCH  14  17
ATOM     17  C   UNL     1       1.110   9.538  19.037  0.00  0.00    +0.000 C 
ATOM     18  F   UNL     1       2.059  10.444  18.658  0.00  0.00    +0.000 F 
ATOM     19  F   UNL     1       1.719   8.320  18.952  0.00  0.00    +0.000 F 
ATOM     20  F   UNL     1       0.174   9.558  18.053  0.00  0.00    +0.000 F 
ENDBRANCH  14  17
ENDBRANCH   5   7
BRANCH   1  22
ATOM     21  C   UNL     1      -4.321  11.354  16.521  0.00  0.00    +0.000 C 
ATOM     22  N   UNL     1      -3.304  11.021  17.518  0.00  0.00    +0.000 N 
ATOM     23  C   UNL     1      -3.037   9.592  17.694  0.00  0.00    +0.000 C 
ENDBRANCH   1  22
BRANCH   3  24
ATOM     24  C   UNL     1      -5.163  12.707  21.792  0.00  0.00    +0.000 C 
BRANCH  24  25
ATOM     25  C   UNL     1      -4.913  13.590  23.008  0.00  0.00    +0.000 C 
BRANCH  25  26
ATOM     26  C   UNL     1      -5.854  14.746  22.991  0.00  0.00    +0.000 A 
ATOM     27  N   UNL     1      -5.621  15.937  22.476  0.00  0.00    +0.000 NA
ATOM     28  N   UNL     1      -6.721  16.725  22.718  0.00  0.00    +0.000 NA
ATOM     29  C   UNL     1      -7.595  16.008  23.377  0.00  0.00    +0.000 A 
ATOM     30  N   UNL     1      -7.094  14.755  23.575  0.00  0.00    +0.000 N 
ATOM     31  C   UNL     1      -7.737  13.684  24.286  0.00  0.00    +0.000 C 
ENDBRANCH  25  26
ENDBRANCH  24  25
ENDBRANCH   3  24
TORSDOF 6
ENDMDL
MODEL 6
REMARK VINA RESULT:      -6.4      3.805      7.116
REMARK  Name = 
REMARK  9 active torsions:
REMARK  status: ('A' for Active; 'I' for Inactive)
REMARK    1  A    between atoms: C_1  and  N_2
REMARK    2  A    between atoms: N_2  and  C_3
REMARK    3  A    between atoms: N_2  and  C_4
REMARK    4  A    between atoms: C_6  and  C_7
REMARK    5  A    between atoms: C_7  and  C_8
REMARK    6  A    between atoms: C_8  and  C_9
REMARK    7  A    between atoms: N_13  and  C_14
REMARK    8  A    between atoms: C_16  and  N_17
REMARK    9  A    between atoms: C_24  and  C_25
REMARK                            x       y       z     vdW  Elec       q    Type
REMARK                         _______ _______ _______ _____ _____    ______ ____
ROOT
ATOM      1  C   UNL     1      -2.788  11.594  18.346  0.00  0.00    +0.000 A 
ATOM      2  C   UNL     1      -3.732  11.862  19.358  0.00  0.00    +0.000 A 
ATOM      3  C   UNL     1      -3.487  12.762  20.400  0.00  0.00    +0.000 A 
ATOM      4  C   UNL     1      -2.305  13.482  20.394  0.00  0.00    +0.000 A 
ATOM      5  C   UNL     1      -1.240  12.995  19.626  0.00  0.00    +0.000 A 
ATOM      6  C   UNL     1      -1.497  12.116  18.567  0.00  0.00    +0.000 A 
ENDROOT
BRANCH   5   7
ATOM      7  N   UNL     1       0.062  12.940  20.269  0.00  0.00    +0.000 N 
ATOM      8  C   UNL     1       0.996  12.114  19.452  0.00  0.00    +0.000 C 
ATOM      9  C   UNL     1       0.970  10.776  20.134  0.00  0.00    +0.000 A 
ATOM     10  C   UNL     1       0.545  10.984  21.450  0.00  0.00    +0.000 A 
ATOM     11  C   UNL     1       0.236   9.948  22.314  0.00  0.00    +0.000 A 
ATOM     12  C   UNL     1       0.329   8.651  21.813  0.00  0.00    +0.000 A 
ATOM     13  C   UNL     1       0.738   8.423  20.485  0.00  0.00    +0.000 A 
ATOM     14  C   UNL     1       1.089   9.484  19.621  0.00  0.00    +0.000 A 
ATOM     15  C   UNL     1       0.062  12.376  21.568  0.00  0.00    +0.000 C 
ATOM     16  O   UNL     1      -0.400  12.850  22.590  0.00  0.00    +0.000 OA
BRANCH  14  17
ATOM     17  C   UNL     1       1.459   9.171  18.193  0.00  0.00    +0.000 C 
ATOM     18  F   UNL     1       1.573   7.834  17.939  0.00  0.00    +0.000 F 
ATOM     19  F   UNL     1       0.529   9.629  17.306  0.00  0.00    +0.000 F 
ATOM     20  F   UNL     1       2.642   9.717  17.810  0.00  0.00    +0.000 F 
ENDBRANCH  14  17
ENDBRANCH   5   7
BRANCH   1  22
ATOM     21  C   UNL     1      -2.021   9.955  16.678  0.00  0.00    +0.000 C 
ATOM     22  N   UNL     1      -3.098  10.734  17.286  0.00  0.00    +0.000 N 
ATOM     23  C   UNL     1      -4.164  11.156  16.374  0.00  0.00    +0.000 C 
ENDBRANCH   1  22
BRANCH   3  24
ATOM     24  C   UNL     1      -4.287  12.705  21.676  0.00  0.00    +0.000 C 
BRANCH  24  25
ATOM     25  C   UNL     1      -5.009  13.983  22.081  0.00  0.00    +0.000 C 
BRANCH  25  26
ATOM     26  C   UNL     1      -6.162  13.650  22.966  0.00  0.00    +0.000 A 
ATOM     27  N   UNL     1      -6.630  12.444  23.219  0.00  0.00    +0.000 NA
ATOM     28  N   UNL     1      -7.728  12.580  24.035  0.00  0.00    +0.000 NA
ATOM     29  C   UNL     1      -7.912  13.856  24.256  0.00  0.00    +0.000 A 
ATOM     30  N   UNL     1      -6.952  14.570  23.602  0.00  0.00    +0.000 N 
ATOM     31  C   UNL     1      -6.831  16.002  23.570  0.00  0.00    +0.000 C 
ENDBRANCH  25  26
ENDBRANCH  24  25
ENDBRANCH   3  24
TORSDOF 6
ENDMDL
MODEL 7
REMARK VINA RESULT:      -6.4     11.118     13.490
REMARK  Name = 
REMARK  9 active torsions:
REMARK  status: ('A' for Active; 'I' for Inactive)
REMARK    1  A    between atoms: C_1  and  N_2
REMARK    2  A    between atoms: N_2  and  C_3
REMARK    3  A    between atoms: N_2  and  C_4
REMARK    4  A    between atoms: C_6  and  C_7
REMARK    5  A    between atoms: C_7  and  C_8
REMARK    6  A    between atoms: C_8  and  C_9
REMARK    7  A    between atoms: N_13  and  C_14
REMARK    8  A    between atoms: C_16  and  N_17
REMARK    9  A    between atoms: C_24  and  C_25
REMARK                            x       y       z     vdW  Elec       q    Type
REMARK                         _______ _______ _______ _____ _____    ______ ____
ROOT
ATOM      1  C   UNL     1       6.765  15.009  20.161  0.00  0.00    +0.000 A 
ATOM      2  C   UNL     1       5.949  14.599  21.235  0.00  0.00    +0.000 A 
ATOM      3  C   UNL     1       6.455  14.352  22.515  0.00  0.00    +0.000 A 
ATOM      4  C   UNL     1       7.795  14.600  22.761  0.00  0.00    +0.000 A 
ATOM      5  C   UNL     1       8.665  14.666  21.667  0.00  0.00    +0.000 A 
ATOM      6  C   UNL     1       8.154  14.940  20.392  0.00  0.00    +0.000 A 
ENDROOT
BRANCH   5   7
ATOM      7  N   UNL     1       9.903  13.911  21.766  0.00  0.00    +0.000 N 
ATOM      8  C   UNL     1      10.778  14.215  20.597  0.00  0.00    +0.000 C 
ATOM      9  C   UNL     1      10.535  13.061  19.667  0.00  0.00    +0.000 A 
ATOM     10  C   UNL     1      10.052  11.997  20.436  0.00  0.00    +0.000 A 
ATOM     11  C   UNL     1       9.556  10.831  19.880  0.00  0.00    +0.000 A 
ATOM     12  C   UNL     1       9.515  10.754  18.490  0.00  0.00    +0.000 A 
ATOM     13  C   UNL     1       9.980  11.823  17.699  0.00  0.00    +0.000 A 
ATOM     14  C   UNL     1      10.522  12.994  18.274  0.00  0.00    +0.000 A 
ATOM     15  C   UNL     1       9.744  12.504  21.790  0.00  0.00    +0.000 C 
ATOM     16  O   UNL     1       9.278  11.818  22.682  0.00  0.00    +0.000 OA
BRANCH  14  17
ATOM     17  C   UNL     1      10.944  14.123  17.368  0.00  0.00    +0.000 C 
ATOM     18  F   UNL     1      12.157  14.661  17.694  0.00  0.00    +0.000 F 
ATOM     19  F   UNL     1      11.064  13.726  16.068  0.00  0.00    +0.000 F 
ATOM     20  F   UNL     1      10.074  15.165  17.362  0.00  0.00    +0.000 F 
ENDBRANCH  14  17
ENDBRANCH   5   7
BRANCH   1  22
ATOM     21  C   UNL     1       6.850  14.770  17.712  0.00  0.00    +0.000 C 
ATOM     22  N   UNL     1       6.208  15.307  18.911  0.00  0.00    +0.000 N 
ATOM     23  C   UNL     1       5.581  16.621  18.756  0.00  0.00    +0.000 C 
ENDBRANCH   1  22
BRANCH   3  24
ATOM     24  C   UNL     1       5.687  13.511  23.502  0.00  0.00    +0.000 C 
BRANCH  24  25
ATOM     25  C   UNL     1       6.074  12.041  23.584  0.00  0.00    +0.000 C 
BRANCH  25  26
ATOM     26  C   UNL     1       5.984  11.575  24.998  0.00  0.00    +0.000 A 
ATOM     27  N   UNL     1       5.005  10.870  25.529  0.00  0.00    +0.000 NA
ATOM     28  N   UNL     1       5.282  10.701  26.864  0.00  0.00    +0.000 NA
ATOM     29  C   UNL     1       6.413  11.306  27.122  0.00  0.00    +0.000 A 
ATOM     30  N   UNL     1       6.892  11.874  25.979  0.00  0.00    +0.000 N 
ATOM     31  C   UNL     1       8.093  12.655  25.856  0.00  0.00    +0.000 C 
ENDBRANCH  25  26
ENDBRANCH  24  25
ENDBRANCH   3  24
TORSDOF 6
ENDMDL
MODEL 8
REMARK VINA RESULT:      -6.4      3.470      5.485
REMARK  Name = 
REMARK  9 active torsions:
REMARK  status: ('A' for Active; 'I' for Inactive)
REMARK    1  A    between atoms: C_1  and  N_2
REMARK    2  A    between atoms: N_2  and  C_3
REMARK    3  A    between atoms: N_2  and  C_4
REMARK    4  A    between atoms: C_6  and  C_7
REMARK    5  A    between atoms: C_7  and  C_8
REMARK    6  A    between atoms: C_8  and  C_9
REMARK    7  A    between atoms: N_13  and  C_14
REMARK    8  A    between atoms: C_16  and  N_17
REMARK    9  A    between atoms: C_24  and  C_25
REMARK                            x       y       z     vdW  Elec       q    Type
REMARK                         _______ _______ _______ _____ _____    ______ ____
ROOT
ATOM      1  C   UNL     1      -1.392  10.684  18.387  0.00  0.00    +0.000 A 
ATOM      2  C   UNL     1      -0.234  10.022  17.931  0.00  0.00    +0.000 A 
ATOM      3  C   UNL     1       0.764   9.562  18.797  0.00  0.00    +0.000 A 
ATOM      4  C   UNL     1       0.569   9.688  20.162  0.00  0.00    +0.000 A 
ATOM      5  C   UNL     1      -0.370  10.623  20.612  0.00  0.00    +0.000 A 
ATOM      6  C   UNL     1      -1.382  11.058  19.746  0.00  0.00    +0.000 A 
ENDROOT
BRANCH   5   7
ATOM      7  N   UNL     1       0.047  11.509  21.685  0.00  0.00    +0.000 N 
ATOM      8  C   UNL     1      -1.110  11.802  22.580  0.00  0.00    +0.000 C 
ATOM      9  C   UNL     1      -1.590  13.143  22.105  0.00  0.00    +0.000 A 
ATOM     10  C   UNL     1      -0.524  13.760  21.443  0.00  0.00    +0.000 A 
ATOM     11  C   UNL     1      -0.662  14.935  20.725  0.00  0.00    +0.000 A 
ATOM     12  C   UNL     1      -1.938  15.487  20.645  0.00  0.00    +0.000 A 
ATOM     13  C   UNL     1      -3.028  14.870  21.289  0.00  0.00    +0.000 A 
ATOM     14  C   UNL     1      -2.871  13.692  22.053  0.00  0.00    +0.000 A 
ATOM     15  C   UNL     1       0.552  12.763  21.263  0.00  0.00    +0.000 C 
ATOM     16  O   UNL     1       1.603  12.993  20.692  0.00  0.00    +0.000 OA
BRANCH  14  17
ATOM     17  C   UNL     1      -4.092  13.052  22.665  0.00  0.00    +0.000 C 
ATOM     18  F   UNL     1      -5.024  13.952  23.096  0.00  0.00    +0.000 F 
ATOM     19  F   UNL     1      -4.749  12.245  21.783  0.00  0.00    +0.000 F 
ATOM     20  F   UNL     1      -3.810  12.276  23.744  0.00  0.00    +0.000 F 
ENDBRANCH  14  17
ENDBRANCH   5   7
BRANCH   1  22
ATOM     21  C   UNL     1      -3.679  11.519  18.028  0.00  0.00    +0.000 C 
ATOM     22  N   UNL     1      -2.396  11.072  17.491  0.00  0.00    +0.000 N 
ATOM     23  C   UNL     1      -2.459  10.360  16.213  0.00  0.00    +0.000 C 
ENDBRANCH   1  22
BRANCH   3  24
ATOM     24  C   UNL     1       2.154   9.273  18.293  0.00  0.00    +0.000 C 
BRANCH  24  25
ATOM     25  C   UNL     1       2.321   8.018  17.448  0.00  0.00    +0.000 C 
BRANCH  25  26
ATOM     26  C   UNL     1       2.966   6.947  18.261  0.00  0.00    +0.000 A 
ATOM     27  N   UNL     1       2.538   6.476  19.415  0.00  0.00    +0.000 NA
ATOM     28  N   UNL     1       3.446   5.543  19.854  0.00  0.00    +0.000 NA
ATOM     29  C   UNL     1       4.407   5.467  18.970  0.00  0.00    +0.000 A 
ATOM     30  N   UNL     1       4.151   6.334  17.949  0.00  0.00    +0.000 N 
ATOM     31  C   UNL     1       4.986   6.570  16.803  0.00  0.00    +0.000 C 
ENDBRANCH  25  26
ENDBRANCH  24  25
ENDBRANCH   3  24
TORSDOF 6
ENDMDL
MODEL 9
REMARK VINA RESULT:      -6.3      3.749      6.660
REMARK  Name = 
REMARK  9 active torsions:
REMARK  status: ('A' for Active; 'I' for Inactive)
REMARK    1  A    between atoms: C_1  and  N_2
REMARK    2  A    between atoms: N_2  and  C_3
REMARK    3  A    between atoms: N_2  and  C_4
REMARK    4  A    between atoms: C_6  and  C_7
REMARK    5  A    between atoms: C_7  and  C_8
REMARK    6  A    between atoms: C_8  and  C_9
REMARK    7  A    between atoms: N_13  and  C_14
REMARK    8  A    between atoms: C_16  and  N_17
REMARK    9  A    between atoms: C_24  and  C_25
REMARK                            x       y       z     vdW  Elec       q    Type
REMARK                         _______ _______ _______ _____ _____    ______ ____
ROOT
ATOM      1  C   UNL     1      -3.117  11.965  18.765  0.00  0.00    +0.000 A 
ATOM      2  C   UNL     1      -4.117  12.312  19.696  0.00  0.00    +0.000 A 
ATOM      3  C   UNL     1      -3.900  13.231  20.729  0.00  0.00    +0.000 A 
ATOM      4  C   UNL     1      -2.683  13.888  20.791  0.00  0.00    +0.000 A 
ATOM      5  C   UNL     1      -1.593  13.323  20.118  0.00  0.00    +0.000 A 
ATOM      6  C   UNL     1      -1.819  12.425  19.067  0.00  0.00    +0.000 A 
ENDROOT
BRANCH   5   7
ATOM      7  N   UNL     1      -0.346  13.221  20.857  0.00  0.00    +0.000 N 
ATOM      8  C   UNL     1       0.638  12.410  20.083  0.00  0.00    +0.000 C 
ATOM      9  C   UNL     1       0.539  11.049  20.708  0.00  0.00    +0.000 A 
ATOM     10  C   UNL     1       0.015  11.213  21.994  0.00  0.00    +0.000 A 
ATOM     11  C   UNL     1      -0.375  10.151  22.790  0.00  0.00    +0.000 A 
ATOM     12  C   UNL     1      -0.262   8.872  22.247  0.00  0.00    +0.000 A 
ATOM     13  C   UNL     1       0.246   8.688  20.947  0.00  0.00    +0.000 A 
ATOM     14  C   UNL     1       0.679   9.775  20.155  0.00  0.00    +0.000 A 
ATOM     15  C   UNL     1      -0.456  12.608  22.129  0.00  0.00    +0.000 C 
ATOM     16  O   UNL     1      -0.990  13.050  23.130  0.00  0.00    +0.000 OA
BRANCH  14  17
ATOM     17  C   UNL     1       1.155   9.510  18.749  0.00  0.00    +0.000 C 
ATOM     18  F   UNL     1       2.185  10.318  18.359  0.00  0.00    +0.000 F 
ATOM     19  F   UNL     1       1.617   8.236  18.591  0.00  0.00    +0.000 F 
ATOM     20  F   UNL     1       0.187   9.676  17.811  0.00  0.00    +0.000 F 
ENDBRANCH  14  17
ENDBRANCH   5   7
BRANCH   1  22
ATOM     21  C   UNL     1      -2.483  11.057  16.567  0.00  0.00    +0.000 C 
ATOM     22  N   UNL     1      -3.395  11.089  17.709  0.00  0.00    +0.000 N 
ATOM     23  C   UNL     1      -4.805  10.845  17.398  0.00  0.00    +0.000 C 
ENDBRANCH   1  22
BRANCH   3  24
ATOM     24  C   UNL     1      -4.792  13.255  21.943  0.00  0.00    +0.000 C 
BRANCH  24  25
ATOM     25  C   UNL     1      -4.108  13.496  23.282  0.00  0.00    +0.000 C 
BRANCH  25  26
ATOM     26  C   UNL     1      -4.538  14.812  23.837  0.00  0.00    +0.000 A 
ATOM     27  N   UNL     1      -5.614  15.491  23.494  0.00  0.00    +0.000 NA
ATOM     28  N   UNL     1      -5.610  16.671  24.198  0.00  0.00    +0.000 NA
ATOM     29  C   UNL     1      -4.538  16.692  24.947  0.00  0.00    +0.000 A 
ATOM     30  N   UNL     1      -3.829  15.544  24.752  0.00  0.00    +0.000 N 
ATOM     31  C   UNL     1      -2.575  15.204  25.367  0.00  0.00    +0.000 C 
ENDBRANCH  25  26
ENDBRANCH  24  25
ENDBRANCH   3  24
TORSDOF 6
ENDMDL
