MODEL 1
REMARK VINA RESULT:      -7.6      0.000      0.000
REMARK  Name = 
REMARK  7 active torsions:
REMARK  status: ('A' for Active; 'I' for Inactive)
REMARK    1  A    between atoms: C_1  and  C_2
REMARK    2  A    between atoms: C_7  and  C_8
REMARK    3  A    between atoms: C_13  and  C_15
REMARK    4  A    between atoms: C_15  and  C_16
REMARK    5  A    between atoms: C_15  and  C_17
REMARK    6  A    between atoms: C_18  and  C_19
REMARK    7  A    between atoms: C_22  and  C_23
REMARK                            x       y       z     vdW  Elec       q    Type
REMARK                         _______ _______ _______ _____ _____    ______ ____
ROOT
ATOM      1  C   UNL     1       3.945   6.435  17.825  0.00  0.00    +0.000 C 
ATOM      2  F   UNL     1       4.336   6.849  19.082  0.00  0.00    +0.000 F 
ATOM      3  C   UNL     1       2.655   5.628  18.049  0.00  0.00    +0.000 C 
ATOM      4  C   UNL     1       1.575   6.704  18.290  0.00  0.00    +0.000 C 
ATOM      5  N   UNL     1       2.151   7.965  17.824  0.00  0.00    +0.000 N 
ATOM      6  C   UNL     1       1.782   9.267  18.127  0.00  0.00    +0.000 C 
ATOM      7  O   UNL     1       2.465  10.215  17.704  0.00  0.00    +0.000 OA
ATOM      8  C   UNL     1       3.402   7.680  17.112  0.00  0.00    +0.000 C 
ENDROOT
BRANCH   1  15
ATOM      9  C   UNL     1       6.060   4.027  13.824  0.00  0.00    +0.000 C 
ATOM     10  C   UNL     1       6.117   4.524  15.237  0.00  0.00    +0.000 A 
ATOM     11  C   UNL     1       7.225   4.210  16.036  0.00  0.00    +0.000 A 
ATOM     12  C   UNL     1       7.270   4.647  17.350  0.00  0.00    +0.000 A 
ATOM     13  F   UNL     1       8.326   4.342  18.113  0.00  0.00    +0.000 F 
ATOM     14  C   UNL     1       6.215   5.375  17.898  0.00  0.00    +0.000 A 
ATOM     15  C   UNL     1       5.078   5.692  17.133  0.00  0.00    +0.000 A 
ATOM     16  C   UNL     1       5.050   5.271  15.791  0.00  0.00    +0.000 A 
ENDBRANCH   1  15
BRANCH   6  17
ATOM     17  C   UNL     1       0.529   9.539  18.990  0.00  0.00    +0.000 C 
ATOM     18  C   UNL     1       0.877   9.705  20.487  0.00  0.00    +0.000 C 
BRANCH  17  19
ATOM     19  C   UNL     1      -0.260  10.757  18.557  0.00  0.00    +0.000 A 
ATOM     20  C   UNL     1       0.097  12.114  18.843  0.00  0.00    +0.000 A 
ATOM     21  C   UNL     1       1.258  12.644  19.602  0.00  0.00    +0.000 C 
ATOM     22  N   UNL     1      -0.750  12.982  18.282  0.00  0.00    +0.000 NA
ATOM     23  N   UNL     1      -1.603  12.214  17.601  0.00  0.00    +0.000 N 
ATOM     24  C   UNL     1      -1.342  10.874  17.697  0.00  0.00    +0.000 A 
ATOM     25  C   UNL     1      -2.148   9.904  16.913  0.00  0.00    +0.000 C 
ATOM     26  H   UNL     1      -2.328  12.671  17.061  0.00  0.00    +0.000 HD
ENDBRANCH  17  19
ENDBRANCH   6  17
TORSDOF 3
ENDMDL
MODEL 2
REMARK VINA RESULT:      -7.5      3.011      8.565
REMARK  Name = 
REMARK  7 active torsions:
REMARK  status: ('A' for Active; 'I' for Inactive)
REMARK    1  A    between atoms: C_1  and  C_2
REMARK    2  A    between atoms: C_7  and  C_8
REMARK    3  A    between atoms: C_13  and  C_15
REMARK    4  A    between atoms: C_15  and  C_16
REMARK    5  A    between atoms: C_15  and  C_17
REMARK    6  A    between atoms: C_18  and  C_19
REMARK    7  A    between atoms: C_22  and  C_23
REMARK                            x       y       z     vdW  Elec       q    Type
REMARK                         _______ _______ _______ _____ _____    ______ ____
ROOT
ATOM      1  C   UNL     1       1.405   8.892  18.354  0.00  0.00    +0.000 C 
ATOM      2  F   UNL     1       0.692   8.024  17.551  0.00  0.00    +0.000 F 
ATOM      3  C   UNL     1       1.524   8.180  19.711  0.00  0.00    +0.000 C 
ATOM      4  C   UNL     1       2.619   7.116  19.483  0.00  0.00    +0.000 C 
ATOM      5  N   UNL     1       3.307   7.503  18.252  0.00  0.00    +0.000 N 
ATOM      6  C   UNL     1       4.099   6.738  17.408  0.00  0.00    +0.000 C 
ATOM      7  O   UNL     1       4.519   7.227  16.347  0.00  0.00    +0.000 OA
ATOM      8  C   UNL     1       2.855   8.841  17.858  0.00  0.00    +0.000 C 
ENDROOT
BRANCH   1  15
ATOM      9  C   UNL     1       1.439  13.980  18.984  0.00  0.00    +0.000 C 
ATOM     10  C   UNL     1       0.720  12.698  18.685  0.00  0.00    +0.000 A 
ATOM     11  C   UNL     1      -0.672  12.709  18.519  0.00  0.00    +0.000 A 
ATOM     12  C   UNL     1      -1.342  11.523  18.267  0.00  0.00    +0.000 A 
ATOM     13  F   UNL     1      -2.672  11.535  18.114  0.00  0.00    +0.000 F 
ATOM     14  C   UNL     1      -0.654  10.313  18.200  0.00  0.00    +0.000 A 
ATOM     15  C   UNL     1       0.739  10.260  18.380  0.00  0.00    +0.000 A 
ATOM     16  C   UNL     1       1.420  11.471  18.607  0.00  0.00    +0.000 A 
ENDBRANCH   1  15
BRANCH   6  17
ATOM     17  C   UNL     1       4.455   5.282  17.785  0.00  0.00    +0.000 C 
ATOM     18  C   UNL     1       3.485   4.260  17.148  0.00  0.00    +0.000 C 
BRANCH  17  19
ATOM     19  C   UNL     1       5.866   4.880  17.409  0.00  0.00    +0.000 A 
ATOM     20  C   UNL     1       6.281   4.444  16.110  0.00  0.00    +0.000 A 
ATOM     21  C   UNL     1       5.478   4.273  14.873  0.00  0.00    +0.000 C 
ATOM     22  N   UNL     1       7.596   4.217  16.055  0.00  0.00    +0.000 NA
ATOM     23  N   UNL     1       8.038   4.551  17.270  0.00  0.00    +0.000 N 
ATOM     24  C   UNL     1       7.055   4.990  18.116  0.00  0.00    +0.000 A 
ATOM     25  C   UNL     1       7.411   5.489  19.469  0.00  0.00    +0.000 C 
ATOM     26  H   UNL     1       9.032   4.486  17.450  0.00  0.00    +0.000 HD
ENDBRANCH  17  19
ENDBRANCH   6  17
TORSDOF 3
ENDMDL
MODEL 3
REMARK VINA RESULT:      -7.5      3.257      8.278
REMARK  Name = 
REMARK  7 active torsions:
REMARK  status: ('A' for Active; 'I' for Inactive)
REMARK    1  A    between atoms: C_1  and  C_2
REMARK    2  A    between atoms: C_7  and  C_8
REMARK    3  A    between atoms: C_13  and  C_15
REMARK    4  A    between atoms: C_15  and  C_16
REMARK    5  A    between atoms: C_15  and  C_17
REMARK    6  A    between atoms: C_18  and  C_19
REMARK    7  A    between atoms: C_22  and  C_23
REMARK                            x       y       z     vdW  Elec       q    Type
REMARK                         _______ _______ _______ _____ _____    ______ ____
ROOT
ATOM      1  C   UNL     1       1.234   9.815  18.786  0.00  0.00    +0.000 C 
ATOM      2  F   UNL     1       0.258   9.308  17.952  0.00  0.00    +0.000 F 
ATOM      3  C   UNL     1       0.916   9.240  20.175  0.00  0.00    +0.000 C 
ATOM      4  C   UNL     1       1.405   7.778  20.098  0.00  0.00    +0.000 C 
ATOM      5  N   UNL     1       2.279   7.706  18.927  0.00  0.00    +0.000 N 
ATOM      6  C   UNL     1       2.682   6.599  18.197  0.00  0.00    +0.000 C 
ATOM      7  O   UNL     1       3.354   6.754  17.163  0.00  0.00    +0.000 OA
ATOM      8  C   UNL     1       2.527   9.067  18.438  0.00  0.00    +0.000 C 
ENDROOT
BRANCH   1  15
ATOM      9  C   UNL     1       3.640  14.281  18.046  0.00  0.00    +0.000 C 
ATOM     10  C   UNL     1       2.404  13.491  18.353  0.00  0.00    +0.000 A 
ATOM     11  C   UNL     1       1.220  14.163  18.686  0.00  0.00    +0.000 A 
ATOM     12  C   UNL     1       0.081  13.436  18.994  0.00  0.00    +0.000 A 
ATOM     13  F   UNL     1      -1.047  14.078  19.316  0.00  0.00    +0.000 F 
ATOM     14  C   UNL     1       0.104  12.042  19.002  0.00  0.00    +0.000 A 
ATOM     15  C   UNL     1       1.278  11.333  18.693  0.00  0.00    +0.000 A 
ATOM     16  C   UNL     1       2.424  12.076  18.352  0.00  0.00    +0.000 A 
ENDBRANCH   1  15
BRANCH   6  17
ATOM     17  C   UNL     1       2.297   5.177  18.663  0.00  0.00    +0.000 C 
ATOM     18  C   UNL     1       1.446   4.428  17.611  0.00  0.00    +0.000 C 
BRANCH  17  19
ATOM     19  C   UNL     1       3.484   4.303  19.009  0.00  0.00    +0.000 A 
ATOM     20  C   UNL     1       3.558   3.422  20.135  0.00  0.00    +0.000 A 
ATOM     21  C   UNL     1       2.554   3.163  21.197  0.00  0.00    +0.000 C 
ATOM     22  N   UNL     1       4.700   2.729  20.154  0.00  0.00    +0.000 NA
ATOM     23  N   UNL     1       5.330   3.105  19.038  0.00  0.00    +0.000 N 
ATOM     24  C   UNL     1       4.637   4.020  18.291  0.00  0.00    +0.000 A 
ATOM     25  C   UNL     1       5.168   4.456  16.975  0.00  0.00    +0.000 C 
ATOM     26  H   UNL     1       6.221   2.674  18.826  0.00  0.00    +0.000 HD
ENDBRANCH  17  19
ENDBRANCH   6  17
TORSDOF 3
ENDMDL
MODEL 4
REMARK VINA RESULT:      -7.5      3.017      8.471
REMARK  Name = 
REMARK  7 active torsions:
REMARK  status: ('A' for Active; 'I' for Inactive)
REMARK    1  A    between atoms: C_1  and  C_2
REMARK    2  A    between atoms: C_7  and  C_8
REMARK    3  A    between atoms: C_13  and  C_15
REMARK    4  A    between atoms: C_15  and  C_16
REMARK    5  A    between atoms: C_15  and  C_17
REMARK    6  A    between atoms: C_18  and  C_19
REMARK    7  A    between atoms: C_22  and  C_23
REMARK                            x       y       z     vdW  Elec       q    Type
REMARK                         _______ _______ _______ _____ _____    ______ ____
ROOT
ATOM      1  C   UNL     1       1.373   8.949  18.338  0.00  0.00    +0.000 C 
ATOM      2  F   UNL     1       0.668   8.073  17.538  0.00  0.00    +0.000 F 
ATOM      3  C   UNL     1       1.509   8.237  19.693  0.00  0.00    +0.000 C 
ATOM      4  C   UNL     1       2.616   7.187  19.458  0.00  0.00    +0.000 C 
ATOM      5  N   UNL     1       3.293   7.584  18.224  0.00  0.00    +0.000 N 
ATOM      6  C   UNL     1       4.089   6.830  17.376  0.00  0.00    +0.000 C 
ATOM      7  O   UNL     1       4.497   7.326  16.312  0.00  0.00    +0.000 OA
ATOM      8  C   UNL     1       2.822   8.917  17.834  0.00  0.00    +0.000 C 
ENDROOT
BRANCH   1  15
ATOM      9  C   UNL     1       1.352  14.039  18.945  0.00  0.00    +0.000 C 
ATOM     10  C   UNL     1       0.645  12.747  18.664  0.00  0.00    +0.000 A 
ATOM     11  C   UNL     1      -0.749  12.740  18.521  0.00  0.00    +0.000 A 
ATOM     12  C   UNL     1      -1.408  11.544  18.285  0.00  0.00    +0.000 A 
ATOM     13  F   UNL     1      -2.740  11.538  18.154  0.00  0.00    +0.000 F 
ATOM     14  C   UNL     1      -0.705  10.343  18.211  0.00  0.00    +0.000 A 
ATOM     15  C   UNL     1       0.691  10.308  18.369  0.00  0.00    +0.000 A 
ATOM     16  C   UNL     1       1.359  11.529  18.580  0.00  0.00    +0.000 A 
ENDBRANCH   1  15
BRANCH   6  17
ATOM     17  C   UNL     1       4.466   5.379  17.749  0.00  0.00    +0.000 C 
ATOM     18  C   UNL     1       3.463   4.350  17.178  0.00  0.00    +0.000 C 
BRANCH  17  19
ATOM     19  C   UNL     1       5.855   4.972  17.301  0.00  0.00    +0.000 A 
ATOM     20  C   UNL     1       7.021   4.970  18.132  0.00  0.00    +0.000 A 
ATOM     21  C   UNL     1       7.162   5.355  19.559  0.00  0.00    +0.000 C 
ATOM     22  N   UNL     1       8.094   4.503  17.488  0.00  0.00    +0.000 NA
ATOM     23  N   UNL     1       7.628   4.156  16.285  0.00  0.00    +0.000 N 
ATOM     24  C   UNL     1       6.287   4.379  16.124  0.00  0.00    +0.000 A 
ATOM     25  C   UNL     1       5.610   3.950  14.874  0.00  0.00    +0.000 C 
ATOM     26  H   UNL     1       8.274   3.739  15.626  0.00  0.00    +0.000 HD
ENDBRANCH  17  19
ENDBRANCH   6  17
TORSDOF 3
ENDMDL
MODEL 5
REMARK VINA RESULT:      -7.4      0.220      1.633
REMARK  Name = 
REMARK  7 active torsions:
REMARK  status: ('A' for Active; 'I' for Inactive)
REMARK    1  A    between atoms: C_1  and  C_2
REMARK    2  A    between atoms: C_7  and  C_8
REMARK    3  A    between atoms: C_13  and  C_15
REMARK    4  A    between atoms: C_15  and  C_16
REMARK    5  A    between atoms: C_15  and  C_17
REMARK    6  A    between atoms: C_18  and  C_19
REMARK    7  A    between atoms: C_22  and  C_23
REMARK                            x       y       z     vdW  Elec       q    Type
REMARK                         _______ _______ _______ _____ _____    ______ ____
ROOT
ATOM      1  C   UNL     1       3.913   6.442  17.873  0.00  0.00    +0.000 C 
ATOM      2  F   UNL     1       4.266   6.806  19.157  0.00  0.00    +0.000 F 
ATOM      3  C   UNL     1       2.607   5.647  18.025  0.00  0.00    +0.000 C 
ATOM      4  C   UNL     1       1.533   6.729  18.269  0.00  0.00    +0.000 C 
ATOM      5  N   UNL     1       2.140   7.997  17.868  0.00  0.00    +0.000 N 
ATOM      6  C   UNL     1       1.778   9.292  18.207  0.00  0.00    +0.000 C 
ATOM      7  O   UNL     1       2.487  10.245  17.841  0.00  0.00    +0.000 OA
ATOM      8  C   UNL     1       3.411   7.720  17.189  0.00  0.00    +0.000 C 
ENDROOT
BRANCH   1  15
ATOM      9  C   UNL     1       6.080   4.031  13.902  0.00  0.00    +0.000 C 
ATOM     10  C   UNL     1       6.123   4.540  15.312  0.00  0.00    +0.000 A 
ATOM     11  C   UNL     1       7.231   4.246  16.118  0.00  0.00    +0.000 A 
ATOM     12  C   UNL     1       7.263   4.694  17.429  0.00  0.00    +0.000 A 
ATOM     13  F   UNL     1       8.320   4.410  18.200  0.00  0.00    +0.000 F 
ATOM     14  C   UNL     1       6.196   5.413  17.966  0.00  0.00    +0.000 A 
ATOM     15  C   UNL     1       5.060   5.709  17.193  0.00  0.00    +0.000 A 
ATOM     16  C   UNL     1       5.044   5.277  15.854  0.00  0.00    +0.000 A 
ENDBRANCH   1  15
BRANCH   6  17
ATOM     17  C   UNL     1       0.501   9.550  19.036  0.00  0.00    +0.000 C 
ATOM     18  C   UNL     1       0.795   9.627  20.552  0.00  0.00    +0.000 C 
BRANCH  17  19
ATOM     19  C   UNL     1      -0.242  10.810  18.642  0.00  0.00    +0.000 A 
ATOM     20  C   UNL     1      -1.525  10.847  18.008  0.00  0.00    +0.000 A 
ATOM     21  C   UNL     1      -2.401   9.724  17.589  0.00  0.00    +0.000 C 
ATOM     22  N   UNL     1      -1.963  12.097  17.837  0.00  0.00    +0.000 NA
ATOM     23  N   UNL     1      -1.017  12.855  18.396  0.00  0.00    +0.000 N 
ATOM     24  C   UNL     1       0.024  12.142  18.928  0.00  0.00    +0.000 A 
ATOM     25  C   UNL     1       1.102  12.845  19.669  0.00  0.00    +0.000 C 
ATOM     26  H   UNL     1      -1.157  13.858  18.411  0.00  0.00    +0.000 HD
ENDBRANCH  17  19
ENDBRANCH   6  17
TORSDOF 3
ENDMDL
MODEL 6
REMARK VINA RESULT:      -7.4      2.999      8.347
REMARK  Name = 
REMARK  7 active torsions:
REMARK  status: ('A' for Active; 'I' for Inactive)
REMARK    1  A    between atoms: C_1  and  C_2
REMARK    2  A    between atoms: C_7  and  C_8
REMARK    3  A    between atoms: C_13  and  C_15
REMARK    4  A    between atoms: C_15  and  C_16
REMARK    5  A    between atoms: C_15  and  C_17
REMARK    6  A    between atoms: C_18  and  C_19
REMARK    7  A    between atoms: C_22  and  C_23
REMARK                            x       y       z     vdW  Elec       q    Type
REMARK                         _______ _______ _______ _____ _____    ______ ____
ROOT
ATOM      1  C   UNL     1       1.334   8.816  18.379  0.00  0.00    +0.000 C 
ATOM      2  F   UNL     1       0.643   7.925  17.584  0.00  0.00    +0.000 F 
ATOM      3  C   UNL     1       1.515   8.098  19.726  0.00  0.00    +0.000 C 
ATOM      4  C   UNL     1       2.649   7.085  19.464  0.00  0.00    +0.000 C 
ATOM      5  N   UNL     1       3.293   7.512  18.223  0.00  0.00    +0.000 N 
ATOM      6  C   UNL     1       4.098   6.790  17.354  0.00  0.00    +0.000 C 
ATOM      7  O   UNL     1       4.473   7.307  16.289  0.00  0.00    +0.000 OA
ATOM      8  C   UNL     1       2.774   8.833  17.851  0.00  0.00    +0.000 C 
ENDROOT
BRANCH   1  15
ATOM      9  C   UNL     1      -2.839  11.772  18.026  0.00  0.00    +0.000 C 
ATOM     10  C   UNL     1      -1.369  11.599  18.261  0.00  0.00    +0.000 A 
ATOM     11  C   UNL     1      -0.560  12.730  18.439  0.00  0.00    +0.000 A 
ATOM     12  C   UNL     1       0.803  12.575  18.633  0.00  0.00    +0.000 A 
ATOM     13  F   UNL     1       1.575  13.656  18.798  0.00  0.00    +0.000 F 
ATOM     14  C   UNL     1       1.387  11.309  18.628  0.00  0.00    +0.000 A 
ATOM     15  C   UNL     1       0.611  10.153  18.433  0.00  0.00    +0.000 A 
ATOM     16  C   UNL     1      -0.777  10.313  18.266  0.00  0.00    +0.000 A 
ENDBRANCH   1  15
BRANCH   6  17
ATOM     17  C   UNL     1       4.526   5.349  17.709  0.00  0.00    +0.000 C 
ATOM     18  C   UNL     1       3.554   4.293  17.132  0.00  0.00    +0.000 C 
BRANCH  17  19
ATOM     19  C   UNL     1       5.925   4.994  17.250  0.00  0.00    +0.000 A 
ATOM     20  C   UNL     1       7.089   4.991  18.082  0.00  0.00    +0.000 A 
ATOM     21  C   UNL     1       7.219   5.325  19.523  0.00  0.00    +0.000 C 
ATOM     22  N   UNL     1       8.175   4.575  17.423  0.00  0.00    +0.000 NA
ATOM     23  N   UNL     1       7.719   4.261  16.208  0.00  0.00    +0.000 N 
ATOM     24  C   UNL     1       6.373   4.456  16.052  0.00  0.00    +0.000 A 
ATOM     25  C   UNL     1       5.708   4.058  14.785  0.00  0.00    +0.000 C 
ATOM     26  H   UNL     1       8.377   3.886  15.535  0.00  0.00    +0.000 HD
ENDBRANCH  17  19
ENDBRANCH   6  17
TORSDOF 3
ENDMDL
MODEL 7
REMARK VINA RESULT:      -7.4      3.456      8.402
REMARK  Name = 
REMARK  7 active torsions:
REMARK  status: ('A' for Active; 'I' for Inactive)
REMARK    1  A    between atoms: C_1  and  C_2
REMARK    2  A    between atoms: C_7  and  C_8
REMARK    3  A    between atoms: C_13  and  C_15
REMARK    4  A    between atoms: C_15  and  C_16
REMARK    5  A    between atoms: C_15  and  C_17
REMARK    6  A    between atoms: C_18  and  C_19
REMARK    7  A    between atoms: C_22  and  C_23
REMARK                            x       y       z     vdW  Elec       q    Type
REMARK                         _______ _______ _______ _____ _____    ______ ____
ROOT
ATOM      1  C   UNL     1       1.121   9.466  19.636  0.00  0.00    +0.000 C 
ATOM      2  F   UNL     1       0.081   9.072  18.818  0.00  0.00    +0.000 F 
ATOM      3  C   UNL     1       0.906   8.706  20.955  0.00  0.00    +0.000 C 
ATOM      4  C   UNL     1       1.379   7.269  20.643  0.00  0.00    +0.000 C 
ATOM      5  N   UNL     1       2.159   7.361  19.410  0.00  0.00    +0.000 N 
ATOM      6  C   UNL     1       2.499   6.364  18.507  0.00  0.00    +0.000 C 
ATOM      7  O   UNL     1       3.090   6.661  17.456  0.00  0.00    +0.000 OA
ATOM      8  C   UNL     1       2.378   8.776  19.092  0.00  0.00    +0.000 C 
ENDROOT
BRANCH   1  15
ATOM      9  C   UNL     1       0.031  13.917  21.933  0.00  0.00    +0.000 C 
ATOM     10  C   UNL     1       0.653  13.133  20.817  0.00  0.00    +0.000 A 
ATOM     11  C   UNL     1       1.229  13.812  19.734  0.00  0.00    +0.000 A 
ATOM     12  C   UNL     1       1.783  13.091  18.689  0.00  0.00    +0.000 A 
ATOM     13  F   UNL     1       2.329  13.740  17.653  0.00  0.00    +0.000 F 
ATOM     14  C   UNL     1       1.754  11.697  18.687  0.00  0.00    +0.000 A 
ATOM     15  C   UNL     1       1.167  10.982  19.746  0.00  0.00    +0.000 A 
ATOM     16  C   UNL     1       0.632  11.718  20.819  0.00  0.00    +0.000 A 
ENDBRANCH   1  15
BRANCH   6  17
ATOM     17  C   UNL     1       2.141   4.891  18.805  0.00  0.00    +0.000 C 
ATOM     18  C   UNL     1       1.409   4.217  17.621  0.00  0.00    +0.000 C 
BRANCH  17  19
ATOM     19  C   UNL     1       3.335   4.031  19.164  0.00  0.00    +0.000 A 
ATOM     20  C   UNL     1       3.427   3.190  20.319  0.00  0.00    +0.000 A 
ATOM     21  C   UNL     1       2.438   2.966  21.404  0.00  0.00    +0.000 C 
ATOM     22  N   UNL     1       4.570   2.499  20.346  0.00  0.00    +0.000 NA
ATOM     23  N   UNL     1       5.183   2.838  19.209  0.00  0.00    +0.000 N 
ATOM     24  C   UNL     1       4.478   3.725  18.440  0.00  0.00    +0.000 A 
ATOM     25  C   UNL     1       4.989   4.116  17.102  0.00  0.00    +0.000 C 
ATOM     26  H   UNL     1       6.072   2.401  18.998  0.00  0.00    +0.000 HD
ENDBRANCH  17  19
ENDBRANCH   6  17
TORSDOF 3
ENDMDL
MODEL 8
REMARK VINA RESULT:      -7.4      2.575      3.452
REMARK  Name = 
REMARK  7 active torsions:
REMARK  status: ('A' for Active; 'I' for Inactive)
REMARK    1  A    between atoms: C_1  and  C_2
REMARK    2  A    between atoms: C_7  and  C_8
REMARK    3  A    between atoms: C_13  and  C_15
REMARK    4  A    between atoms: C_15  and  C_16
REMARK    5  A    between atoms: C_15  and  C_17
REMARK    6  A    between atoms: C_18  and  C_19
REMARK    7  A    between atoms: C_22  and  C_23
REMARK                            x       y       z     vdW  Elec       q    Type
REMARK                         _______ _______ _______ _____ _____    ______ ____
ROOT
ATOM      1  C   UNL     1       2.247   7.206  18.214  0.00  0.00    +0.000 C 
ATOM      2  F   UNL     1       1.089   7.065  17.477  0.00  0.00    +0.000 F 
ATOM      3  C   UNL     1       3.011   8.362  17.548  0.00  0.00    +0.000 C 
ATOM      4  C   UNL     1       2.269   9.629  18.028  0.00  0.00    +0.000 C 
ATOM      5  N   UNL     1       1.456   9.211  19.169  0.00  0.00    +0.000 N 
ATOM      6  C   UNL     1       0.350   9.828  19.735  0.00  0.00    +0.000 C 
ATOM      7  O   UNL     1      -0.272   9.260  20.648  0.00  0.00    +0.000 OA
ATOM      8  C   UNL     1       1.834   7.844  19.545  0.00  0.00    +0.000 C 
ENDROOT
BRANCH   1  15
ATOM      9  C   UNL     1       2.559   2.106  17.789  0.00  0.00    +0.000 C 
ATOM     10  C   UNL     1       3.171   3.437  18.109  0.00  0.00    +0.000 A 
ATOM     11  C   UNL     1       4.475   3.493  18.620  0.00  0.00    +0.000 A 
ATOM     12  C   UNL     1       5.035   4.719  18.940  0.00  0.00    +0.000 A 
ATOM     13  F   UNL     1       6.278   4.771  19.432  0.00  0.00    +0.000 F 
ATOM     14  C   UNL     1       4.308   5.899  18.784  0.00  0.00    +0.000 A 
ATOM     15  C   UNL     1       2.991   5.881  18.293  0.00  0.00    +0.000 A 
ATOM     16  C   UNL     1       2.437   4.636  17.942  0.00  0.00    +0.000 A 
ENDBRANCH   1  15
BRANCH   6  17
ATOM     17  C   UNL     1      -0.108  11.215  19.231  0.00  0.00    +0.000 C 
ATOM     18  C   UNL     1      -1.642  11.391  19.320  0.00  0.00    +0.000 C 
BRANCH  17  19
ATOM     19  C   UNL     1       0.536  12.375  19.961  0.00  0.00    +0.000 A 
ATOM     20  C   UNL     1       0.251  12.761  21.310  0.00  0.00    +0.000 A 
ATOM     21  C   UNL     1      -0.701  12.164  22.280  0.00  0.00    +0.000 C 
ATOM     22  N   UNL     1       1.015  13.781  21.711  0.00  0.00    +0.000 NA
ATOM     23  N   UNL     1       1.818  14.018  20.670  0.00  0.00    +0.000 N 
ATOM     24  C   UNL     1       1.604  13.186  19.604  0.00  0.00    +0.000 A 
ATOM     25  C   UNL     1       2.487  13.266  18.412  0.00  0.00    +0.000 C 
ATOM     26  H   UNL     1       2.516  14.745  20.763  0.00  0.00    +0.000 HD
ENDBRANCH  17  19
ENDBRANCH   6  17
TORSDOF 3
ENDMDL
MODEL 9
REMARK VINA RESULT:      -7.4      2.561      3.399
REMARK  Name = 
REMARK  7 active torsions:
REMARK  status: ('A' for Active; 'I' for Inactive)
REMARK    1  A    between atoms: C_1  and  C_2
REMARK    2  A    between atoms: C_7  and  C_8
REMARK    3  A    between atoms: C_13  and  C_15
REMARK    4  A    between atoms: C_15  and  C_16
REMARK    5  A    between atoms: C_15  and  C_17
REMARK    6  A    between atoms: C_18  and  C_19
REMARK    7  A    between atoms: C_22  and  C_23
REMARK                            x       y       z     vdW  Elec       q    Type
REMARK                         _______ _______ _______ _____ _____    ______ ____
ROOT
ATOM      1  C   UNL     1       2.249   7.218  18.243  0.00  0.00    +0.000 C 
ATOM      2  F   UNL     1       1.078   7.072  17.528  0.00  0.00    +0.000 F 
ATOM      3  C   UNL     1       2.994   8.380  17.565  0.00  0.00    +0.000 C 
ATOM      4  C   UNL     1       2.255   9.641  18.060  0.00  0.00    +0.000 C 
ATOM      5  N   UNL     1       1.465   9.218  19.216  0.00  0.00    +0.000 N 
ATOM      6  C   UNL     1       0.366   9.829  19.803  0.00  0.00    +0.000 C 
ATOM      7  O   UNL     1      -0.235   9.257  20.727  0.00  0.00    +0.000 OA
ATOM      8  C   UNL     1       1.857   7.853  19.583  0.00  0.00    +0.000 C 
ENDROOT
BRANCH   1  15
ATOM      9  C   UNL     1       2.586   2.123  17.786  0.00  0.00    +0.000 C 
ATOM     10  C   UNL     1       3.193   3.456  18.108  0.00  0.00    +0.000 A 
ATOM     11  C   UNL     1       4.502   3.516  18.605  0.00  0.00    +0.000 A 
ATOM     12  C   UNL     1       5.058   4.744  18.927  0.00  0.00    +0.000 A 
ATOM     13  F   UNL     1       6.306   4.800  19.406  0.00  0.00    +0.000 F 
ATOM     14  C   UNL     1       4.324   5.921  18.785  0.00  0.00    +0.000 A 
ATOM     15  C   UNL     1       3.002   5.898  18.308  0.00  0.00    +0.000 A 
ATOM     16  C   UNL     1       2.451   4.651  17.955  0.00  0.00    +0.000 A 
ENDBRANCH   1  15
BRANCH   6  17
ATOM     17  C   UNL     1      -0.109  11.213  19.309  0.00  0.00    +0.000 C 
ATOM     18  C   UNL     1      -1.651  11.320  19.264  0.00  0.00    +0.000 C 
BRANCH  17  19
ATOM     19  C   UNL     1       0.413  12.371  20.135  0.00  0.00    +0.000 A 
ATOM     20  C   UNL     1       1.294  13.394  19.657  0.00  0.00    +0.000 A 
ATOM     21  C   UNL     1       1.894  13.566  18.310  0.00  0.00    +0.000 C 
ATOM     22  N   UNL     1       1.536  14.321  20.588  0.00  0.00    +0.000 NA
ATOM     23  N   UNL     1       0.789  13.943  21.628  0.00  0.00    +0.000 N 
ATOM     24  C   UNL     1       0.065  12.802  21.407  0.00  0.00    +0.000 A 
ATOM     25  C   UNL     1      -0.887  12.317  22.438  0.00  0.00    +0.000 C 
ATOM     26  H   UNL     1       0.792  14.529  22.454  0.00  0.00    +0.000 HD
ENDBRANCH  17  19
ENDBRANCH   6  17
TORSDOF 3
ENDMDL
