MODEL 1
REMARK VINA RESULT:      -8.9      0.000      0.000
REMARK  Name = 
REMARK  6 active torsions:
REMARK  status: ('A' for Active; 'I' for Inactive)
REMARK    1  A    between atoms: C_1  and  N_2
REMARK    2  A    between atoms: C_6  and  C_7
REMARK    3  A    between atoms: C_7  and  C_8
REMARK    4  A    between atoms: C_11  and  N_12
REMARK    5  A    between atoms: C_13  and  N_14
REMARK    6  A    between atoms: C_21  and  C_22
REMARK                            x       y       z     vdW  Elec       q    Type
REMARK                         _______ _______ _______ _____ _____    ______ ____
ROOT
ATOM      1  C   UNL     1       4.687   4.821  18.262  0.00  0.00    +0.000 A 
ATOM      2  C   UNL     1       4.254   3.676  18.940  0.00  0.00    +0.000 A 
ATOM      3  C   UNL     1       3.082   3.704  19.697  0.00  0.00    +0.000 A 
ATOM      4  C   UNL     1       2.368   4.893  19.873  0.00  0.00    +0.000 A 
ATOM      5  C   UNL     1       2.813   6.062  19.216  0.00  0.00    +0.000 A 
ATOM      6  C   UNL     1       3.953   6.014  18.400  0.00  0.00    +0.000 A 
ENDROOT
BRANCH   5   7
ATOM      7  N   UNL     1       2.175   7.302  19.445  0.00  0.00    +0.000 N 
ATOM      8  C   UNL     1       1.488   7.636  20.678  0.00  0.00    +0.000 C 
ATOM      9  C   UNL     1       0.955   9.013  20.396  0.00  0.00    +0.000 A 
ATOM     10  C   UNL     1       1.270   9.371  19.084  0.00  0.00    +0.000 A 
ATOM     11  C   UNL     1       0.867  10.559  18.502  0.00  0.00    +0.000 A 
ATOM     12  C   UNL     1       0.130  11.438  19.288  0.00  0.00    +0.000 A 
ATOM     13  C   UNL     1      -0.164  11.119  20.628  0.00  0.00    +0.000 A 
ATOM     14  C   UNL     1       0.249   9.898  21.206  0.00  0.00    +0.000 A 
ATOM     15  C   UNL     1       2.078   8.305  18.489  0.00  0.00    +0.000 C 
ATOM     16  O   UNL     1       2.544   8.365  17.366  0.00  0.00    +0.000 OA
BRANCH  14  17
ATOM     17  C   UNL     1      -0.062   9.620  22.653  0.00  0.00    +0.000 C 
ATOM     18  F   UNL     1      -0.704  10.643  23.279  0.00  0.00    +0.000 F 
ATOM     19  F   UNL     1      -0.863   8.530  22.806  0.00  0.00    +0.000 F 
ATOM     20  F   UNL     1       1.056   9.372  23.387  0.00  0.00    +0.000 F 
ENDBRANCH  14  17
ENDBRANCH   5   7
BRANCH   4  21
ATOM     21  N   UNL     1       1.077   4.819  20.447  0.00  0.00    +0.000 N 
ATOM     22  H   UNL     1       0.478   4.150  19.975  0.00  0.00    +0.000 HD
ATOM     23  H   UNL     1       1.138   4.600  21.439  0.00  0.00    +0.000 HD
ENDBRANCH   4  21
BRANCH   1  24
ATOM     24  C   UNL     1       5.939   4.764  17.415  0.00  0.00    +0.000 C 
BRANCH  24  30
ATOM     25  C   UNL     1       7.925   5.604  19.710  0.00  0.00    +0.000 C 
ATOM     26  N   UNL     1       7.628   6.338  18.515  0.00  0.00    +0.000 N 
ATOM     27  C   UNL     1       8.140   7.554  18.188  0.00  0.00    +0.000 A 
ATOM     28  N   UNL     1       7.669   7.932  17.023  0.00  0.00    +0.000 NA
ATOM     29  N   UNL     1       6.821   6.948  16.579  0.00  0.00    +0.000 NA
ATOM     30  C   UNL     1       6.787   5.990  17.484  0.00  0.00    +0.000 A 
ENDBRANCH  24  30
ENDBRANCH   1  24
TORSDOF 5
ENDMDL
MODEL 2
REMARK VINA RESULT:      -8.9      2.255      2.822
REMARK  Name = 
REMARK  6 active torsions:
REMARK  status: ('A' for Active; 'I' for Inactive)
REMARK    1  A    between atoms: C_1  and  N_2
REMARK    2  A    between atoms: C_6  and  C_7
REMARK    3  A    between atoms: C_7  and  C_8
REMARK    4  A    between atoms: C_11  and  N_12
REMARK    5  A    between atoms: C_13  and  N_14
REMARK    6  A    between atoms: C_21  and  C_22
REMARK                            x       y       z     vdW  Elec       q    Type
REMARK                         _______ _______ _______ _____ _____    ______ ____
ROOT
ATOM      1  C   UNL     1       5.260   4.516  17.313  0.00  0.00    +0.000 A 
ATOM      2  C   UNL     1       4.614   3.303  17.050  0.00  0.00    +0.000 A 
ATOM      3  C   UNL     1       3.251   3.158  17.308  0.00  0.00    +0.000 A 
ATOM      4  C   UNL     1       2.523   4.183  17.921  0.00  0.00    +0.000 A 
ATOM      5  C   UNL     1       3.173   5.401  18.219  0.00  0.00    +0.000 A 
ATOM      6  C   UNL     1       4.527   5.567  17.893  0.00  0.00    +0.000 A 
ENDROOT
BRANCH   5   7
ATOM      7  N   UNL     1       2.497   6.423  18.923  0.00  0.00    +0.000 N 
ATOM      8  C   UNL     1       2.233   7.739  18.373  0.00  0.00    +0.000 C 
ATOM      9  C   UNL     1       1.553   8.442  19.513  0.00  0.00    +0.000 A 
ATOM     10  C   UNL     1       1.512   7.595  20.622  0.00  0.00    +0.000 A 
ATOM     11  C   UNL     1       0.999   7.972  21.849  0.00  0.00    +0.000 A 
ATOM     12  C   UNL     1       0.482   9.259  21.959  0.00  0.00    +0.000 A 
ATOM     13  C   UNL     1       0.472  10.118  20.842  0.00  0.00    +0.000 A 
ATOM     14  C   UNL     1       1.006   9.720  19.596  0.00  0.00    +0.000 A 
ATOM     15  C   UNL     1       2.075   6.299  20.241  0.00  0.00    +0.000 C 
ATOM     16  O   UNL     1       2.121   5.341  20.992  0.00  0.00    +0.000 OA
BRANCH  14  17
ATOM     17  C   UNL     1       0.940  10.665  18.426  0.00  0.00    +0.000 C 
ATOM     18  F   UNL     1       2.151  10.912  17.855  0.00  0.00    +0.000 F 
ATOM     19  F   UNL     1       0.149  10.189  17.426  0.00  0.00    +0.000 F 
ATOM     20  F   UNL     1       0.429  11.878  18.766  0.00  0.00    +0.000 F 
ENDBRANCH  14  17
ENDBRANCH   5   7
BRANCH   4  21
ATOM     21  N   UNL     1       1.111   4.078  17.947  0.00  0.00    +0.000 N 
ATOM     22  H   UNL     1       0.702   4.090  17.019  0.00  0.00    +0.000 HD
ATOM     23  H   UNL     1       0.824   3.240  18.449  0.00  0.00    +0.000 HD
ENDBRANCH   4  21
BRANCH   1  24
ATOM     24  C   UNL     1       6.731   4.668  16.991  0.00  0.00    +0.000 C 
BRANCH  24  30
ATOM     25  C   UNL     1       8.001   5.527  19.742  0.00  0.00    +0.000 C 
ATOM     26  N   UNL     1       7.834   6.345  18.576  0.00  0.00    +0.000 N 
ATOM     27  C   UNL     1       8.173   7.658  18.478  0.00  0.00    +0.000 A 
ATOM     28  N   UNL     1       7.898   8.095  17.272  0.00  0.00    +0.000 NA
ATOM     29  N   UNL     1       7.357   7.050  16.565  0.00  0.00    +0.000 NA
ATOM     30  C   UNL     1       7.307   5.996  17.355  0.00  0.00    +0.000 A 
ENDBRANCH  24  30
ENDBRANCH   1  24
TORSDOF 5
ENDMDL
MODEL 3
REMARK VINA RESULT:      -8.7      1.037      1.658
REMARK  Name = 
REMARK  6 active torsions:
REMARK  status: ('A' for Active; 'I' for Inactive)
REMARK    1  A    between atoms: C_1  and  N_2
REMARK    2  A    between atoms: C_6  and  C_7
REMARK    3  A    between atoms: C_7  and  C_8
REMARK    4  A    between atoms: C_11  and  N_12
REMARK    5  A    between atoms: C_13  and  N_14
REMARK    6  A    between atoms: C_21  and  C_22
REMARK                            x       y       z     vdW  Elec       q    Type
REMARK                         _______ _______ _______ _____ _____    ______ ____
ROOT
ATOM      1  C   UNL     1       5.135   4.828  19.013  0.00  0.00    +0.000 A 
ATOM      2  C   UNL     1       4.587   3.643  19.517  0.00  0.00    +0.000 A 
ATOM      3  C   UNL     1       3.265   3.608  19.961  0.00  0.00    +0.000 A 
ATOM      4  C   UNL     1       2.491   4.771  20.004  0.00  0.00    +0.000 A 
ATOM      5  C   UNL     1       3.044   5.980  19.526  0.00  0.00    +0.000 A 
ATOM      6  C   UNL     1       4.351   5.996  19.015  0.00  0.00    +0.000 A 
ENDROOT
BRANCH   5   7
ATOM      7  N   UNL     1       2.328   7.193  19.640  0.00  0.00    +0.000 N 
ATOM      8  C   UNL     1       1.596   7.584  20.830  0.00  0.00    +0.000 C 
ATOM      9  C   UNL     1       0.989   8.898  20.425  0.00  0.00    +0.000 A 
ATOM     10  C   UNL     1       1.311   9.167  19.094  0.00  0.00    +0.000 A 
ATOM     11  C   UNL     1       0.851  10.276  18.408  0.00  0.00    +0.000 A 
ATOM     12  C   UNL     1       0.045  11.170  19.106  0.00  0.00    +0.000 A 
ATOM     13  C   UNL     1      -0.259  10.944  20.463  0.00  0.00    +0.000 A 
ATOM     14  C   UNL     1       0.214   9.801  21.147  0.00  0.00    +0.000 A 
ATOM     15  C   UNL     1       2.193   8.107  18.603  0.00  0.00    +0.000 C 
ATOM     16  O   UNL     1       2.680   8.104  17.487  0.00  0.00    +0.000 OA
BRANCH  14  17
ATOM     17  C   UNL     1      -0.112   9.625  22.606  0.00  0.00    +0.000 C 
ATOM     18  F   UNL     1      -0.742  10.697  23.159  0.00  0.00    +0.000 F 
ATOM     19  F   UNL     1      -0.933   8.560  22.823  0.00  0.00    +0.000 F 
ATOM     20  F   UNL     1       0.995   9.407  23.364  0.00  0.00    +0.000 F 
ENDBRANCH  14  17
ENDBRANCH   5   7
BRANCH   4  21
ATOM     21  N   UNL     1       1.101   4.642  20.239  0.00  0.00    +0.000 N 
ATOM     22  H   UNL     1       0.762   5.294  20.938  0.00  0.00    +0.000 HD
ATOM     23  H   UNL     1       0.580   4.752  19.371  0.00  0.00    +0.000 HD
ENDBRANCH   4  21
BRANCH   1  24
ATOM     24  C   UNL     1       6.558   4.839  18.500  0.00  0.00    +0.000 C 
BRANCH  24  30
ATOM     25  C   UNL     1       4.843   3.467  16.243  0.00  0.00    +0.000 C 
ATOM     26  N   UNL     1       5.927   4.387  16.063  0.00  0.00    +0.000 N 
ATOM     27  C   UNL     1       6.421   4.799  14.865  0.00  0.00    +0.000 A 
ATOM     28  N   UNL     1       7.401   5.649  15.063  0.00  0.00    +0.000 NA
ATOM     29  N   UNL     1       7.561   5.792  16.418  0.00  0.00    +0.000 NA
ATOM     30  C   UNL     1       6.679   5.022  17.023  0.00  0.00    +0.000 A 
ENDBRANCH  24  30
ENDBRANCH   1  24
TORSDOF 5
ENDMDL
MODEL 4
REMARK VINA RESULT:      -8.6      0.705      1.364
REMARK  Name = 
REMARK  6 active torsions:
REMARK  status: ('A' for Active; 'I' for Inactive)
REMARK    1  A    between atoms: C_1  and  N_2
REMARK    2  A    between atoms: C_6  and  C_7
REMARK    3  A    between atoms: C_7  and  C_8
REMARK    4  A    between atoms: C_11  and  N_12
REMARK    5  A    between atoms: C_13  and  N_14
REMARK    6  A    between atoms: C_21  and  C_22
REMARK                            x       y       z     vdW  Elec       q    Type
REMARK                         _______ _______ _______ _____ _____    ______ ____
ROOT
ATOM      1  C   UNL     1       4.810   4.482  19.088  0.00  0.00    +0.000 A 
ATOM      2  C   UNL     1       4.196   3.355  19.648  0.00  0.00    +0.000 A 
ATOM      3  C   UNL     1       2.896   3.434  20.146  0.00  0.00    +0.000 A 
ATOM      4  C   UNL     1       2.213   4.653  20.184  0.00  0.00    +0.000 A 
ATOM      5  C   UNL     1       2.835   5.803  19.648  0.00  0.00    +0.000 A 
ATOM      6  C   UNL     1       4.116   5.705  19.085  0.00  0.00    +0.000 A 
ENDROOT
BRANCH   5   7
ATOM      7  N   UNL     1       2.218   7.069  19.754  0.00  0.00    +0.000 N 
ATOM      8  C   UNL     1       1.481   7.509  20.924  0.00  0.00    +0.000 C 
ATOM      9  C   UNL     1       0.997   8.872  20.516  0.00  0.00    +0.000 A 
ATOM     10  C   UNL     1       1.384   9.126  19.199  0.00  0.00    +0.000 A 
ATOM     11  C   UNL     1       1.039  10.275  18.513  0.00  0.00    +0.000 A 
ATOM     12  C   UNL     1       0.287  11.226  19.195  0.00  0.00    +0.000 A 
ATOM     13  C   UNL     1      -0.079  11.013  20.539  0.00  0.00    +0.000 A 
ATOM     14  C   UNL     1       0.275   9.829  21.224  0.00  0.00    +0.000 A 
ATOM     15  C   UNL     1       2.192   8.002  18.724  0.00  0.00    +0.000 C 
ATOM     16  O   UNL     1       2.713   7.969  17.624  0.00  0.00    +0.000 OA
BRANCH  14  17
ATOM     17  C   UNL     1      -0.112   9.666  22.669  0.00  0.00    +0.000 C 
ATOM     18  F   UNL     1      -0.979   8.641  22.890  0.00  0.00    +0.000 F 
ATOM     19  F   UNL     1       0.965   9.418  23.465  0.00  0.00    +0.000 F 
ATOM     20  F   UNL     1      -0.707  10.778  23.177  0.00  0.00    +0.000 F 
ENDBRANCH  14  17
ENDBRANCH   5   7
BRANCH   4  21
ATOM     21  N   UNL     1       0.829   4.637  20.478  0.00  0.00    +0.000 N 
ATOM     22  H   UNL     1       0.537   5.438  21.028  0.00  0.00    +0.000 HD
ATOM     23  H   UNL     1       0.281   4.578  19.622  0.00  0.00    +0.000 HD
ENDBRANCH   4  21
BRANCH   1  24
ATOM     24  C   UNL     1       6.207   4.370  18.518  0.00  0.00    +0.000 C 
BRANCH  24  30
ATOM     25  C   UNL     1       5.790   6.348  16.103  0.00  0.00    +0.000 C 
ATOM     26  N   UNL     1       6.694   6.508  17.204  0.00  0.00    +0.000 N 
ATOM     27  C   UNL     1       7.559   7.545  17.369  0.00  0.00    +0.000 A 
ATOM     28  N   UNL     1       8.228   7.386  18.487  0.00  0.00    +0.000 NA
ATOM     29  N   UNL     1       7.801   6.216  19.063  0.00  0.00    +0.000 NA
ATOM     30  C   UNL     1       6.884   5.679  18.284  0.00  0.00    +0.000 A 
ENDBRANCH  24  30
ENDBRANCH   1  24
TORSDOF 5
ENDMDL
MODEL 5
REMARK VINA RESULT:      -8.5      1.165      1.610
REMARK  Name = 
REMARK  6 active torsions:
REMARK  status: ('A' for Active; 'I' for Inactive)
REMARK    1  A    between atoms: C_1  and  N_2
REMARK    2  A    between atoms: C_6  and  C_7
REMARK    3  A    between atoms: C_7  and  C_8
REMARK    4  A    between atoms: C_11  and  N_12
REMARK    5  A    between atoms: C_13  and  N_14
REMARK    6  A    between atoms: C_21  and  C_22
REMARK                            x       y       z     vdW  Elec       q    Type
REMARK                         _______ _______ _______ _____ _____    ______ ____
ROOT
ATOM      1  C   UNL     1       4.792   4.429  19.080  0.00  0.00    +0.000 A 
ATOM      2  C   UNL     1       4.154   3.304  19.614  0.00  0.00    +0.000 A 
ATOM      3  C   UNL     1       2.844   3.391  20.084  0.00  0.00    +0.000 A 
ATOM      4  C   UNL     1       2.174   4.618  20.122  0.00  0.00    +0.000 A 
ATOM      5  C   UNL     1       2.821   5.767  19.614  0.00  0.00    +0.000 A 
ATOM      6  C   UNL     1       4.113   5.661  19.078  0.00  0.00    +0.000 A 
ENDROOT
BRANCH   5   7
ATOM      7  N   UNL     1       2.215   7.039  19.722  0.00  0.00    +0.000 N 
ATOM      8  C   UNL     1       1.486   7.485  20.893  0.00  0.00    +0.000 C 
ATOM      9  C   UNL     1       1.014   8.853  20.487  0.00  0.00    +0.000 A 
ATOM     10  C   UNL     1       1.399   9.103  19.168  0.00  0.00    +0.000 A 
ATOM     11  C   UNL     1       1.063  10.256  18.483  0.00  0.00    +0.000 A 
ATOM     12  C   UNL     1       0.322  11.213  19.168  0.00  0.00    +0.000 A 
ATOM     13  C   UNL     1      -0.042  11.004  20.512  0.00  0.00    +0.000 A 
ATOM     14  C   UNL     1       0.303   9.816  21.197  0.00  0.00    +0.000 A 
ATOM     15  C   UNL     1       2.195   7.971  18.691  0.00  0.00    +0.000 C 
ATOM     16  O   UNL     1       2.713   7.934  17.590  0.00  0.00    +0.000 OA
BRANCH  14  17
ATOM     17  C   UNL     1      -0.081   9.657  22.644  0.00  0.00    +0.000 C 
ATOM     18  F   UNL     1      -0.722  10.740  23.160  0.00  0.00    +0.000 F 
ATOM     19  F   UNL     1      -0.918   8.602  22.839  0.00  0.00    +0.000 F 
ATOM     20  F   UNL     1       0.995   9.438  23.446  0.00  0.00    +0.000 F 
ENDBRANCH  14  17
ENDBRANCH   5   7
BRANCH   4  21
ATOM     21  N   UNL     1       0.784   4.614  20.386  0.00  0.00    +0.000 N 
ATOM     22  H   UNL     1       0.467   3.740  20.794  0.00  0.00    +0.000 HD
ATOM     23  H   UNL     1       0.530   5.396  20.986  0.00  0.00    +0.000 HD
ENDBRANCH   4  21
BRANCH   1  24
ATOM     24  C   UNL     1       6.200   4.308  18.540  0.00  0.00    +0.000 C 
BRANCH  24  30
ATOM     25  C   UNL     1       7.316   6.816  16.996  0.00  0.00    +0.000 C 
ATOM     26  N   UNL     1       6.783   5.616  16.421  0.00  0.00    +0.000 N 
ATOM     27  C   UNL     1       6.640   5.375  15.090  0.00  0.00    +0.000 A 
ATOM     28  N   UNL     1       6.134   4.178  14.912  0.00  0.00    +0.000 NA
ATOM     29  N   UNL     1       5.931   3.624  16.151  0.00  0.00    +0.000 NA
ATOM     30  C   UNL     1       6.311   4.496  17.063  0.00  0.00    +0.000 A 
ENDBRANCH  24  30
ENDBRANCH   1  24
TORSDOF 5
ENDMDL
MODEL 6
REMARK VINA RESULT:      -8.5      3.535      5.178
REMARK  Name = 
REMARK  6 active torsions:
REMARK  status: ('A' for Active; 'I' for Inactive)
REMARK    1  A    between atoms: C_1  and  N_2
REMARK    2  A    between atoms: C_6  and  C_7
REMARK    3  A    between atoms: C_7  and  C_8
REMARK    4  A    between atoms: C_11  and  N_12
REMARK    5  A    between atoms: C_13  and  N_14
REMARK    6  A    between atoms: C_21  and  C_22
REMARK                            x       y       z     vdW  Elec       q    Type
REMARK                         _______ _______ _______ _____ _____    ______ ____
ROOT
ATOM      1  C   UNL     1       2.311   6.572  19.805  0.00  0.00    +0.000 A 
ATOM      2  C   UNL     1       3.041   6.711  18.619  0.00  0.00    +0.000 A 
ATOM      3  C   UNL     1       2.966   7.890  17.877  0.00  0.00    +0.000 A 
ATOM      4  C   UNL     1       2.091   8.916  18.246  0.00  0.00    +0.000 A 
ATOM      5  C   UNL     1       1.326   8.773  19.426  0.00  0.00    +0.000 A 
ATOM      6  C   UNL     1       1.457   7.616  20.207  0.00  0.00    +0.000 A 
ENDROOT
BRANCH   5   7
ATOM      7  N   UNL     1       0.364   9.745  19.780  0.00  0.00    +0.000 N 
ATOM      8  C   UNL     1      -0.782  10.080  18.954  0.00  0.00    +0.000 C 
ATOM      9  C   UNL     1      -1.444  11.177  19.739  0.00  0.00    +0.000 A 
ATOM     10  C   UNL     1      -0.679  11.464  20.871  0.00  0.00    +0.000 A 
ATOM     11  C   UNL     1      -0.993  12.468  21.767  0.00  0.00    +0.000 A 
ATOM     12  C   UNL     1      -2.148  13.205  21.523  0.00  0.00    +0.000 A 
ATOM     13  C   UNL     1      -2.960  12.907  20.411  0.00  0.00    +0.000 A 
ATOM     14  C   UNL     1      -2.621  11.881  19.501  0.00  0.00    +0.000 A 
ATOM     15  C   UNL     1       0.448  10.532  20.922  0.00  0.00    +0.000 C 
ATOM     16  O   UNL     1       1.259  10.509  21.831  0.00  0.00    +0.000 OA
BRANCH  14  17
ATOM     17  C   UNL     1      -3.541  11.580  18.348  0.00  0.00    +0.000 C 
ATOM     18  F   UNL     1      -3.941  10.281  18.293  0.00  0.00    +0.000 F 
ATOM     19  F   UNL     1      -4.684  12.318  18.398  0.00  0.00    +0.000 F 
ATOM     20  F   UNL     1      -2.971  11.850  17.143  0.00  0.00    +0.000 F 
ENDBRANCH  14  17
ENDBRANCH   5   7
BRANCH   4  21
ATOM     21  N   UNL     1       2.221  10.170  17.602  0.00  0.00    +0.000 N 
ATOM     22  H   UNL     1       1.701  10.904  18.071  0.00  0.00    +0.000 HD
ATOM     23  H   UNL     1       3.202  10.430  17.520  0.00  0.00    +0.000 HD
ENDBRANCH   4  21
BRANCH   1  24
ATOM     24  C   UNL     1       2.434   5.302  20.618  0.00  0.00    +0.000 C 
BRANCH  24  30
ATOM     25  C   UNL     1       4.342   3.189  19.273  0.00  0.00    +0.000 C 
ATOM     26  N   UNL     1       2.909   3.170  19.288  0.00  0.00    +0.000 N 
ATOM     27  C   UNL     1       2.126   2.237  18.685  0.00  0.00    +0.000 A 
ATOM     28  N   UNL     1       0.863   2.512  18.907  0.00  0.00    +0.000 NA
ATOM     29  N   UNL     1       0.813   3.656  19.664  0.00  0.00    +0.000 NA
ATOM     30  C   UNL     1       2.048   4.060  19.885  0.00  0.00    +0.000 A 
ENDBRANCH  24  30
ENDBRANCH   1  24
TORSDOF 5
ENDMDL
MODEL 7
REMARK VINA RESULT:      -8.4      3.454      7.752
REMARK  Name = 
REMARK  6 active torsions:
REMARK  status: ('A' for Active; 'I' for Inactive)
REMARK    1  A    between atoms: C_1  and  N_2
REMARK    2  A    between atoms: C_6  and  C_7
REMARK    3  A    between atoms: C_7  and  C_8
REMARK    4  A    between atoms: C_11  and  N_12
REMARK    5  A    between atoms: C_13  and  N_14
REMARK    6  A    between atoms: C_21  and  C_22
REMARK                            x       y       z     vdW  Elec       q    Type
REMARK                         _______ _______ _______ _____ _____    ______ ____
ROOT
ATOM      1  C   UNL     1      -0.361  11.322  19.412  0.00  0.00    +0.000 A 
ATOM      2  C   UNL     1      -0.480  11.608  20.777  0.00  0.00    +0.000 A 
ATOM      3  C   UNL     1       0.178  10.823  21.724  0.00  0.00    +0.000 A 
ATOM      4  C   UNL     1       0.890   9.682  21.342  0.00  0.00    +0.000 A 
ATOM      5  C   UNL     1       0.992   9.367  19.968  0.00  0.00    +0.000 A 
ATOM      6  C   UNL     1       0.387  10.198  19.014  0.00  0.00    +0.000 A 
ENDROOT
BRANCH   5   7
ATOM      7  N   UNL     1       1.620   8.173  19.550  0.00  0.00    +0.000 N 
ATOM      8  C   UNL     1       1.553   6.927  20.290  0.00  0.00    +0.000 C 
ATOM      9  C   UNL     1       2.408   6.007  19.465  0.00  0.00    +0.000 A 
ATOM     10  C   UNL     1       2.954   6.717  18.396  0.00  0.00    +0.000 A 
ATOM     11  C   UNL     1       3.835   6.163  17.485  0.00  0.00    +0.000 A 
ATOM     12  C   UNL     1       4.163   4.821  17.647  0.00  0.00    +0.000 A 
ATOM     13  C   UNL     1       3.591   4.071  18.694  0.00  0.00    +0.000 A 
ATOM     14  C   UNL     1       2.697   4.654  19.621  0.00  0.00    +0.000 A 
ATOM     15  C   UNL     1       2.427   8.082  18.422  0.00  0.00    +0.000 C 
ATOM     16  O   UNL     1       2.688   8.918  17.576  0.00  0.00    +0.000 OA
BRANCH  14  17
ATOM     17  C   UNL     1       2.088   3.799  20.700  0.00  0.00    +0.000 C 
ATOM     18  F   UNL     1       0.728   3.767  20.668  0.00  0.00    +0.000 F 
ATOM     19  F   UNL     1       2.493   2.502  20.617  0.00  0.00    +0.000 F 
ATOM     20  F   UNL     1       2.426   4.220  21.949  0.00  0.00    +0.000 F 
ENDBRANCH  14  17
ENDBRANCH   5   7
BRANCH   4  21
ATOM     21  N   UNL     1       1.724   9.061  22.302  0.00  0.00    +0.000 N 
ATOM     22  H   UNL     1       1.201   8.503  22.969  0.00  0.00    +0.000 HD
ATOM     23  H   UNL     1       2.433   8.491  21.845  0.00  0.00    +0.000 HD
ENDBRANCH   4  21
BRANCH   1  24
ATOM     24  C   UNL     1      -1.050  12.206  18.397  0.00  0.00    +0.000 C 
BRANCH  24  30
ATOM     25  C   UNL     1      -3.957  12.354  19.598  0.00  0.00    +0.000 C 
ATOM     26  N   UNL     1      -3.555  11.693  18.391  0.00  0.00    +0.000 N 
ATOM     27  C   UNL     1      -4.373  10.982  17.571  0.00  0.00    +0.000 A 
ATOM     28  N   UNL     1      -3.686  10.523  16.552  0.00  0.00    +0.000 NA
ATOM     29  N   UNL     1      -2.386  10.933  16.711  0.00  0.00    +0.000 NA
ATOM     30  C   UNL     1      -2.303  11.630  17.826  0.00  0.00    +0.000 A 
ENDBRANCH  24  30
ENDBRANCH   1  24
TORSDOF 5
ENDMDL
MODEL 8
REMARK VINA RESULT:      -8.4      3.593      7.812
REMARK  Name = 
REMARK  6 active torsions:
REMARK  status: ('A' for Active; 'I' for Inactive)
REMARK    1  A    between atoms: C_1  and  N_2
REMARK    2  A    between atoms: C_6  and  C_7
REMARK    3  A    between atoms: C_7  and  C_8
REMARK    4  A    between atoms: C_11  and  N_12
REMARK    5  A    between atoms: C_13  and  N_14
REMARK    6  A    between atoms: C_21  and  C_22
REMARK                            x       y       z     vdW  Elec       q    Type
REMARK                         _______ _______ _______ _____ _____    ______ ____
ROOT
ATOM      1  C   UNL     1      -0.342  10.969  19.334  0.00  0.00    +0.000 A 
ATOM      2  C   UNL     1      -0.454  11.340  20.679  0.00  0.00    +0.000 A 
ATOM      3  C   UNL     1       0.231  10.632  21.667  0.00  0.00    +0.000 A 
ATOM      4  C   UNL     1       0.965   9.485  21.351  0.00  0.00    +0.000 A 
ATOM      5  C   UNL     1       1.060   9.084  19.999  0.00  0.00    +0.000 A 
ATOM      6  C   UNL     1       0.427   9.839  19.001  0.00  0.00    +0.000 A 
ENDROOT
BRANCH   5   7
ATOM      7  N   UNL     1       1.712   7.880  19.652  0.00  0.00    +0.000 N 
ATOM      8  C   UNL     1       1.593   6.652  20.415  0.00  0.00    +0.000 C 
ATOM      9  C   UNL     1       2.498   5.711  19.670  0.00  0.00    +0.000 A 
ATOM     10  C   UNL     1       3.115   6.396  18.621  0.00  0.00    +0.000 A 
ATOM     11  C   UNL     1       4.051   5.819  17.783  0.00  0.00    +0.000 A 
ATOM     12  C   UNL     1       4.365   4.481  17.999  0.00  0.00    +0.000 A 
ATOM     13  C   UNL     1       3.724   3.757  19.023  0.00  0.00    +0.000 A 
ATOM     14  C   UNL     1       2.773   4.362  19.876  0.00  0.00    +0.000 A 
ATOM     15  C   UNL     1       2.590   7.762  18.581  0.00  0.00    +0.000 C 
ATOM     16  O   UNL     1       2.908   8.577  17.734  0.00  0.00    +0.000 OA
BRANCH  14  17
ATOM     17  C   UNL     1       2.093   3.535  20.933  0.00  0.00    +0.000 C 
ATOM     18  F   UNL     1       0.736   3.535  20.837  0.00  0.00    +0.000 F 
ATOM     19  F   UNL     1       2.468   2.227  20.881  0.00  0.00    +0.000 F 
ATOM     20  F   UNL     1       2.382   3.960  22.192  0.00  0.00    +0.000 F 
ENDBRANCH  14  17
ENDBRANCH   5   7
BRANCH   4  21
ATOM     21  N   UNL     1       1.821   8.945  22.340  0.00  0.00    +0.000 N 
ATOM     22  H   UNL     1       2.240   8.065  22.054  0.00  0.00    +0.000 HD
ATOM     23  H   UNL     1       2.545   9.615  22.591  0.00  0.00    +0.000 HD
ENDBRANCH   4  21
BRANCH   1  24
ATOM     24  C   UNL     1      -1.060  11.771  18.272  0.00  0.00    +0.000 C 
BRANCH  24  30
ATOM     25  C   UNL     1      -2.734  10.081  16.207  0.00  0.00    +0.000 C 
ATOM     26  N   UNL     1      -3.241  10.843  17.311  0.00  0.00    +0.000 N 
ATOM     27  C   UNL     1      -4.554  10.990  17.631  0.00  0.00    +0.000 A 
ATOM     28  N   UNL     1      -4.665  11.739  18.702  0.00  0.00    +0.000 NA
ATOM     29  N   UNL     1      -3.399  12.101  19.089  0.00  0.00    +0.000 NA
ATOM     30  C   UNL     1      -2.539  11.570  18.243  0.00  0.00    +0.000 A 
ENDBRANCH  24  30
ENDBRANCH   1  24
TORSDOF 5
ENDMDL
MODEL 9
REMARK VINA RESULT:      -8.3      4.258      8.243
REMARK  Name = 
REMARK  6 active torsions:
REMARK  status: ('A' for Active; 'I' for Inactive)
REMARK    1  A    between atoms: C_1  and  N_2
REMARK    2  A    between atoms: C_6  and  C_7
REMARK    3  A    between atoms: C_7  and  C_8
REMARK    4  A    between atoms: C_11  and  N_12
REMARK    5  A    between atoms: C_13  and  N_14
REMARK    6  A    between atoms: C_21  and  C_22
REMARK                            x       y       z     vdW  Elec       q    Type
REMARK                         _______ _______ _______ _____ _____    ______ ____
ROOT
ATOM      1  C   UNL     1      -0.174  10.727  19.066  0.00  0.00    +0.000 A 
ATOM      2  C   UNL     1      -0.412  10.938  20.429  0.00  0.00    +0.000 A 
ATOM      3  C   UNL     1       0.245  10.167  21.388  0.00  0.00    +0.000 A 
ATOM      4  C   UNL     1       1.077   9.108  21.013  0.00  0.00    +0.000 A 
ATOM      5  C   UNL     1       1.300   8.868  19.638  0.00  0.00    +0.000 A 
ATOM      6  C   UNL     1       0.693   9.690  18.678  0.00  0.00    +0.000 A 
ENDROOT
BRANCH   5   7
ATOM      7  N   UNL     1       2.057   7.751  19.218  0.00  0.00    +0.000 N 
ATOM      8  C   UNL     1       3.015   7.792  18.129  0.00  0.00    +0.000 C 
ATOM      9  C   UNL     1       3.495   6.370  18.059  0.00  0.00    +0.000 A 
ATOM     10  C   UNL     1       2.801   5.600  18.993  0.00  0.00    +0.000 A 
ATOM     11  C   UNL     1       2.974   4.235  19.133  0.00  0.00    +0.000 A 
ATOM     12  C   UNL     1       3.909   3.621  18.307  0.00  0.00    +0.000 A 
ATOM     13  C   UNL     1       4.654   4.384  17.386  0.00  0.00    +0.000 A 
ATOM     14  C   UNL     1       4.460   5.777  17.250  0.00  0.00    +0.000 A 
ATOM     15  C   UNL     1       1.915   6.478  19.758  0.00  0.00    +0.000 C 
ATOM     16  O   UNL     1       1.222   6.091  20.682  0.00  0.00    +0.000 OA
BRANCH  14  17
ATOM     17  C   UNL     1       5.306   6.551  16.274  0.00  0.00    +0.000 C 
ATOM     18  F   UNL     1       6.122   7.466  16.865  0.00  0.00    +0.000 F 
ATOM     19  F   UNL     1       6.123   5.740  15.548  0.00  0.00    +0.000 F 
ATOM     20  F   UNL     1       4.559   7.239  15.370  0.00  0.00    +0.000 F 
ENDBRANCH  14  17
ENDBRANCH   5   7
BRANCH   4  21
ATOM     21  N   UNL     1       1.893   8.514  22.004  0.00  0.00    +0.000 N 
ATOM     22  H   UNL     1       2.063   9.132  22.791  0.00  0.00    +0.000 HD
ATOM     23  H   UNL     1       1.485   7.638  22.326  0.00  0.00    +0.000 HD
ENDBRANCH   4  21
BRANCH   1  24
ATOM     24  C   UNL     1      -0.865  11.598  18.040  0.00  0.00    +0.000 C 
BRANCH  24  30
ATOM     25  C   UNL     1      -2.635  10.234  15.821  0.00  0.00    +0.000 C 
ATOM     26  N   UNL     1      -3.095  10.878  17.017  0.00  0.00    +0.000 N 
ATOM     27  C   UNL     1      -4.397  11.036  17.376  0.00  0.00    +0.000 A 
ATOM     28  N   UNL     1      -4.462  11.656  18.531  0.00  0.00    +0.000 NA
ATOM     29  N   UNL     1      -3.177  11.920  18.934  0.00  0.00    +0.000 NA
ATOM     30  C   UNL     1      -2.352  11.461  18.015  0.00  0.00    +0.000 A 
ENDBRANCH  24  30
ENDBRANCH   1  24
TORSDOF 5
ENDMDL
