MODEL 1
REMARK VINA RESULT:      -9.0      0.000      0.000
REMARK  Name = 
REMARK  5 active torsions:
REMARK  status: ('A' for Active; 'I' for Inactive)
REMARK    1  A    between atoms: C_2  and  C_21
REMARK    2  A    between atoms: N_3  and  C_4
REMARK    3  A    between atoms: C_8  and  S_9
REMARK    4  A    between atoms: S_9  and  N_12
REMARK    5  A    between atoms: N_12  and  C_13
REMARK                            x       y       z     vdW  Elec       q    Type
REMARK                         _______ _______ _______ _____ _____    ______ ____
ROOT
ATOM      1  C   UNL     1       8.077   8.078  18.044  0.00  0.00    +0.000 A 
ATOM      2  C   UNL     1       8.495   7.230  19.071  0.00  0.00    +0.000 A 
ATOM      3  C   UNL     1       7.861   5.996  19.265  0.00  0.00    +0.000 A 
ATOM      4  C   UNL     1       6.788   5.623  18.452  0.00  0.00    +0.000 A 
ATOM      5  C   UNL     1       6.388   6.477  17.423  0.00  0.00    +0.000 A 
ATOM      6  C   UNL     1       7.063   7.670  17.182  0.00  0.00    +0.000 A 
ENDROOT
BRANCH   1   9
ATOM      7  O   UNL     1       9.006  10.205  19.935  0.00  0.00    +0.000 OA
ATOM      8  C   UNL     1       9.060  10.283  18.713  0.00  0.00    +0.000 C 
ATOM      9  N   UNL     1       8.608   9.347  17.809  0.00  0.00    +0.000 N 
ATOM     10  H   UNL     1       8.658   9.677  16.847  0.00  0.00    +0.000 HD
BRANCH   8  11
ATOM     11  C   UNL     1       9.687  11.410  18.000  0.00  0.00    +0.000 A 
ATOM     12  N   UNL     1      10.962  11.313  17.551  0.00  0.00    +0.000 NA
ATOM     13  N   UNL     1      11.287  12.583  17.260  0.00  0.00    +0.000 N 
ATOM     14  C   UNL     1      10.309  13.488  17.561  0.00  0.00    +0.000 A 
ATOM     15  C   UNL     1      10.321  14.881  17.635  0.00  0.00    +0.000 A 
ATOM     16  C   UNL     1       9.099  15.509  17.895  0.00  0.00    +0.000 A 
ATOM     17  C   UNL     1       7.920  14.773  18.017  0.00  0.00    +0.000 A 
ATOM     18  C   UNL     1       7.944  13.374  18.007  0.00  0.00    +0.000 A 
ATOM     19  C   UNL     1       9.179  12.725  17.834  0.00  0.00    +0.000 A 
ATOM     20  H   UNL     1      12.212  12.772  16.891  0.00  0.00    +0.000 HD
ENDBRANCH   8  11
ENDBRANCH   1   9
BRANCH   5  21
ATOM     21  S   UNL     1       4.977   6.078  16.412  0.00  0.00    +0.000 S 
ATOM     22  O   UNL     1       5.056   6.875  15.207  0.00  0.00    +0.000 OA
ATOM     23  O   UNL     1       4.877   4.639  16.363  0.00  0.00    +0.000 OA
BRANCH  21  24
ATOM     24  N   UNL     1       3.676   6.616  17.355  0.00  0.00    +0.000 N 
ATOM     25  H   UNL     1       3.079   7.258  16.833  0.00  0.00    +0.000 HD
BRANCH  24  26
ATOM     26  C   UNL     1       3.039   5.715  18.256  0.00  0.00    +0.000 A 
ATOM     27  C   UNL     1       3.433   5.676  19.590  0.00  0.00    +0.000 A 
ATOM     28  C   UNL     1       2.811   4.783  20.478  0.00  0.00    +0.000 A 
ATOM     29  C   UNL     1       1.825   3.925  20.002  0.00  0.00    +0.000 A 
ATOM     30 CL   UNL     1       1.062   2.820  21.089  0.00  0.00    +0.000 Cl
ATOM     31  C   UNL     1       1.446   3.943  18.666  0.00  0.00    +0.000 A 
ATOM     32  C   UNL     1       2.053   4.852  17.788  0.00  0.00    +0.000 A 
ENDBRANCH  24  26
ENDBRANCH  21  24
ENDBRANCH   5  21
TORSDOF 5
ENDMDL
MODEL 2
REMARK VINA RESULT:      -8.9      6.503      9.037
REMARK  Name = 
REMARK  5 active torsions:
REMARK  status: ('A' for Active; 'I' for Inactive)
REMARK    1  A    between atoms: C_2  and  C_21
REMARK    2  A    between atoms: N_3  and  C_4
REMARK    3  A    between atoms: C_8  and  S_9
REMARK    4  A    between atoms: S_9  and  N_12
REMARK    5  A    between atoms: N_12  and  C_13
REMARK                            x       y       z     vdW  Elec       q    Type
REMARK                         _______ _______ _______ _____ _____    ______ ____
ROOT
ATOM      1  C   UNL     1       2.192   7.950  18.817  0.00  0.00    +0.000 A 
ATOM      2  C   UNL     1       1.619   8.614  17.731  0.00  0.00    +0.000 A 
ATOM      3  C   UNL     1       0.693   9.643  17.946  0.00  0.00    +0.000 A 
ATOM      4  C   UNL     1       0.317   9.987  19.247  0.00  0.00    +0.000 A 
ATOM      5  C   UNL     1       0.906   9.321  20.322  0.00  0.00    +0.000 A 
ATOM      6  C   UNL     1       1.880   8.348  20.113  0.00  0.00    +0.000 A 
ENDROOT
BRANCH   1   9
ATOM      7  O   UNL     1       1.772   5.140  17.870  0.00  0.00    +0.000 OA
ATOM      8  C   UNL     1       2.850   5.606  18.223  0.00  0.00    +0.000 C 
ATOM      9  N   UNL     1       3.078   6.878  18.702  0.00  0.00    +0.000 N 
ATOM     10  H   UNL     1       4.032   7.004  19.037  0.00  0.00    +0.000 HD
BRANCH   8  11
ATOM     11  C   UNL     1       4.120   4.864  18.136  0.00  0.00    +0.000 A 
ATOM     12  N   UNL     1       4.690   4.349  19.252  0.00  0.00    +0.000 NA
ATOM     13  N   UNL     1       5.936   4.044  18.853  0.00  0.00    +0.000 N 
ATOM     14  C   UNL     1       6.206   4.399  17.562  0.00  0.00    +0.000 A 
ATOM     15  C   UNL     1       7.403   4.477  16.849  0.00  0.00    +0.000 A 
ATOM     16  C   UNL     1       7.309   4.803  15.492  0.00  0.00    +0.000 A 
ATOM     17  C   UNL     1       6.069   4.984  14.877  0.00  0.00    +0.000 A 
ATOM     18  C   UNL     1       4.887   4.969  15.627  0.00  0.00    +0.000 A 
ATOM     19  C   UNL     1       4.974   4.729  17.010  0.00  0.00    +0.000 A 
ATOM     20  H   UNL     1       6.570   3.629  19.526  0.00  0.00    +0.000 HD
ENDBRANCH   8  11
ENDBRANCH   1   9
BRANCH   5  21
ATOM     21  S   UNL     1       0.400   9.674  21.993  0.00  0.00    +0.000 S 
ATOM     22  O   UNL     1      -0.823   8.945  22.248  0.00  0.00    +0.000 OA
ATOM     23  O   UNL     1       1.562   9.519  22.836  0.00  0.00    +0.000 OA
BRANCH  21  24
ATOM     24  N   UNL     1       0.065  11.333  21.942  0.00  0.00    +0.000 N 
ATOM     25  H   UNL     1       0.678  11.817  21.285  0.00  0.00    +0.000 HD
BRANCH  24  26
ATOM     26  C   UNL     1      -1.284  11.782  22.030  0.00  0.00    +0.000 A 
ATOM     27  C   UNL     1      -1.932  12.255  20.893  0.00  0.00    +0.000 A 
ATOM     28  C   UNL     1      -3.260  12.705  20.981  0.00  0.00    +0.000 A 
ATOM     29  C   UNL     1      -3.902  12.699  22.214  0.00  0.00    +0.000 A 
ATOM     30 CL   UNL     1      -5.532  13.258  22.328  0.00  0.00    +0.000 Cl
ATOM     31  C   UNL     1      -3.251  12.250  23.356  0.00  0.00    +0.000 A 
ATOM     32  C   UNL     1      -1.933  11.780  23.261  0.00  0.00    +0.000 A 
ENDBRANCH  24  26
ENDBRANCH  21  24
ENDBRANCH   5  21
TORSDOF 5
ENDMDL
MODEL 3
REMARK VINA RESULT:      -8.9      5.555      7.322
REMARK  Name = 
REMARK  5 active torsions:
REMARK  status: ('A' for Active; 'I' for Inactive)
REMARK    1  A    between atoms: C_2  and  C_21
REMARK    2  A    between atoms: N_3  and  C_4
REMARK    3  A    between atoms: C_8  and  S_9
REMARK    4  A    between atoms: S_9  and  N_12
REMARK    5  A    between atoms: N_12  and  C_13
REMARK                            x       y       z     vdW  Elec       q    Type
REMARK                         _______ _______ _______ _____ _____    ______ ____
ROOT
ATOM      1  C   UNL     1       3.512   6.078  18.400  0.00  0.00    +0.000 A 
ATOM      2  C   UNL     1       3.048   4.791  18.678  0.00  0.00    +0.000 A 
ATOM      3  C   UNL     1       3.921   3.698  18.605  0.00  0.00    +0.000 A 
ATOM      4  C   UNL     1       5.252   3.888  18.225  0.00  0.00    +0.000 A 
ATOM      5  C   UNL     1       5.704   5.181  17.960  0.00  0.00    +0.000 A 
ATOM      6  C   UNL     1       4.857   6.277  18.102  0.00  0.00    +0.000 A 
ENDROOT
BRANCH   1   9
ATOM      7  O   UNL     1       1.882   7.355  20.562  0.00  0.00    +0.000 OA
ATOM      8  C   UNL     1       2.001   7.794  19.424  0.00  0.00    +0.000 C 
ATOM      9  N   UNL     1       2.707   7.217  18.391  0.00  0.00    +0.000 N 
ATOM     10  H   UNL     1       2.571   7.703  17.505  0.00  0.00    +0.000 HD
BRANCH   8  11
ATOM     11  C   UNL     1       1.427   9.079  18.986  0.00  0.00    +0.000 A 
ATOM     12  N   UNL     1       1.824   9.645  17.821  0.00  0.00    +0.000 NA
ATOM     13  N   UNL     1       1.355  10.900  17.910  0.00  0.00    +0.000 N 
ATOM     14  C   UNL     1       0.739  11.179  19.097  0.00  0.00    +0.000 A 
ATOM     15  C   UNL     1       0.335  12.383  19.676  0.00  0.00    +0.000 A 
ATOM     16  C   UNL     1      -0.354  12.298  20.890  0.00  0.00    +0.000 A 
ATOM     17  C   UNL     1      -0.668  11.062  21.458  0.00  0.00    +0.000 A 
ATOM     18  C   UNL     1      -0.193   9.873  20.894  0.00  0.00    +0.000 A 
ATOM     19  C   UNL     1       0.577   9.947  19.721  0.00  0.00    +0.000 A 
ATOM     20  H   UNL     1       1.524  11.535  17.137  0.00  0.00    +0.000 HD
ENDBRANCH   8  11
ENDBRANCH   1   9
BRANCH   5  21
ATOM     21  S   UNL     1       7.371   5.461  17.397  0.00  0.00    +0.000 S 
ATOM     22  O   UNL     1       7.954   6.488  18.233  0.00  0.00    +0.000 OA
ATOM     23  O   UNL     1       7.994   4.168  17.241  0.00  0.00    +0.000 OA
BRANCH  21  24
ATOM     24  N   UNL     1       7.141   6.074  15.835  0.00  0.00    +0.000 N 
ATOM     25  H   UNL     1       7.833   6.790  15.610  0.00  0.00    +0.000 HD
BRANCH  24  26
ATOM     26  C   UNL     1       6.743   5.196  14.786  0.00  0.00    +0.000 A 
ATOM     27  C   UNL     1       7.599   4.965  13.714  0.00  0.00    +0.000 A 
ATOM     28  C   UNL     1       7.203   4.105  12.676  0.00  0.00    +0.000 A 
ATOM     29  C   UNL     1       5.943   3.518  12.719  0.00  0.00    +0.000 A 
ATOM     30 CL   UNL     1       5.450   2.467  11.440  0.00  0.00    +0.000 Cl
ATOM     31  C   UNL     1       5.075   3.767  13.775  0.00  0.00    +0.000 A 
ATOM     32  C   UNL     1       5.482   4.606  14.821  0.00  0.00    +0.000 A 
ENDBRANCH  24  26
ENDBRANCH  21  24
ENDBRANCH   5  21
TORSDOF 5
ENDMDL
MODEL 4
REMARK VINA RESULT:      -8.8      7.221     10.270
REMARK  Name = 
REMARK  5 active torsions:
REMARK  status: ('A' for Active; 'I' for Inactive)
REMARK    1  A    between atoms: C_2  and  C_21
REMARK    2  A    between atoms: N_3  and  C_4
REMARK    3  A    between atoms: C_8  and  S_9
REMARK    4  A    between atoms: S_9  and  N_12
REMARK    5  A    between atoms: N_12  and  C_13
REMARK                            x       y       z     vdW  Elec       q    Type
REMARK                         _______ _______ _______ _____ _____    ______ ____
ROOT
ATOM      1  C   UNL     1       0.655   9.997  18.535  0.00  0.00    +0.000 A 
ATOM      2  C   UNL     1       1.071  11.248  18.991  0.00  0.00    +0.000 A 
ATOM      3  C   UNL     1       0.226  12.358  18.868  0.00  0.00    +0.000 A 
ATOM      4  C   UNL     1      -1.024  12.223  18.259  0.00  0.00    +0.000 A 
ATOM      5  C   UNL     1      -1.431  10.963  17.817  0.00  0.00    +0.000 A 
ATOM      6  C   UNL     1      -0.622   9.846  18.003  0.00  0.00    +0.000 A 
ENDROOT
BRANCH   1   9
ATOM      7  O   UNL     1       1.635   8.335  20.825  0.00  0.00    +0.000 OA
ATOM      8  C   UNL     1       1.845   8.090  19.642  0.00  0.00    +0.000 C 
ATOM      9  N   UNL     1       1.448   8.849  18.563  0.00  0.00    +0.000 N 
ATOM     10  H   UNL     1       1.832   8.508  17.683  0.00  0.00    +0.000 HD
BRANCH   8  11
ATOM     11  C   UNL     1       2.537   6.875  19.177  0.00  0.00    +0.000 A 
ATOM     12  N   UNL     1       3.462   6.949  18.190  0.00  0.00    +0.000 NA
ATOM     13  N   UNL     1       3.630   5.668  17.824  0.00  0.00    +0.000 N 
ATOM     14  C   UNL     1       2.812   4.792  18.481  0.00  0.00    +0.000 A 
ATOM     15  C   UNL     1       2.504   3.451  18.247  0.00  0.00    +0.000 A 
ATOM     16  C   UNL     1       1.676   2.823  19.182  0.00  0.00    +0.000 A 
ATOM     17  C   UNL     1       1.231   3.496  20.321  0.00  0.00    +0.000 A 
ATOM     18  C   UNL     1       1.496   4.859  20.498  0.00  0.00    +0.000 A 
ATOM     19  C   UNL     1       2.254   5.527  19.521  0.00  0.00    +0.000 A 
ATOM     20  H   UNL     1       4.294   5.459  17.087  0.00  0.00    +0.000 HD
ENDBRANCH   8  11
ENDBRANCH   1   9
BRANCH   5  21
ATOM     21  S   UNL     1      -2.982  10.759  16.966  0.00  0.00    +0.000 S 
ATOM     22  O   UNL     1      -2.720  10.832  15.545  0.00  0.00    +0.000 OA
ATOM     23  O   UNL     1      -3.648   9.622  17.555  0.00  0.00    +0.000 OA
BRANCH  21  24
ATOM     24  N   UNL     1      -3.856  12.127  17.446  0.00  0.00    +0.000 N 
ATOM     25  H   UNL     1      -4.083  12.723  16.649  0.00  0.00    +0.000 HD
BRANCH  24  26
ATOM     26  C   UNL     1      -4.833  12.014  18.477  0.00  0.00    +0.000 A 
ATOM     27  C   UNL     1      -4.520  12.409  19.774  0.00  0.00    +0.000 A 
ATOM     28  C   UNL     1      -5.479  12.291  20.792  0.00  0.00    +0.000 A 
ATOM     29  C   UNL     1      -6.725  11.749  20.496  0.00  0.00    +0.000 A 
ATOM     30 CL   UNL     1      -7.906  11.594  21.747  0.00  0.00    +0.000 Cl
ATOM     31  C   UNL     1      -7.034  11.329  19.208  0.00  0.00    +0.000 A 
ATOM     32  C   UNL     1      -6.082  11.471  18.189  0.00  0.00    +0.000 A 
ENDBRANCH  24  26
ENDBRANCH  21  24
ENDBRANCH   5  21
TORSDOF 5
ENDMDL
MODEL 5
REMARK VINA RESULT:      -8.8      5.923      7.609
REMARK  Name = 
REMARK  5 active torsions:
REMARK  status: ('A' for Active; 'I' for Inactive)
REMARK    1  A    between atoms: C_2  and  C_21
REMARK    2  A    between atoms: N_3  and  C_4
REMARK    3  A    between atoms: C_8  and  S_9
REMARK    4  A    between atoms: S_9  and  N_12
REMARK    5  A    between atoms: N_12  and  C_13
REMARK                            x       y       z     vdW  Elec       q    Type
REMARK                         _______ _______ _______ _____ _____    ______ ____
ROOT
ATOM      1  C   UNL     1       3.861   3.084  17.617  0.00  0.00    +0.000 A 
ATOM      2  C   UNL     1       3.479   1.746  17.723  0.00  0.00    +0.000 A 
ATOM      3  C   UNL     1       2.575   1.349  18.717  0.00  0.00    +0.000 A 
ATOM      4  C   UNL     1       2.077   2.286  19.626  0.00  0.00    +0.000 A 
ATOM      5  C   UNL     1       2.461   3.623  19.501  0.00  0.00    +0.000 A 
ATOM      6  C   UNL     1       3.302   4.031  18.470  0.00  0.00    +0.000 A 
ENDROOT
BRANCH   1   9
ATOM      7  O   UNL     1       4.622   5.877  16.853  0.00  0.00    +0.000 OA
ATOM      8  C   UNL     1       5.143   4.862  16.404  0.00  0.00    +0.000 C 
ATOM      9  N   UNL     1       4.797   3.562  16.699  0.00  0.00    +0.000 N 
ATOM     10  H   UNL     1       5.294   2.885  16.122  0.00  0.00    +0.000 HD
BRANCH   8  11
ATOM     11  C   UNL     1       6.296   4.881  15.487  0.00  0.00    +0.000 A 
ATOM     12  N   UNL     1       7.371   5.661  15.755  0.00  0.00    +0.000 NA
ATOM     13  N   UNL     1       8.046   5.670  14.593  0.00  0.00    +0.000 N 
ATOM     14  C   UNL     1       7.421   4.992  13.585  0.00  0.00    +0.000 A 
ATOM     15  C   UNL     1       7.650   4.952  12.209  0.00  0.00    +0.000 A 
ATOM     16  C   UNL     1       6.861   4.070  11.464  0.00  0.00    +0.000 A 
ATOM     17  C   UNL     1       5.931   3.233  12.083  0.00  0.00    +0.000 A 
ATOM     18  C   UNL     1       5.672   3.340  13.455  0.00  0.00    +0.000 A 
ATOM     19  C   UNL     1       6.396   4.285  14.202  0.00  0.00    +0.000 A 
ATOM     20  H   UNL     1       8.912   6.194  14.542  0.00  0.00    +0.000 HD
ENDBRANCH   8  11
ENDBRANCH   1   9
BRANCH   5  21
ATOM     21  S   UNL     1       1.913   4.836  20.684  0.00  0.00    +0.000 S 
ATOM     22  O   UNL     1       0.516   5.109  20.424  0.00  0.00    +0.000 OA
ATOM     23  O   UNL     1       2.370   4.406  21.984  0.00  0.00    +0.000 OA
BRANCH  21  24
ATOM     24  N   UNL     1       2.835   6.198  20.279  0.00  0.00    +0.000 N 
ATOM     25  H   UNL     1       3.680   5.938  19.770  0.00  0.00    +0.000 HD
BRANCH  24  26
ATOM     26  C   UNL     1       2.180   7.401  19.888  0.00  0.00    +0.000 A 
ATOM     27  C   UNL     1       1.441   8.123  20.820  0.00  0.00    +0.000 A 
ATOM     28  C   UNL     1       0.790   9.305  20.433  0.00  0.00    +0.000 A 
ATOM     29  C   UNL     1       0.867   9.725  19.110  0.00  0.00    +0.000 A 
ATOM     30 CL   UNL     1       0.061  11.174  18.628  0.00  0.00    +0.000 Cl
ATOM     31  C   UNL     1       1.583   8.994  18.169  0.00  0.00    +0.000 A 
ATOM     32  C   UNL     1       2.251   7.827  18.564  0.00  0.00    +0.000 A 
ENDBRANCH  24  26
ENDBRANCH  21  24
ENDBRANCH   5  21
TORSDOF 5
ENDMDL
MODEL 6
REMARK VINA RESULT:      -8.7      0.877      1.269
REMARK  Name = 
REMARK  5 active torsions:
REMARK  status: ('A' for Active; 'I' for Inactive)
REMARK    1  A    between atoms: C_2  and  C_21
REMARK    2  A    between atoms: N_3  and  C_4
REMARK    3  A    between atoms: C_8  and  S_9
REMARK    4  A    between atoms: S_9  and  N_12
REMARK    5  A    between atoms: N_12  and  C_13
REMARK                            x       y       z     vdW  Elec       q    Type
REMARK                         _______ _______ _______ _____ _____    ______ ____
ROOT
ATOM      1  C   UNL     1       8.105   8.336  18.021  0.00  0.00    +0.000 A 
ATOM      2  C   UNL     1       8.607   7.406  18.933  0.00  0.00    +0.000 A 
ATOM      3  C   UNL     1       7.970   6.169  19.097  0.00  0.00    +0.000 A 
ATOM      4  C   UNL     1       6.812   5.875  18.373  0.00  0.00    +0.000 A 
ATOM      5  C   UNL     1       6.328   6.811  17.459  0.00  0.00    +0.000 A 
ATOM      6  C   UNL     1       7.000   8.010  17.241  0.00  0.00    +0.000 A 
ENDROOT
BRANCH   1   9
ATOM      7  O   UNL     1       9.138  10.354  19.978  0.00  0.00    +0.000 OA
ATOM      8  C   UNL     1       9.137  10.496  18.761  0.00  0.00    +0.000 C 
ATOM      9  N   UNL     1       8.636   9.612  17.830  0.00  0.00    +0.000 N 
ATOM     10  H   UNL     1       8.644   9.993  16.885  0.00  0.00    +0.000 HD
BRANCH   8  11
ATOM     11  C   UNL     1       9.741  11.656  18.080  0.00  0.00    +0.000 A 
ATOM     12  N   UNL     1      11.051  11.640  17.732  0.00  0.00    +0.000 NA
ATOM     13  N   UNL     1      11.312  12.926  17.446  0.00  0.00    +0.000 N 
ATOM     14  C   UNL     1      10.255  13.766  17.657  0.00  0.00    +0.000 A 
ATOM     15  C   UNL     1      10.169  15.158  17.711  0.00  0.00    +0.000 A 
ATOM     16  C   UNL     1       8.891  15.704  17.867  0.00  0.00    +0.000 A 
ATOM     17  C   UNL     1       7.758  14.891  17.909  0.00  0.00    +0.000 A 
ATOM     18  C   UNL     1       7.876  13.497  17.923  0.00  0.00    +0.000 A 
ATOM     19  C   UNL     1       9.161  12.932  17.855  0.00  0.00    +0.000 A 
ATOM     20  H   UNL     1      12.248  13.173  17.147  0.00  0.00    +0.000 HD
ENDBRANCH   8  11
ENDBRANCH   1   9
BRANCH   5  21
ATOM     21  S   UNL     1       4.813   6.511  16.571  0.00  0.00    +0.000 S 
ATOM     22  O   UNL     1       3.750   7.210  17.260  0.00  0.00    +0.000 OA
ATOM     23  O   UNL     1       5.083   6.735  15.171  0.00  0.00    +0.000 OA
BRANCH  21  24
ATOM     24  N   UNL     1       4.596   4.841  16.755  0.00  0.00    +0.000 N 
ATOM     25  H   UNL     1       5.465   4.332  16.593  0.00  0.00    +0.000 HD
BRANCH  24  26
ATOM     26  C   UNL     1       3.731   4.351  17.775  0.00  0.00    +0.000 A 
ATOM     27  C   UNL     1       2.351   4.409  17.601  0.00  0.00    +0.000 A 
ATOM     28  C   UNL     1       1.499   3.932  18.609  0.00  0.00    +0.000 A 
ATOM     29  C   UNL     1       2.046   3.434  19.787  0.00  0.00    +0.000 A 
ATOM     30 CL   UNL     1       1.000   2.853  21.033  0.00  0.00    +0.000 Cl
ATOM     31  C   UNL     1       3.422   3.397  19.975  0.00  0.00    +0.000 A 
ATOM     32  C   UNL     1       4.271   3.852  18.957  0.00  0.00    +0.000 A 
ENDBRANCH  24  26
ENDBRANCH  21  24
ENDBRANCH   5  21
TORSDOF 5
ENDMDL
MODEL 7
REMARK VINA RESULT:      -8.6      5.603      8.319
REMARK  Name = 
REMARK  5 active torsions:
REMARK  status: ('A' for Active; 'I' for Inactive)
REMARK    1  A    between atoms: C_2  and  C_21
REMARK    2  A    between atoms: N_3  and  C_4
REMARK    3  A    between atoms: C_8  and  S_9
REMARK    4  A    between atoms: S_9  and  N_12
REMARK    5  A    between atoms: N_12  and  C_13
REMARK                            x       y       z     vdW  Elec       q    Type
REMARK                         _______ _______ _______ _____ _____    ______ ____
ROOT
ATOM      1  C   UNL     1       1.751   7.599  20.263  0.00  0.00    +0.000 A 
ATOM      2  C   UNL     1       0.866   7.389  21.322  0.00  0.00    +0.000 A 
ATOM      3  C   UNL     1      -0.074   8.372  21.658  0.00  0.00    +0.000 A 
ATOM      4  C   UNL     1      -0.109   9.578  20.954  0.00  0.00    +0.000 A 
ATOM      5  C   UNL     1       0.775   9.769  19.891  0.00  0.00    +0.000 A 
ATOM      6  C   UNL     1       1.661   8.765  19.510  0.00  0.00    +0.000 A 
ENDROOT
BRANCH   1   9
ATOM      7  O   UNL     1       1.628   4.999  18.783  0.00  0.00    +0.000 OA
ATOM      8  C   UNL     1       2.659   5.533  19.175  0.00  0.00    +0.000 C 
ATOM      9  N   UNL     1       2.756   6.705  19.892  0.00  0.00    +0.000 N 
ATOM     10  H   UNL     1       3.708   6.895  20.204  0.00  0.00    +0.000 HD
BRANCH   8  11
ATOM     11  C   UNL     1       4.005   5.008  18.883  0.00  0.00    +0.000 A 
ATOM     12  N   UNL     1       4.409   3.828  19.411  0.00  0.00    +0.000 NA
ATOM     13  N   UNL     1       5.736   3.833  19.205  0.00  0.00    +0.000 N 
ATOM     14  C   UNL     1       6.203   4.983  18.633  0.00  0.00    +0.000 A 
ATOM     15  C   UNL     1       7.496   5.482  18.469  0.00  0.00    +0.000 A 
ATOM     16  C   UNL     1       7.624   6.676  17.752  0.00  0.00    +0.000 A 
ATOM     17  C   UNL     1       6.513   7.299  17.182  0.00  0.00    +0.000 A 
ATOM     18  C   UNL     1       5.221   6.816  17.418  0.00  0.00    +0.000 A 
ATOM     19  C   UNL     1       5.069   5.666  18.211  0.00  0.00    +0.000 A 
ATOM     20  H   UNL     1       6.277   3.033  19.515  0.00  0.00    +0.000 HD
ENDBRANCH   8  11
ENDBRANCH   1   9
BRANCH   5  21
ATOM     21  S   UNL     1       0.818  11.320  19.016  0.00  0.00    +0.000 S 
ATOM     22  O   UNL     1       0.202  12.321  19.859  0.00  0.00    +0.000 OA
ATOM     23  O   UNL     1       2.156  11.485  18.499  0.00  0.00    +0.000 OA
BRANCH  21  24
ATOM     24  N   UNL     1      -0.178  11.024  17.678  0.00  0.00    +0.000 N 
ATOM     25  H   UNL     1       0.255  10.364  17.031  0.00  0.00    +0.000 HD
BRANCH  24  26
ATOM     26  C   UNL     1      -1.589  10.939  17.855  0.00  0.00    +0.000 A 
ATOM     27  C   UNL     1      -2.264  11.948  18.535  0.00  0.00    +0.000 A 
ATOM     28  C   UNL     1      -3.653  11.860  18.716  0.00  0.00    +0.000 A 
ATOM     29  C   UNL     1      -4.335  10.747  18.238  0.00  0.00    +0.000 A 
ATOM     30 CL   UNL     1      -6.044  10.632  18.465  0.00  0.00    +0.000 Cl
ATOM     31  C   UNL     1      -3.661   9.725  17.580  0.00  0.00    +0.000 A 
ATOM     32  C   UNL     1      -2.278   9.826  17.380  0.00  0.00    +0.000 A 
ENDBRANCH  24  26
ENDBRANCH  21  24
ENDBRANCH   5  21
TORSDOF 5
ENDMDL
MODEL 8
REMARK VINA RESULT:      -8.5      5.583      7.562
REMARK  Name = 
REMARK  5 active torsions:
REMARK  status: ('A' for Active; 'I' for Inactive)
REMARK    1  A    between atoms: C_2  and  C_21
REMARK    2  A    between atoms: N_3  and  C_4
REMARK    3  A    between atoms: C_8  and  S_9
REMARK    4  A    between atoms: S_9  and  N_12
REMARK    5  A    between atoms: N_12  and  C_13
REMARK                            x       y       z     vdW  Elec       q    Type
REMARK                         _______ _______ _______ _____ _____    ______ ____
ROOT
ATOM      1  C   UNL     1       3.692   5.640  19.462  0.00  0.00    +0.000 A 
ATOM      2  C   UNL     1       3.264   4.311  19.473  0.00  0.00    +0.000 A 
ATOM      3  C   UNL     1       4.087   3.303  18.953  0.00  0.00    +0.000 A 
ATOM      4  C   UNL     1       5.325   3.628  18.394  0.00  0.00    +0.000 A 
ATOM      5  C   UNL     1       5.744   4.960  18.399  0.00  0.00    +0.000 A 
ATOM      6  C   UNL     1       4.960   5.952  18.980  0.00  0.00    +0.000 A 
ENDROOT
BRANCH   1   9
ATOM      7  O   UNL     1       2.226   7.766  17.947  0.00  0.00    +0.000 OA
ATOM      8  C   UNL     1       2.229   7.652  19.167  0.00  0.00    +0.000 C 
ATOM      9  N   UNL     1       2.921   6.716  19.903  0.00  0.00    +0.000 N 
ATOM     10  H   UNL     1       2.861   6.884  20.907  0.00  0.00    +0.000 HD
BRANCH   8  11
ATOM     11  C   UNL     1       1.423   8.501  20.063  0.00  0.00    +0.000 A 
ATOM     12  N   UNL     1       0.903   7.992  21.205  0.00  0.00    +0.000 NA
ATOM     13  N   UNL     1       0.002   8.916  21.576  0.00  0.00    +0.000 N 
ATOM     14  C   UNL     1      -0.122   9.953  20.695  0.00  0.00    +0.000 A 
ATOM     15  C   UNL     1      -1.074  10.968  20.580  0.00  0.00    +0.000 A 
ATOM     16  C   UNL     1      -0.849  11.933  19.594  0.00  0.00    +0.000 A 
ATOM     17  C   UNL     1       0.303  11.907  18.806  0.00  0.00    +0.000 A 
ATOM     18  C   UNL     1       1.207  10.842  18.893  0.00  0.00    +0.000 A 
ATOM     19  C   UNL     1       0.949   9.818  19.820  0.00  0.00    +0.000 A 
ATOM     20  H   UNL     1      -0.527   8.761  22.427  0.00  0.00    +0.000 HD
ENDBRANCH   8  11
ENDBRANCH   1   9
BRANCH   5  21
ATOM     21  S   UNL     1       7.279   5.430  17.628  0.00  0.00    +0.000 S 
ATOM     22  O   UNL     1       7.887   6.459  18.443  0.00  0.00    +0.000 OA
ATOM     23  O   UNL     1       7.982   4.214  17.295  0.00  0.00    +0.000 OA
BRANCH  21  24
ATOM     24  N   UNL     1       6.770   6.105  16.160  0.00  0.00    +0.000 N 
ATOM     25  H   UNL     1       7.247   6.987  15.971  0.00  0.00    +0.000 HD
BRANCH  24  26
ATOM     26  C   UNL     1       6.500   5.255  15.049  0.00  0.00    +0.000 A 
ATOM     27  C   UNL     1       5.316   4.526  15.006  0.00  0.00    +0.000 A 
ATOM     28  C   UNL     1       5.053   3.682  13.915  0.00  0.00    +0.000 A 
ATOM     29  C   UNL     1       5.998   3.563  12.901  0.00  0.00    +0.000 A 
ATOM     30 CL   UNL     1       5.682   2.521  11.561  0.00  0.00    +0.000 Cl
ATOM     31  C   UNL     1       7.193   4.270  12.953  0.00  0.00    +0.000 A 
ATOM     32  C   UNL     1       7.442   5.129  14.032  0.00  0.00    +0.000 A 
ENDBRANCH  24  26
ENDBRANCH  21  24
ENDBRANCH   5  21
TORSDOF 5
ENDMDL
MODEL 9
REMARK VINA RESULT:      -8.5      6.160      8.565
REMARK  Name = 
REMARK  5 active torsions:
REMARK  status: ('A' for Active; 'I' for Inactive)
REMARK    1  A    between atoms: C_2  and  C_21
REMARK    2  A    between atoms: N_3  and  C_4
REMARK    3  A    between atoms: C_8  and  S_9
REMARK    4  A    between atoms: S_9  and  N_12
REMARK    5  A    between atoms: N_12  and  C_13
REMARK                            x       y       z     vdW  Elec       q    Type
REMARK                         _______ _______ _______ _____ _____    ______ ____
ROOT
ATOM      1  C   UNL     1       1.882   7.525  20.187  0.00  0.00    +0.000 A 
ATOM      2  C   UNL     1       0.990   7.290  21.234  0.00  0.00    +0.000 A 
ATOM      3  C   UNL     1       0.022   8.248  21.562  0.00  0.00    +0.000 A 
ATOM      4  C   UNL     1      -0.033   9.457  20.863  0.00  0.00    +0.000 A 
ATOM      5  C   UNL     1       0.860   9.673  19.812  0.00  0.00    +0.000 A 
ATOM      6  C   UNL     1       1.775   8.693  19.438  0.00  0.00    +0.000 A 
ENDROOT
BRANCH   1   9
ATOM      7  O   UNL     1       2.007   5.372  18.110  0.00  0.00    +0.000 OA
ATOM      8  C   UNL     1       2.940   5.702  18.833  0.00  0.00    +0.000 C 
ATOM      9  N   UNL     1       2.913   6.657  19.825  0.00  0.00    +0.000 N 
ATOM     10  H   UNL     1       3.775   6.681  20.368  0.00  0.00    +0.000 HD
BRANCH   8  11
ATOM     11  C   UNL     1       4.298   5.141  18.710  0.00  0.00    +0.000 A 
ATOM     12  N   UNL     1       5.141   5.150  19.770  0.00  0.00    +0.000 NA
ATOM     13  N   UNL     1       6.334   4.872  19.221  0.00  0.00    +0.000 N 
ATOM     14  C   UNL     1       6.303   4.753  17.860  0.00  0.00    +0.000 A 
ATOM     15  C   UNL     1       7.321   4.706  16.906  0.00  0.00    +0.000 A 
ATOM     16  C   UNL     1       6.932   4.491  15.580  0.00  0.00    +0.000 A 
ATOM     17  C   UNL     1       5.594   4.279  15.244  0.00  0.00    +0.000 A 
ATOM     18  C   UNL     1       4.586   4.400  16.208  0.00  0.00    +0.000 A 
ATOM     19  C   UNL     1       4.954   4.702  17.530  0.00  0.00    +0.000 A 
ATOM     20  H   UNL     1       7.144   4.816  19.828  0.00  0.00    +0.000 HD
ENDBRANCH   8  11
ENDBRANCH   1   9
BRANCH   5  21
ATOM     21  S   UNL     1       0.878  11.229  18.945  0.00  0.00    +0.000 S 
ATOM     22  O   UNL     1       0.290  12.226  19.813  0.00  0.00    +0.000 OA
ATOM     23  O   UNL     1       2.199  11.395  18.387  0.00  0.00    +0.000 OA
BRANCH  21  24
ATOM     24  N   UNL     1      -0.160  10.942  17.638  0.00  0.00    +0.000 N 
ATOM     25  H   UNL     1       0.243  10.272  16.982  0.00  0.00    +0.000 HD
BRANCH  24  26
ATOM     26  C   UNL     1      -1.567  10.880  17.856  0.00  0.00    +0.000 A 
ATOM     27  C   UNL     1      -2.298   9.805  17.359  0.00  0.00    +0.000 A 
ATOM     28  C   UNL     1      -3.685   9.747  17.567  0.00  0.00    +0.000 A 
ATOM     29  C   UNL     1      -4.318  10.784  18.244  0.00  0.00    +0.000 A 
ATOM     30 CL   UNL     1      -6.025  10.721  18.496  0.00  0.00    +0.000 Cl
ATOM     31  C   UNL     1      -3.595  11.872  18.720  0.00  0.00    +0.000 A 
ATOM     32  C   UNL     1      -2.207  11.915  18.531  0.00  0.00    +0.000 A 
ENDBRANCH  24  26
ENDBRANCH  21  24
ENDBRANCH   5  21
TORSDOF 5
ENDMDL
