MODEL 1
REMARK VINA RESULT:      -7.6      0.000      0.000
REMARK  Name = 
REMARK  4 active torsions:
REMARK  status: ('A' for Active; 'I' for Inactive)
REMARK    1  A    between atoms: N_1  and  S_2
REMARK    2  A    between atoms: S_2  and  C_5
REMARK    3  A    between atoms: C_11  and  C_12
REMARK    4  A    between atoms: C_18  and  C_19
REMARK                            x       y       z     vdW  Elec       q    Type
REMARK                         _______ _______ _______ _____ _____    ______ ____
ROOT
ATOM      1  C   UNL     1       9.529  13.312  21.556  0.00  0.00    +0.000 C 
ATOM      2  O   UNL     1      10.152  14.353  21.761  0.00  0.00    +0.000 OA
ATOM      3  N   UNL     1      10.034  12.294  20.737  0.00  0.00    +0.000 N 
ATOM      4  C   UNL     1      11.374  12.466  20.174  0.00  0.00    +0.000 C 
ATOM      5  C   UNL     1      11.354  12.318  18.653  0.00  0.00    +0.000 C 
ATOM      6  C   UNL     1      10.674  11.018  18.220  0.00  0.00    +0.000 C 
ATOM      7  C   UNL     1       9.284  10.866  18.873  0.00  0.00    +0.000 C 
ATOM      8  C   UNL     1       9.428  10.996  20.405  0.00  0.00    +0.000 C 
ENDROOT
BRANCH   7   9
ATOM      9  C   UNL     1       8.626   9.570  18.495  0.00  0.00    +0.000 A 
ATOM     10  C   UNL     1       7.757   9.264  17.465  0.00  0.00    +0.000 A 
ATOM     11  C   UNL     1       7.453   7.881  17.533  0.00  0.00    +0.000 A 
ATOM     12  C   UNL     1       6.653   7.023  16.757  0.00  0.00    +0.000 A 
ATOM     13  C   UNL     1       6.579   5.668  17.095  0.00  0.00    +0.000 A 
ATOM     14  C   UNL     1       7.282   5.171  18.191  0.00  0.00    +0.000 A 
ATOM     15  C   UNL     1       8.077   6.010  18.981  0.00  0.00    +0.000 A 
ATOM     16  C   UNL     1       8.145   7.362  18.625  0.00  0.00    +0.000 A 
ATOM     17  N   UNL     1       8.840   8.403  19.200  0.00  0.00    +0.000 N 
ATOM     18  H   UNL     1       9.433   8.303  20.017  0.00  0.00    +0.000 HD
ENDBRANCH   7   9
BRANCH   1  25
ATOM     19  C   UNL     1       5.877  13.843  22.410  0.00  0.00    +0.000 A 
ATOM     20  C   UNL     1       5.703  12.976  23.488  0.00  0.00    +0.000 A 
ATOM     21  C   UNL     1       6.805  12.264  23.958  0.00  0.00    +0.000 A 
ATOM     22 CL   UNL     1       6.620  11.268  25.352  0.00  0.00    +0.000 Cl
ATOM     23  C   UNL     1       8.044  12.367  23.316  0.00  0.00    +0.000 A 
ATOM     24  F   UNL     1       9.080  11.652  23.783  0.00  0.00    +0.000 F 
ATOM     25  C   UNL     1       8.200  13.203  22.202  0.00  0.00    +0.000 A 
ATOM     26  C   UNL     1       7.124  13.991  21.795  0.00  0.00    +0.000 A 
BRANCH  19  27
ATOM     27  S   UNL     1       4.511  14.794  21.808  0.00  0.00    +0.000 S 
ATOM     28  O   UNL     1       3.294  14.153  22.231  0.00  0.00    +0.000 OA
ATOM     29  O   UNL     1       4.775  15.155  20.437  0.00  0.00    +0.000 OA
BRANCH  27  30
ATOM     30  N   UNL     1       4.683  16.191  22.717  0.00  0.00    +0.000 NA
ATOM     31  H   UNL     1       3.783  16.475  23.104  0.00  0.00    +0.000 HD
ATOM     32  H   UNL     1       5.165  16.924  22.198  0.00  0.00    +0.000 HD
ENDBRANCH  27  30
ENDBRANCH  19  27
ENDBRANCH   1  25
TORSDOF 4
ENDMDL
MODEL 2
REMARK VINA RESULT:      -7.5      2.377      2.649
REMARK  Name = 
REMARK  4 active torsions:
REMARK  status: ('A' for Active; 'I' for Inactive)
REMARK    1  A    between atoms: N_1  and  S_2
REMARK    2  A    between atoms: S_2  and  C_5
REMARK    3  A    between atoms: C_11  and  C_12
REMARK    4  A    between atoms: C_18  and  C_19
REMARK                            x       y       z     vdW  Elec       q    Type
REMARK                         _______ _______ _______ _____ _____    ______ ____
ROOT
ATOM      1  C   UNL     1       9.659  13.708  21.072  0.00  0.00    +0.000 C 
ATOM      2  O   UNL     1      10.335  14.728  21.204  0.00  0.00    +0.000 OA
ATOM      3  N   UNL     1      10.148  12.572  20.416  0.00  0.00    +0.000 N 
ATOM      4  C   UNL     1      11.533  12.595  19.942  0.00  0.00    +0.000 C 
ATOM      5  C   UNL     1      11.609  12.269  18.452  0.00  0.00    +0.000 C 
ATOM      6  C   UNL     1      10.873  10.970  18.119  0.00  0.00    +0.000 C 
ATOM      7  C   UNL     1       9.434  10.980  18.675  0.00  0.00    +0.000 C 
ATOM      8  C   UNL     1       9.479  11.283  20.189  0.00  0.00    +0.000 C 
ENDROOT
BRANCH   7   9
ATOM      9  C   UNL     1       8.716   9.691  18.398  0.00  0.00    +0.000 A 
ATOM     10  C   UNL     1       7.791   9.362  17.426  0.00  0.00    +0.000 A 
ATOM     11  C   UNL     1       7.444   7.996  17.582  0.00  0.00    +0.000 A 
ATOM     12  C   UNL     1       6.581   7.127  16.890  0.00  0.00    +0.000 A 
ATOM     13  C   UNL     1       6.479   5.795  17.305  0.00  0.00    +0.000 A 
ATOM     14  C   UNL     1       7.215   5.332  18.393  0.00  0.00    +0.000 A 
ATOM     15  C   UNL     1       8.073   6.182  19.100  0.00  0.00    +0.000 A 
ATOM     16  C   UNL     1       8.169   7.511  18.668  0.00  0.00    +0.000 A 
ATOM     17  N   UNL     1       8.925   8.556  19.155  0.00  0.00    +0.000 N 
ATOM     18  H   UNL     1       9.551   8.477  19.948  0.00  0.00    +0.000 HD
ENDBRANCH   7   9
BRANCH   1  25
ATOM     19  C   UNL     1       6.618  13.094  23.245  0.00  0.00    +0.000 A 
ATOM     20  C   UNL     1       5.645  13.864  22.606  0.00  0.00    +0.000 A 
ATOM     21  C   UNL     1       5.988  14.534  21.434  0.00  0.00    +0.000 A 
ATOM     22 CL   UNL     1       4.765  15.404  20.585  0.00  0.00    +0.000 Cl
ATOM     23  C   UNL     1       7.299  14.491  20.947  0.00  0.00    +0.000 A 
ATOM     24  F   UNL     1       7.599  15.165  19.825  0.00  0.00    +0.000 F 
ATOM     25  C   UNL     1       8.284  13.757  21.622  0.00  0.00    +0.000 A 
ATOM     26  C   UNL     1       7.917  13.004  22.738  0.00  0.00    +0.000 A 
BRANCH  19  27
ATOM     27  S   UNL     1       6.212  12.197  24.715  0.00  0.00    +0.000 S 
ATOM     28  O   UNL     1       7.416  12.020  25.484  0.00  0.00    +0.000 OA
ATOM     29  O   UNL     1       5.340  11.105  24.358  0.00  0.00    +0.000 OA
BRANCH  27  30
ATOM     30  N   UNL     1       5.269  13.326  25.516  0.00  0.00    +0.000 NA
ATOM     31  H   UNL     1       4.876  12.921  26.367  0.00  0.00    +0.000 HD
ATOM     32  H   UNL     1       4.578  13.750  24.898  0.00  0.00    +0.000 HD
ENDBRANCH  27  30
ENDBRANCH  19  27
ENDBRANCH   1  25
TORSDOF 4
ENDMDL
MODEL 3
REMARK VINA RESULT:      -7.4      7.307     10.184
REMARK  Name = 
REMARK  4 active torsions:
REMARK  status: ('A' for Active; 'I' for Inactive)
REMARK    1  A    between atoms: N_1  and  S_2
REMARK    2  A    between atoms: S_2  and  C_5
REMARK    3  A    between atoms: C_11  and  C_12
REMARK    4  A    between atoms: C_18  and  C_19
REMARK                            x       y       z     vdW  Elec       q    Type
REMARK                         _______ _______ _______ _____ _____    ______ ____
ROOT
ATOM      1  C   UNL     1       4.751   3.598  19.079  0.00  0.00    +0.000 C 
ATOM      2  O   UNL     1       4.928   2.382  19.004  0.00  0.00    +0.000 OA
ATOM      3  N   UNL     1       3.764   4.156  19.898  0.00  0.00    +0.000 N 
ATOM      4  C   UNL     1       2.973   3.253  20.736  0.00  0.00    +0.000 C 
ATOM      5  C   UNL     1       1.477   3.445  20.492  0.00  0.00    +0.000 C 
ATOM      6  C   UNL     1       1.066   4.912  20.624  0.00  0.00    +0.000 C 
ATOM      7  C   UNL     1       1.956   5.826  19.754  0.00  0.00    +0.000 C 
ATOM      8  C   UNL     1       3.437   5.575  20.108  0.00  0.00    +0.000 C 
ENDROOT
BRANCH   7   9
ATOM      9  C   UNL     1       1.594   7.275  19.912  0.00  0.00    +0.000 A 
ATOM     10  C   UNL     1       1.111   7.972  21.003  0.00  0.00    +0.000 A 
ATOM     11  C   UNL     1       0.964   9.333  20.634  0.00  0.00    +0.000 A 
ATOM     12  C   UNL     1       0.535  10.484  21.318  0.00  0.00    +0.000 A 
ATOM     13  C   UNL     1       0.523  11.712  20.648  0.00  0.00    +0.000 A 
ATOM     14  C   UNL     1       0.923  11.796  19.316  0.00  0.00    +0.000 A 
ATOM     15  C   UNL     1       1.345  10.661  18.614  0.00  0.00    +0.000 A 
ATOM     16  C   UNL     1       1.357   9.442  19.302  0.00  0.00    +0.000 A 
ATOM     17  N   UNL     1       1.725   8.182  18.881  0.00  0.00    +0.000 N 
ATOM     18  H   UNL     1       2.058   7.975  17.945  0.00  0.00    +0.000 HD
ENDBRANCH   7   9
BRANCH   1  25
ATOM     19  C   UNL     1       6.495   5.109  16.075  0.00  0.00    +0.000 A 
ATOM     20  C   UNL     1       7.333   6.052  16.670  0.00  0.00    +0.000 A 
ATOM     21  C   UNL     1       7.355   6.142  18.060  0.00  0.00    +0.000 A 
ATOM     22 CL   UNL     1       8.462   7.233  18.806  0.00  0.00    +0.000 Cl
ATOM     23  C   UNL     1       6.503   5.351  18.838  0.00  0.00    +0.000 A 
ATOM     24  F   UNL     1       6.536   5.477  20.174  0.00  0.00    +0.000 F 
ATOM     25  C   UNL     1       5.627   4.441  18.231  0.00  0.00    +0.000 A 
ATOM     26  C   UNL     1       5.677   4.279  16.846  0.00  0.00    +0.000 A 
BRANCH  19  27
ATOM     27  S   UNL     1       6.466   4.937  14.314  0.00  0.00    +0.000 S 
ATOM     28  O   UNL     1       7.740   5.361  13.797  0.00  0.00    +0.000 OA
ATOM     29  O   UNL     1       5.209   5.449  13.825  0.00  0.00    +0.000 OA
BRANCH  27  30
ATOM     30  N   UNL     1       6.397   3.269  14.168  0.00  0.00    +0.000 NA
ATOM     31  H   UNL     1       5.982   3.009  13.273  0.00  0.00    +0.000 HD
ATOM     32  H   UNL     1       5.953   2.836  14.976  0.00  0.00    +0.000 HD
ENDBRANCH  27  30
ENDBRANCH  19  27
ENDBRANCH   1  25
TORSDOF 4
ENDMDL
MODEL 4
REMARK VINA RESULT:      -7.3      7.320     10.171
REMARK  Name = 
REMARK  4 active torsions:
REMARK  status: ('A' for Active; 'I' for Inactive)
REMARK    1  A    between atoms: N_1  and  S_2
REMARK    2  A    between atoms: S_2  and  C_5
REMARK    3  A    between atoms: C_11  and  C_12
REMARK    4  A    between atoms: C_18  and  C_19
REMARK                            x       y       z     vdW  Elec       q    Type
REMARK                         _______ _______ _______ _____ _____    ______ ____
ROOT
ATOM      1  C   UNL     1       4.785   3.613  19.045  0.00  0.00    +0.000 C 
ATOM      2  O   UNL     1       4.963   2.398  18.956  0.00  0.00    +0.000 OA
ATOM      3  N   UNL     1       3.781   4.159  19.853  0.00  0.00    +0.000 N 
ATOM      4  C   UNL     1       2.973   3.243  20.660  0.00  0.00    +0.000 C 
ATOM      5  C   UNL     1       1.483   3.439  20.389  0.00  0.00    +0.000 C 
ATOM      6  C   UNL     1       1.069   4.905  20.534  0.00  0.00    +0.000 C 
ATOM      7  C   UNL     1       1.976   5.831  19.697  0.00  0.00    +0.000 C 
ATOM      8  C   UNL     1       3.450   5.574  20.077  0.00  0.00    +0.000 C 
ENDROOT
BRANCH   7   9
ATOM      9  C   UNL     1       1.612   7.277  19.869  0.00  0.00    +0.000 A 
ATOM     10  C   UNL     1       1.661   8.335  18.981  0.00  0.00    +0.000 A 
ATOM     11  C   UNL     1       1.174   9.494  19.637  0.00  0.00    +0.000 A 
ATOM     12  C   UNL     1       0.984  10.828  19.238  0.00  0.00    +0.000 A 
ATOM     13  C   UNL     1       0.454  11.744  20.152  0.00  0.00    +0.000 A 
ATOM     14  C   UNL     1       0.124  11.346  21.446  0.00  0.00    +0.000 A 
ATOM     15  C   UNL     1       0.314  10.024  21.866  0.00  0.00    +0.000 A 
ATOM     16  C   UNL     1       0.839   9.119  20.936  0.00  0.00    +0.000 A 
ATOM     17  N   UNL     1       1.122   7.775  21.060  0.00  0.00    +0.000 N 
ATOM     18  H   UNL     1       0.969   7.243  21.909  0.00  0.00    +0.000 HD
ENDBRANCH   7   9
BRANCH   1  25
ATOM     19  C   UNL     1       6.581   5.176  16.099  0.00  0.00    +0.000 A 
ATOM     20  C   UNL     1       7.416   6.102  16.727  0.00  0.00    +0.000 A 
ATOM     21  C   UNL     1       7.417   6.163  18.119  0.00  0.00    +0.000 A 
ATOM     22 CL   UNL     1       8.518   7.233  18.903  0.00  0.00    +0.000 Cl
ATOM     23  C   UNL     1       6.549   5.361  18.867  0.00  0.00    +0.000 A 
ATOM     24  F   UNL     1       6.563   5.460  20.206  0.00  0.00    +0.000 F 
ATOM     25  C   UNL     1       5.677   4.469  18.228  0.00  0.00    +0.000 A 
ATOM     26  C   UNL     1       5.748   4.334  16.841  0.00  0.00    +0.000 A 
BRANCH  19  27
ATOM     27  S   UNL     1       6.579   5.040  14.335  0.00  0.00    +0.000 S 
ATOM     28  O   UNL     1       7.897   5.361  13.855  0.00  0.00    +0.000 OA
ATOM     29  O   UNL     1       5.383   5.670  13.830  0.00  0.00    +0.000 OA
BRANCH  27  30
ATOM     30  N   UNL     1       6.369   3.388  14.153  0.00  0.00    +0.000 NA
ATOM     31  H   UNL     1       5.507   3.087  14.611  0.00  0.00    +0.000 HD
ATOM     32  H   UNL     1       7.197   2.866  14.439  0.00  0.00    +0.000 HD
ENDBRANCH  27  30
ENDBRANCH  19  27
ENDBRANCH   1  25
TORSDOF 4
ENDMDL
MODEL 5
REMARK VINA RESULT:      -7.2      8.846     10.306
REMARK  Name = 
REMARK  4 active torsions:
REMARK  status: ('A' for Active; 'I' for Inactive)
REMARK    1  A    between atoms: N_1  and  S_2
REMARK    2  A    between atoms: S_2  and  C_5
REMARK    3  A    between atoms: C_11  and  C_12
REMARK    4  A    between atoms: C_18  and  C_19
REMARK                            x       y       z     vdW  Elec       q    Type
REMARK                         _______ _______ _______ _____ _____    ______ ____
ROOT
ATOM      1  C   UNL     1      -2.133  13.195  20.183  0.00  0.00    +0.000 C 
ATOM      2  O   UNL     1      -2.381  14.378  20.418  0.00  0.00    +0.000 OA
ATOM      3  N   UNL     1      -0.955  12.582  20.624  0.00  0.00    +0.000 N 
ATOM      4  C   UNL     1      -0.036  13.370  21.448  0.00  0.00    +0.000 C 
ATOM      5  C   UNL     1       1.369  13.379  20.848  0.00  0.00    +0.000 C 
ATOM      6  C   UNL     1       1.871  11.963  20.562  0.00  0.00    +0.000 C 
ATOM      7  C   UNL     1       0.850  11.162  19.727  0.00  0.00    +0.000 C 
ATOM      8  C   UNL     1      -0.519  11.189  20.441  0.00  0.00    +0.000 C 
ENDROOT
BRANCH   7   9
ATOM      9  C   UNL     1       1.308   9.754  19.480  0.00  0.00    +0.000 A 
ATOM     10  C   UNL     1       1.886   9.173  18.367  0.00  0.00    +0.000 A 
ATOM     11  C   UNL     1       2.159   7.814  18.662  0.00  0.00    +0.000 A 
ATOM     12  C   UNL     1       2.739   6.759  17.936  0.00  0.00    +0.000 A 
ATOM     13  C   UNL     1       2.880   5.508  18.545  0.00  0.00    +0.000 A 
ATOM     14  C   UNL     1       2.445   5.302  19.852  0.00  0.00    +0.000 A 
ATOM     15  C   UNL     1       1.856   6.336  20.590  0.00  0.00    +0.000 A 
ATOM     16  C   UNL     1       1.729   7.584  19.968  0.00  0.00    +0.000 A 
ATOM     17  N   UNL     1       1.208   8.769  20.441  0.00  0.00    +0.000 N 
ATOM     18  H   UNL     1       0.823   8.883  21.372  0.00  0.00    +0.000 HD
ENDBRANCH   7   9
BRANCH   1  25
ATOM     19  C   UNL     1      -5.338  11.493  19.096  0.00  0.00    +0.000 A 
ATOM     20  C   UNL     1      -5.003  11.031  17.823  0.00  0.00    +0.000 A 
ATOM     21  C   UNL     1      -3.706  11.238  17.357  0.00  0.00    +0.000 A 
ATOM     22 CL   UNL     1      -3.257  10.582  15.827  0.00  0.00    +0.000 Cl
ATOM     23  C   UNL     1      -2.781  11.955  18.123  0.00  0.00    +0.000 A 
ATOM     24  F   UNL     1      -1.546  12.154  17.635  0.00  0.00    +0.000 F 
ATOM     25  C   UNL     1      -3.139  12.460  19.381  0.00  0.00    +0.000 A 
ATOM     26  C   UNL     1      -4.405  12.165  19.890  0.00  0.00    +0.000 A 
BRANCH  19  27
ATOM     27  S   UNL     1      -6.962  11.215  19.740  0.00  0.00    +0.000 S 
ATOM     28  O   UNL     1      -7.854  12.176  19.146  0.00  0.00    +0.000 OA
ATOM     29  O   UNL     1      -6.861  11.012  21.165  0.00  0.00    +0.000 OA
BRANCH  27  30
ATOM     30  N   UNL     1      -7.312   9.723  19.063  0.00  0.00    +0.000 NA
ATOM     31  H   UNL     1      -8.251   9.727  18.662  0.00  0.00    +0.000 HD
ATOM     32  H   UNL     1      -7.141   8.960  19.717  0.00  0.00    +0.000 HD
ENDBRANCH  27  30
ENDBRANCH  19  27
ENDBRANCH   1  25
TORSDOF 4
ENDMDL
MODEL 6
REMARK VINA RESULT:      -7.1      8.850     10.349
REMARK  Name = 
REMARK  4 active torsions:
REMARK  status: ('A' for Active; 'I' for Inactive)
REMARK    1  A    between atoms: N_1  and  S_2
REMARK    2  A    between atoms: S_2  and  C_5
REMARK    3  A    between atoms: C_11  and  C_12
REMARK    4  A    between atoms: C_18  and  C_19
REMARK                            x       y       z     vdW  Elec       q    Type
REMARK                         _______ _______ _______ _____ _____    ______ ____
ROOT
ATOM      1  C   UNL     1      -2.089  13.213  20.114  0.00  0.00    +0.000 C 
ATOM      2  O   UNL     1      -2.298  14.421  20.222  0.00  0.00    +0.000 OA
ATOM      3  N   UNL     1      -0.966  12.600  20.680  0.00  0.00    +0.000 N 
ATOM      4  C   UNL     1      -0.059  13.427  21.479  0.00  0.00    +0.000 C 
ATOM      5  C   UNL     1       1.375  13.324  20.965  0.00  0.00    +0.000 C 
ATOM      6  C   UNL     1       1.829  11.869  20.843  0.00  0.00    +0.000 C 
ATOM      7  C   UNL     1       0.821  11.031  20.028  0.00  0.00    +0.000 C 
ATOM      8  C   UNL     1      -0.583  11.180  20.655  0.00  0.00    +0.000 C 
ENDROOT
BRANCH   7   9
ATOM      9  C   UNL     1       1.230   9.589  19.943  0.00  0.00    +0.000 A 
ATOM     10  C   UNL     1       1.119   8.562  20.860  0.00  0.00    +0.000 A 
ATOM     11  C   UNL     1       1.632   7.378  20.271  0.00  0.00    +0.000 A 
ATOM     12  C   UNL     1       1.764   6.051  20.715  0.00  0.00    +0.000 A 
ATOM     13  C   UNL     1       2.315   5.096  19.854  0.00  0.00    +0.000 A 
ATOM     14  C   UNL     1       2.735   5.453  18.575  0.00  0.00    +0.000 A 
ATOM     15  C   UNL     1       2.621   6.770  18.117  0.00  0.00    +0.000 A 
ATOM     16  C   UNL     1       2.062   7.712  18.989  0.00  0.00    +0.000 A 
ATOM     17  N   UNL     1       1.819   9.057  18.813  0.00  0.00    +0.000 N 
ATOM     18  H   UNL     1       2.035   9.563  17.962  0.00  0.00    +0.000 HD
ENDBRANCH   7   9
BRANCH   1  25
ATOM     19  C   UNL     1      -5.282  11.481  19.038  0.00  0.00    +0.000 A 
ATOM     20  C   UNL     1      -4.918  10.947  17.801  0.00  0.00    +0.000 A 
ATOM     21  C   UNL     1      -3.608  11.117  17.359  0.00  0.00    +0.000 A 
ATOM     22 CL   UNL     1      -3.126  10.374  15.880  0.00  0.00    +0.000 Cl
ATOM     23  C   UNL     1      -2.696  11.868  18.110  0.00  0.00    +0.000 A 
ATOM     24  F   UNL     1      -1.447  12.028  17.644  0.00  0.00    +0.000 F 
ATOM     25  C   UNL     1      -3.082  12.444  19.328  0.00  0.00    +0.000 A 
ATOM     26  C   UNL     1      -4.363  12.188  19.819  0.00  0.00    +0.000 A 
BRANCH  19  27
ATOM     27  S   UNL     1      -6.925  11.253  19.652  0.00  0.00    +0.000 S 
ATOM     28  O   UNL     1      -7.777  12.239  19.041  0.00  0.00    +0.000 OA
ATOM     29  O   UNL     1      -6.855  11.050  21.079  0.00  0.00    +0.000 OA
BRANCH  27  30
ATOM     30  N   UNL     1      -7.307   9.771  18.971  0.00  0.00    +0.000 NA
ATOM     31  H   UNL     1      -7.722   9.155  19.672  0.00  0.00    +0.000 HD
ATOM     32  H   UNL     1      -6.513   9.365  18.477  0.00  0.00    +0.000 HD
ENDBRANCH  27  30
ENDBRANCH  19  27
ENDBRANCH   1  25
TORSDOF 4
ENDMDL
MODEL 7
REMARK VINA RESULT:      -7.1      1.736      2.031
REMARK  Name = 
REMARK  4 active torsions:
REMARK  status: ('A' for Active; 'I' for Inactive)
REMARK    1  A    between atoms: N_1  and  S_2
REMARK    2  A    between atoms: S_2  and  C_5
REMARK    3  A    between atoms: C_11  and  C_12
REMARK    4  A    between atoms: C_18  and  C_19
REMARK                            x       y       z     vdW  Elec       q    Type
REMARK                         _______ _______ _______ _____ _____    ______ ____
ROOT
ATOM      1  C   UNL     1       9.407  14.179  20.435  0.00  0.00    +0.000 C 
ATOM      2  O   UNL     1      10.095  15.196  20.511  0.00  0.00    +0.000 OA
ATOM      3  N   UNL     1       9.947  12.944  20.056  0.00  0.00    +0.000 N 
ATOM      4  C   UNL     1      11.389  12.869  19.812  0.00  0.00    +0.000 C 
ATOM      5  C   UNL     1      11.682  12.303  18.424  0.00  0.00    +0.000 C 
ATOM      6  C   UNL     1      10.956  10.977  18.189  0.00  0.00    +0.000 C 
ATOM      7  C   UNL     1       9.449  11.098  18.499  0.00  0.00    +0.000 C 
ATOM      8  C   UNL     1       9.271  11.644  19.933  0.00  0.00    +0.000 C 
ENDROOT
BRANCH   7   9
ATOM      9  C   UNL     1       8.733   9.791  18.320  0.00  0.00    +0.000 A 
ATOM     10  C   UNL     1       7.738   9.419  17.436  0.00  0.00    +0.000 A 
ATOM     11  C   UNL     1       7.427   8.054  17.661  0.00  0.00    +0.000 A 
ATOM     12  C   UNL     1       6.526   7.152  17.068  0.00  0.00    +0.000 A 
ATOM     13  C   UNL     1       6.479   5.833  17.529  0.00  0.00    +0.000 A 
ATOM     14  C   UNL     1       7.308   5.414  18.567  0.00  0.00    +0.000 A 
ATOM     15  C   UNL     1       8.206   6.298  19.177  0.00  0.00    +0.000 A 
ATOM     16  C   UNL     1       8.245   7.613  18.699  0.00  0.00    +0.000 A 
ATOM     17  N   UNL     1       9.020   8.683  19.091  0.00  0.00    +0.000 N 
ATOM     18  H   UNL     1       9.709   8.638  19.833  0.00  0.00    +0.000 HD
ENDBRANCH   7   9
BRANCH   1  25
ATOM     19  C   UNL     1       5.731  15.050  20.157  0.00  0.00    +0.000 A 
ATOM     20  C   UNL     1       5.241  14.636  21.396  0.00  0.00    +0.000 A 
ATOM     21  C   UNL     1       6.137  14.123  22.331  0.00  0.00    +0.000 A 
ATOM     22 CL   UNL     1       5.555  13.704  23.899  0.00  0.00    +0.000 Cl
ATOM     23  C   UNL     1       7.489  13.964  22.008  0.00  0.00    +0.000 A 
ATOM     24  F   UNL     1       8.321  13.448  22.927  0.00  0.00    +0.000 F 
ATOM     25  C   UNL     1       7.966  14.336  20.744  0.00  0.00    +0.000 A 
ATOM     26  C   UNL     1       7.089  14.942  19.844  0.00  0.00    +0.000 A 
BRANCH  19  27
ATOM     27  S   UNL     1       4.632  15.743  18.956  0.00  0.00    +0.000 S 
ATOM     28  O   UNL     1       5.063  17.086  18.670  0.00  0.00    +0.000 OA
ATOM     29  O   UNL     1       3.278  15.414  19.333  0.00  0.00    +0.000 OA
BRANCH  27  30
ATOM     30  N   UNL     1       5.003  14.803  17.620  0.00  0.00    +0.000 NA
ATOM     31  H   UNL     1       4.529  13.900  17.679  0.00  0.00    +0.000 HD
ATOM     32  H   UNL     1       6.009  14.737  17.470  0.00  0.00    +0.000 HD
ENDBRANCH  27  30
ENDBRANCH  19  27
ENDBRANCH   1  25
TORSDOF 4
ENDMDL
MODEL 8
REMARK VINA RESULT:      -7.0      5.366      7.048
REMARK  Name = 
REMARK  4 active torsions:
REMARK  status: ('A' for Active; 'I' for Inactive)
REMARK    1  A    between atoms: N_1  and  S_2
REMARK    2  A    between atoms: S_2  and  C_5
REMARK    3  A    between atoms: C_11  and  C_12
REMARK    4  A    between atoms: C_18  and  C_19
REMARK                            x       y       z     vdW  Elec       q    Type
REMARK                         _______ _______ _______ _____ _____    ______ ____
ROOT
ATOM      1  C   UNL     1       1.369  14.459  19.186  0.00  0.00    +0.000 C 
ATOM      2  O   UNL     1       0.691  15.474  19.348  0.00  0.00    +0.000 OA
ATOM      3  N   UNL     1       0.824  13.274  18.678  0.00  0.00    +0.000 N 
ATOM      4  C   UNL     1      -0.582  13.285  18.268  0.00  0.00    +0.000 C 
ATOM      5  C   UNL     1      -1.366  12.177  18.968  0.00  0.00    +0.000 C 
ATOM      6  C   UNL     1      -0.693  10.813  18.799  0.00  0.00    +0.000 C 
ATOM      7  C   UNL     1       0.795  10.867  19.205  0.00  0.00    +0.000 C 
ATOM      8  C   UNL     1       1.495  11.993  18.414  0.00  0.00    +0.000 C 
ENDROOT
BRANCH   7   9
ATOM      9  C   UNL     1       1.480   9.547  18.997  0.00  0.00    +0.000 A 
ATOM     10  C   UNL     1       2.227   9.072  17.935  0.00  0.00    +0.000 A 
ATOM     11  C   UNL     1       2.678   7.766  18.253  0.00  0.00    +0.000 A 
ATOM     12  C   UNL     1       3.468   6.820  17.577  0.00  0.00    +0.000 A 
ATOM     13  C   UNL     1       3.746   5.597  18.196  0.00  0.00    +0.000 A 
ATOM     14  C   UNL     1       3.243   5.313  19.464  0.00  0.00    +0.000 A 
ATOM     15  C   UNL     1       2.448   6.238  20.150  0.00  0.00    +0.000 A 
ATOM     16  C   UNL     1       2.184   7.459  19.519  0.00  0.00    +0.000 A 
ATOM     17  N   UNL     1       1.453   8.546  19.948  0.00  0.00    +0.000 N 
ATOM     18  H   UNL     1       0.982   8.591  20.844  0.00  0.00    +0.000 HD
ENDBRANCH   7   9
BRANCH   1  25
ATOM     19  C   UNL     1       4.534  14.584  21.264  0.00  0.00    +0.000 A 
ATOM     20  C   UNL     1       5.514  14.762  20.288  0.00  0.00    +0.000 A 
ATOM     21  C   UNL     1       5.118  14.893  18.959  0.00  0.00    +0.000 A 
ATOM     22 CL   UNL     1       6.315  15.214  17.761  0.00  0.00    +0.000 Cl
ATOM     23  C   UNL     1       3.769  14.780  18.605  0.00  0.00    +0.000 A 
ATOM     24  F   UNL     1       3.424  14.892  17.312  0.00  0.00    +0.000 F 
ATOM     25  C   UNL     1       2.793  14.551  19.585  0.00  0.00    +0.000 A 
ATOM     26  C   UNL     1       3.179  14.521  20.926  0.00  0.00    +0.000 A 
BRANCH  19  27
ATOM     27  S   UNL     1       4.994  14.452  22.968  0.00  0.00    +0.000 S 
ATOM     28  O   UNL     1       5.223  13.063  23.268  0.00  0.00    +0.000 OA
ATOM     29  O   UNL     1       4.114  15.290  23.745  0.00  0.00    +0.000 OA
BRANCH  27  30
ATOM     30  N   UNL     1       6.488  15.210  22.944  0.00  0.00    +0.000 NA
ATOM     31  H   UNL     1       7.174  14.627  22.463  0.00  0.00    +0.000 HD
ATOM     32  H   UNL     1       6.775  15.512  23.874  0.00  0.00    +0.000 HD
ENDBRANCH  27  30
ENDBRANCH  19  27
ENDBRANCH   1  25
TORSDOF 4
ENDMDL
MODEL 9
REMARK VINA RESULT:      -7.0     10.571     13.066
REMARK  Name = 
REMARK  4 active torsions:
REMARK  status: ('A' for Active; 'I' for Inactive)
REMARK    1  A    between atoms: N_1  and  S_2
REMARK    2  A    between atoms: S_2  and  C_5
REMARK    3  A    between atoms: C_11  and  C_12
REMARK    4  A    between atoms: C_18  and  C_19
REMARK                            x       y       z     vdW  Elec       q    Type
REMARK                         _______ _______ _______ _____ _____    ______ ____
ROOT
ATOM      1  C   UNL     1      -5.885  11.578  18.819  0.00  0.00    +0.000 C 
ATOM      2  O   UNL     1      -6.767  10.857  18.352  0.00  0.00    +0.000 OA
ATOM      3  N   UNL     1      -4.557  11.501  18.385  0.00  0.00    +0.000 N 
ATOM      4  C   UNL     1      -4.242  10.578  17.292  0.00  0.00    +0.000 C 
ATOM      5  C   UNL     1      -3.125   9.616  17.691  0.00  0.00    +0.000 C 
ATOM      6  C   UNL     1      -1.902  10.361  18.229  0.00  0.00    +0.000 C 
ATOM      7  C   UNL     1      -2.292  11.350  19.348  0.00  0.00    +0.000 C 
ATOM      8  C   UNL     1      -3.398  12.293  18.825  0.00  0.00    +0.000 C 
ENDROOT
BRANCH   7   9
ATOM      9  C   UNL     1      -1.108  12.124  19.850  0.00  0.00    +0.000 A 
ATOM     10  C   UNL     1       0.232  12.042  19.521  0.00  0.00    +0.000 A 
ATOM     11  C   UNL     1       0.936  13.022  20.265  0.00  0.00    +0.000 A 
ATOM     12  C   UNL     1       2.287  13.405  20.333  0.00  0.00    +0.000 A 
ATOM     13  C   UNL     1       2.657  14.452  21.183  0.00  0.00    +0.000 A 
ATOM     14  C   UNL     1       1.703  15.106  21.960  0.00  0.00    +0.000 A 
ATOM     15  C   UNL     1       0.355  14.735  21.914  0.00  0.00    +0.000 A 
ATOM     16  C   UNL     1       0.000  13.689  21.053  0.00  0.00    +0.000 A 
ATOM     17  N   UNL     1      -1.229  13.123  20.795  0.00  0.00    +0.000 N 
ATOM     18  H   UNL     1      -2.092  13.423  21.236  0.00  0.00    +0.000 HD
ENDBRANCH   7   9
BRANCH   1  25
ATOM     19  C   UNL     1      -6.960  12.984  22.168  0.00  0.00    +0.000 A 
ATOM     20  C   UNL     1      -7.116  14.339  21.877  0.00  0.00    +0.000 A 
ATOM     21  C   UNL     1      -6.918  14.767  20.566  0.00  0.00    +0.000 A 
ATOM     22 CL   UNL     1      -7.207  16.422  20.178  0.00  0.00    +0.000 Cl
ATOM     23  C   UNL     1      -6.504  13.867  19.578  0.00  0.00    +0.000 A 
ATOM     24  F   UNL     1      -6.303  14.317  18.329  0.00  0.00    +0.000 F 
ATOM     25  C   UNL     1      -6.300  12.515  19.889  0.00  0.00    +0.000 A 
ATOM     26  C   UNL     1      -6.596  12.068  21.177  0.00  0.00    +0.000 A 
BRANCH  19  27
ATOM     27  S   UNL     1      -7.240  12.394  23.813  0.00  0.00    +0.000 S 
ATOM     28  O   UNL     1      -7.722  11.040  23.732  0.00  0.00    +0.000 OA
ATOM     29  O   UNL     1      -7.917  13.427  24.559  0.00  0.00    +0.000 OA
BRANCH  27  30
ATOM     30  N   UNL     1      -5.669  12.331  24.390  0.00  0.00    +0.000 NA
ATOM     31  H   UNL     1      -5.354  13.263  24.663  0.00  0.00    +0.000 HD
ATOM     32  H   UNL     1      -5.044  11.854  23.741  0.00  0.00    +0.000 HD
ENDBRANCH  27  30
ENDBRANCH  19  27
ENDBRANCH   1  25
TORSDOF 4
ENDMDL
