MODEL 1
REMARK VINA RESULT:      -9.2      0.000      0.000
REMARK  Name = 
REMARK  3 active torsions:
REMARK  status: ('A' for Active; 'I' for Inactive)
REMARK    1  A    between atoms: C_2  and  C_13
REMARK    2  A    between atoms: C_17  and  S_18
REMARK    3  A    between atoms: S_18  and  N_21
REMARK                            x       y       z     vdW  Elec       q    Type
REMARK                         _______ _______ _______ _____ _____    ______ ____
ROOT
ATOM      1  C   UNL     1       0.705   8.957  21.254  0.00  0.00    +0.000 A 
ATOM      2  C   UNL     1       0.305   8.834  22.593  0.00  0.00    +0.000 A 
ATOM      3  C   UNL     1      -0.365   9.883  23.224  0.00  0.00    +0.000 A 
ATOM      4  C   UNL     1      -0.626  11.058  22.523  0.00  0.00    +0.000 A 
ATOM      5  C   UNL     1      -0.228  11.179  21.184  0.00  0.00    +0.000 A 
ATOM      6  C   UNL     1       0.418  10.125  20.538  0.00  0.00    +0.000 A 
ENDROOT
BRANCH   1   8
ATOM      7  O   UNL     1       1.373   6.726  21.195  0.00  0.00    +0.000 OA
ATOM      8  C   UNL     1       1.392   7.803  20.612  0.00  0.00    +0.000 C 
ATOM      9  N   UNL     1       2.034   8.107  19.437  0.00  0.00    +0.000 N 
ATOM     10  C   UNL     1       2.724   7.223  18.639  0.00  0.00    +0.000 A 
ATOM     11  N   UNL     1       3.526   7.644  17.695  0.00  0.00    +0.000 NA
ATOM     12  C   UNL     1       4.118   6.555  17.070  0.00  0.00    +0.000 A 
ATOM     13  C   UNL     1       5.098   6.608  16.059  0.00  0.00    +0.000 A 
ATOM     14  C   UNL     1       5.611   5.416  15.531  0.00  0.00    +0.000 A 
ATOM     15  C   UNL     1       5.167   4.181  15.986  0.00  0.00    +0.000 A 
ATOM     16  C   UNL     1       4.191   4.107  16.984  0.00  0.00    +0.000 A 
ATOM     17  C   UNL     1       3.687   5.304  17.518  0.00  0.00    +0.000 A 
ATOM     18  S   UNL     1       2.531   5.536  18.768  0.00  0.00    +0.000 S 
ATOM     19  H   UNL     1       2.195   9.072  19.178  0.00  0.00    +0.000 HD
ENDBRANCH   1   8
BRANCH   5  20
ATOM     20  S   UNL     1      -0.597  12.696  20.330  0.00  0.00    +0.000 S 
ATOM     21  O   UNL     1      -0.724  13.712  21.355  0.00  0.00    +0.000 OA
ATOM     22  O   UNL     1       0.389  12.819  19.276  0.00  0.00    +0.000 OA
BRANCH  20  23
ATOM     23  N   UNL     1      -2.084  12.491  19.613  0.00  0.00    +0.000 N 
ATOM     24  C   UNL     1      -3.345  12.579  20.394  0.00  0.00    +0.000 C 
ATOM     25  C   UNL     1      -4.404  12.618  19.287  0.00  0.00    +0.000 C 
ATOM     26  C   UNL     1      -3.775  11.613  18.365  0.00  0.00    +0.000 A 
ATOM     27  C   UNL     1      -4.391  10.649  17.592  0.00  0.00    +0.000 A 
ATOM     28  C   UNL     1      -3.569   9.770  16.892  0.00  0.00    +0.000 A 
ATOM     29  C   UNL     1      -2.169   9.934  16.895  0.00  0.00    +0.000 A 
ATOM     30  C   UNL     1      -1.556  10.916  17.681  0.00  0.00    +0.000 A 
ATOM     31  C   UNL     1      -2.377  11.682  18.477  0.00  0.00    +0.000 A 
ENDBRANCH  20  23
ENDBRANCH   5  20
TORSDOF 3
ENDMDL
MODEL 2
REMARK VINA RESULT:      -8.8      6.265      9.792
REMARK  Name = 
REMARK  3 active torsions:
REMARK  status: ('A' for Active; 'I' for Inactive)
REMARK    1  A    between atoms: C_2  and  C_13
REMARK    2  A    between atoms: C_17  and  S_18
REMARK    3  A    between atoms: S_18  and  N_21
REMARK                            x       y       z     vdW  Elec       q    Type
REMARK                         _______ _______ _______ _____ _____    ______ ____
ROOT
ATOM      1  C   UNL     1       7.712   7.558  18.169  0.00  0.00    +0.000 A 
ATOM      2  C   UNL     1       8.428   6.861  19.153  0.00  0.00    +0.000 A 
ATOM      3  C   UNL     1       8.142   5.520  19.411  0.00  0.00    +0.000 A 
ATOM      4  C   UNL     1       7.135   4.877  18.694  0.00  0.00    +0.000 A 
ATOM      5  C   UNL     1       6.421   5.574  17.710  0.00  0.00    +0.000 A 
ATOM      6  C   UNL     1       6.719   6.908  17.427  0.00  0.00    +0.000 A 
ENDROOT
BRANCH   1   8
ATOM      7  O   UNL     1       7.556   9.533  16.944  0.00  0.00    +0.000 OA
ATOM      8  C   UNL     1       8.068   8.980  17.908  0.00  0.00    +0.000 C 
ATOM      9  N   UNL     1       9.002   9.498  18.771  0.00  0.00    +0.000 N 
ATOM     10  C   UNL     1       9.488  10.785  18.761  0.00  0.00    +0.000 A 
ATOM     11  N   UNL     1      10.562  11.111  19.434  0.00  0.00    +0.000 NA
ATOM     12  C   UNL     1      10.850  12.453  19.224  0.00  0.00    +0.000 A 
ATOM     13  C   UNL     1      11.972  13.150  19.717  0.00  0.00    +0.000 A 
ATOM     14  C   UNL     1      12.132  14.507  19.409  0.00  0.00    +0.000 A 
ATOM     15  C   UNL     1      11.201  15.179  18.627  0.00  0.00    +0.000 A 
ATOM     16  C   UNL     1      10.079  14.508  18.134  0.00  0.00    +0.000 A 
ATOM     17  C   UNL     1       9.927  13.145  18.436  0.00  0.00    +0.000 A 
ATOM     18  S   UNL     1       8.696  12.053  17.945  0.00  0.00    +0.000 S 
ATOM     19  H   UNL     1       9.540   8.884  19.371  0.00  0.00    +0.000 HD
ENDBRANCH   1   8
BRANCH   5  20
ATOM     20  S   UNL     1       5.153   4.704  16.814  0.00  0.00    +0.000 S 
ATOM     21  O   UNL     1       4.280   5.721  16.266  0.00  0.00    +0.000 OA
ATOM     22  O   UNL     1       5.838   3.764  15.950  0.00  0.00    +0.000 OA
BRANCH  20  23
ATOM     23  N   UNL     1       4.293   3.828  17.937  0.00  0.00    +0.000 N 
ATOM     24  C   UNL     1       3.739   2.485  17.621  0.00  0.00    +0.000 C 
ATOM     25  C   UNL     1       3.313   1.982  19.003  0.00  0.00    +0.000 C 
ATOM     26  C   UNL     1       2.765   3.275  19.534  0.00  0.00    +0.000 A 
ATOM     27  C   UNL     1       1.655   3.479  20.329  0.00  0.00    +0.000 A 
ATOM     28  C   UNL     1       1.301   4.797  20.606  0.00  0.00    +0.000 A 
ATOM     29  C   UNL     1       2.112   5.868  20.176  0.00  0.00    +0.000 A 
ATOM     30  C   UNL     1       3.236   5.648  19.372  0.00  0.00    +0.000 A 
ATOM     31  C   UNL     1       3.487   4.349  18.989  0.00  0.00    +0.000 A 
ENDBRANCH  20  23
ENDBRANCH   5  20
TORSDOF 3
ENDMDL
MODEL 3
REMARK VINA RESULT:      -8.8      0.743      1.768
REMARK  Name = 
REMARK  3 active torsions:
REMARK  status: ('A' for Active; 'I' for Inactive)
REMARK    1  A    between atoms: C_2  and  C_13
REMARK    2  A    between atoms: C_17  and  S_18
REMARK    3  A    between atoms: S_18  and  N_21
REMARK                            x       y       z     vdW  Elec       q    Type
REMARK                         _______ _______ _______ _____ _____    ______ ____
ROOT
ATOM      1  C   UNL     1       0.627   8.934  21.095  0.00  0.00    +0.000 A 
ATOM      2  C   UNL     1       0.390   8.938  22.477  0.00  0.00    +0.000 A 
ATOM      3  C   UNL     1      -0.313   9.989  23.066  0.00  0.00    +0.000 A 
ATOM      4  C   UNL     1      -0.772  11.041  22.276  0.00  0.00    +0.000 A 
ATOM      5  C   UNL     1      -0.536  11.035  20.894  0.00  0.00    +0.000 A 
ATOM      6  C   UNL     1       0.143   9.975  20.294  0.00  0.00    +0.000 A 
ENDROOT
BRANCH   1   8
ATOM      7  O   UNL     1       1.362   6.723  21.126  0.00  0.00    +0.000 OA
ATOM      8  C   UNL     1       1.358   7.778  20.505  0.00  0.00    +0.000 C 
ATOM      9  N   UNL     1       2.010   8.060  19.330  0.00  0.00    +0.000 N 
ATOM     10  C   UNL     1       2.739   7.169  18.575  0.00  0.00    +0.000 A 
ATOM     11  N   UNL     1       3.544   7.580  17.629  0.00  0.00    +0.000 NA
ATOM     12  C   UNL     1       4.178   6.487  17.053  0.00  0.00    +0.000 A 
ATOM     13  C   UNL     1       5.172   6.533  16.055  0.00  0.00    +0.000 A 
ATOM     14  C   UNL     1       5.728   5.339  15.578  0.00  0.00    +0.000 A 
ATOM     15  C   UNL     1       5.313   4.109  16.071  0.00  0.00    +0.000 A 
ATOM     16  C   UNL     1       4.323   4.041  17.056  0.00  0.00    +0.000 A 
ATOM     17  C   UNL     1       3.776   5.241  17.538  0.00  0.00    +0.000 A 
ATOM     18  S   UNL     1       2.593   5.482  18.761  0.00  0.00    +0.000 S 
ATOM     19  H   UNL     1       2.147   9.019  19.039  0.00  0.00    +0.000 HD
ENDBRANCH   1   8
BRANCH   5  20
ATOM     20  S   UNL     1      -1.153  12.398  19.929  0.00  0.00    +0.000 S 
ATOM     21  O   UNL     1      -1.825  13.278  20.863  0.00  0.00    +0.000 OA
ATOM     22  O   UNL     1      -0.040  12.867  19.130  0.00  0.00    +0.000 OA
BRANCH  20  23
ATOM     23  N   UNL     1      -2.294  11.770  18.893  0.00  0.00    +0.000 N 
ATOM     24  C   UNL     1      -1.990  11.517  17.460  0.00  0.00    +0.000 C 
ATOM     25  C   UNL     1      -3.204  10.695  17.017  0.00  0.00    +0.000 C 
ATOM     26  C   UNL     1      -4.255  11.451  17.779  0.00  0.00    +0.000 A 
ATOM     27  C   UNL     1      -5.539  11.772  17.388  0.00  0.00    +0.000 A 
ATOM     28  C   UNL     1      -6.288  12.571  18.249  0.00  0.00    +0.000 A 
ATOM     29  C   UNL     1      -5.783  12.943  19.511  0.00  0.00    +0.000 A 
ATOM     30  C   UNL     1      -4.479  12.611  19.897  0.00  0.00    +0.000 A 
ATOM     31  C   UNL     1      -3.705  11.943  18.974  0.00  0.00    +0.000 A 
ENDBRANCH  20  23
ENDBRANCH   5  20
TORSDOF 3
ENDMDL
MODEL 4
REMARK VINA RESULT:      -8.7      1.637      2.191
REMARK  Name = 
REMARK  3 active torsions:
REMARK  status: ('A' for Active; 'I' for Inactive)
REMARK    1  A    between atoms: C_2  and  C_13
REMARK    2  A    between atoms: C_17  and  S_18
REMARK    3  A    between atoms: S_18  and  N_21
REMARK                            x       y       z     vdW  Elec       q    Type
REMARK                         _______ _______ _______ _____ _____    ______ ____
ROOT
ATOM      1  C   UNL     1       0.581   9.379  21.152  0.00  0.00    +0.000 A 
ATOM      2  C   UNL     1       0.346   9.031  22.491  0.00  0.00    +0.000 A 
ATOM      3  C   UNL     1      -0.349   9.901  23.331  0.00  0.00    +0.000 A 
ATOM      4  C   UNL     1      -0.801  11.124  22.839  0.00  0.00    +0.000 A 
ATOM      5  C   UNL     1      -0.567  11.470  21.501  0.00  0.00    +0.000 A 
ATOM      6  C   UNL     1       0.104  10.594  20.647  0.00  0.00    +0.000 A 
ENDROOT
BRANCH   1   8
ATOM      7  O   UNL     1       1.752   8.812  19.220  0.00  0.00    +0.000 OA
ATOM      8  C   UNL     1       1.303   8.408  20.285  0.00  0.00    +0.000 C 
ATOM      9  N   UNL     1       1.329   7.124  20.770  0.00  0.00    +0.000 N 
ATOM     10  C   UNL     1       1.943   6.046  20.175  0.00  0.00    +0.000 A 
ATOM     11  N   UNL     1       1.688   4.821  20.560  0.00  0.00    +0.000 NA
ATOM     12  C   UNL     1       2.410   3.930  19.777  0.00  0.00    +0.000 A 
ATOM     13  C   UNL     1       2.340   2.524  19.838  0.00  0.00    +0.000 A 
ATOM     14  C   UNL     1       3.127   1.755  18.971  0.00  0.00    +0.000 A 
ATOM     15  C   UNL     1       3.978   2.356  18.052  0.00  0.00    +0.000 A 
ATOM     16  C   UNL     1       4.067   3.750  17.980  0.00  0.00    +0.000 A 
ATOM     17  C   UNL     1       3.269   4.517  18.845  0.00  0.00    +0.000 A 
ATOM     18  S   UNL     1       3.125   6.224  18.962  0.00  0.00    +0.000 S 
ATOM     19  H   UNL     1       0.717   6.852  21.530  0.00  0.00    +0.000 HD
ENDBRANCH   1   8
BRANCH   5  20
ATOM     20  S   UNL     1      -1.175  13.038  20.918  0.00  0.00    +0.000 S 
ATOM     21  O   UNL     1      -1.507  13.804  22.102  0.00  0.00    +0.000 OA
ATOM     22  O   UNL     1      -0.199  13.524  19.965  0.00  0.00    +0.000 OA
BRANCH  20  23
ATOM     23  N   UNL     1      -2.583  12.725  20.089  0.00  0.00    +0.000 N 
ATOM     24  C   UNL     1      -3.883  12.562  20.792  0.00  0.00    +0.000 C 
ATOM     25  C   UNL     1      -4.880  12.590  19.630  0.00  0.00    +0.000 C 
ATOM     26  C   UNL     1      -4.077  11.785  18.649  0.00  0.00    +0.000 A 
ATOM     27  C   UNL     1      -4.518  10.844  17.741  0.00  0.00    +0.000 A 
ATOM     28  C   UNL     1      -3.551  10.163  17.006  0.00  0.00    +0.000 A 
ATOM     29  C   UNL     1      -2.188  10.504  17.116  0.00  0.00    +0.000 A 
ATOM     30  C   UNL     1      -1.753  11.462  18.040  0.00  0.00    +0.000 A 
ATOM     31  C   UNL     1      -2.708  12.020  18.858  0.00  0.00    +0.000 A 
ENDBRANCH  20  23
ENDBRANCH   5  20
TORSDOF 3
ENDMDL
MODEL 5
REMARK VINA RESULT:      -8.6      2.464      3.308
REMARK  Name = 
REMARK  3 active torsions:
REMARK  status: ('A' for Active; 'I' for Inactive)
REMARK    1  A    between atoms: C_2  and  C_13
REMARK    2  A    between atoms: C_17  and  S_18
REMARK    3  A    between atoms: S_18  and  N_21
REMARK                            x       y       z     vdW  Elec       q    Type
REMARK                         _______ _______ _______ _____ _____    ______ ____
ROOT
ATOM      1  C   UNL     1       0.702   8.874  20.962  0.00  0.00    +0.000 A 
ATOM      2  C   UNL     1       0.562   8.957  22.355  0.00  0.00    +0.000 A 
ATOM      3  C   UNL     1      -0.148  10.013  22.927  0.00  0.00    +0.000 A 
ATOM      4  C   UNL     1      -0.709  10.992  22.110  0.00  0.00    +0.000 A 
ATOM      5  C   UNL     1      -0.570  10.906  20.717  0.00  0.00    +0.000 A 
ATOM      6  C   UNL     1       0.115   9.839  20.136  0.00  0.00    +0.000 A 
ENDROOT
BRANCH   1   8
ATOM      7  O   UNL     1       1.454   6.670  21.031  0.00  0.00    +0.000 OA
ATOM      8  C   UNL     1       1.445   7.715  20.394  0.00  0.00    +0.000 C 
ATOM      9  N   UNL     1       2.099   7.983  19.216  0.00  0.00    +0.000 N 
ATOM     10  C   UNL     1       2.837   7.086  18.479  0.00  0.00    +0.000 A 
ATOM     11  N   UNL     1       3.643   7.489  17.528  0.00  0.00    +0.000 NA
ATOM     12  C   UNL     1       4.286   6.392  16.972  0.00  0.00    +0.000 A 
ATOM     13  C   UNL     1       5.284   6.430  15.978  0.00  0.00    +0.000 A 
ATOM     14  C   UNL     1       5.851   5.233  15.522  0.00  0.00    +0.000 A 
ATOM     15  C   UNL     1       5.444   4.007  16.033  0.00  0.00    +0.000 A 
ATOM     16  C   UNL     1       4.451   3.947  17.015  0.00  0.00    +0.000 A 
ATOM     17  C   UNL     1       3.893   5.150  17.476  0.00  0.00    +0.000 A 
ATOM     18  S   UNL     1       2.704   5.401  18.690  0.00  0.00    +0.000 S 
ATOM     19  H   UNL     1       2.229   8.939  18.910  0.00  0.00    +0.000 HD
ENDBRANCH   1   8
BRANCH   5  20
ATOM     20  S   UNL     1      -1.317  12.176  19.717  0.00  0.00    +0.000 S 
ATOM     21  O   UNL     1      -1.230  11.710  18.349  0.00  0.00    +0.000 OA
ATOM     22  O   UNL     1      -2.599  12.471  20.325  0.00  0.00    +0.000 OA
BRANCH  20  23
ATOM     23  N   UNL     1      -0.360  13.528  19.870  0.00  0.00    +0.000 N 
ATOM     24  C   UNL     1      -0.941  14.895  19.907  0.00  0.00    +0.000 C 
ATOM     25  C   UNL     1       0.260  15.741  20.342  0.00  0.00    +0.000 C 
ATOM     26  C   UNL     1       1.312  15.039  19.531  0.00  0.00    +0.000 A 
ATOM     27  C   UNL     1       2.393  15.581  18.867  0.00  0.00    +0.000 A 
ATOM     28  C   UNL     1       3.171  14.718  18.100  0.00  0.00    +0.000 A 
ATOM     29  C   UNL     1       2.919  13.331  18.095  0.00  0.00    +0.000 A 
ATOM     30  C   UNL     1       1.819  12.792  18.774  0.00  0.00    +0.000 A 
ATOM     31  C   UNL     1       0.979  13.680  19.408  0.00  0.00    +0.000 A 
ENDBRANCH  20  23
ENDBRANCH   5  20
TORSDOF 3
ENDMDL
MODEL 6
REMARK VINA RESULT:      -8.5      2.716      9.566
REMARK  Name = 
REMARK  3 active torsions:
REMARK  status: ('A' for Active; 'I' for Inactive)
REMARK    1  A    between atoms: C_2  and  C_13
REMARK    2  A    between atoms: C_17  and  S_18
REMARK    3  A    between atoms: S_18  and  N_21
REMARK                            x       y       z     vdW  Elec       q    Type
REMARK                         _______ _______ _______ _____ _____    ______ ____
ROOT
ATOM      1  C   UNL     1       1.574   8.294  19.740  0.00  0.00    +0.000 A 
ATOM      2  C   UNL     1       1.912   8.965  18.556  0.00  0.00    +0.000 A 
ATOM      3  C   UNL     1       2.700   8.334  17.592  0.00  0.00    +0.000 A 
ATOM      4  C   UNL     1       3.158   7.037  17.815  0.00  0.00    +0.000 A 
ATOM      5  C   UNL     1       2.818   6.367  18.999  0.00  0.00    +0.000 A 
ATOM      6  C   UNL     1       2.009   6.982  19.955  0.00  0.00    +0.000 A 
ENDROOT
BRANCH   1   8
ATOM      7  O   UNL     1       0.619   8.520  21.853  0.00  0.00    +0.000 OA
ATOM      8  C   UNL     1       0.710   8.996  20.729  0.00  0.00    +0.000 C 
ATOM      9  N   UNL     1       0.052  10.093  20.229  0.00  0.00    +0.000 N 
ATOM     10  C   UNL     1      -0.789  10.924  20.934  0.00  0.00    +0.000 A 
ATOM     11  N   UNL     1      -1.577  11.770  20.322  0.00  0.00    +0.000 NA
ATOM     12  C   UNL     1      -2.338  12.455  21.260  0.00  0.00    +0.000 A 
ATOM     13  C   UNL     1      -3.354  13.391  20.983  0.00  0.00    +0.000 A 
ATOM     14  C   UNL     1      -4.045  13.995  22.041  0.00  0.00    +0.000 A 
ATOM     15  C   UNL     1      -3.742  13.688  23.362  0.00  0.00    +0.000 A 
ATOM     16  C   UNL     1      -2.733  12.767  23.658  0.00  0.00    +0.000 A 
ATOM     17  C   UNL     1      -2.050  12.157  22.594  0.00  0.00    +0.000 A 
ATOM     18  S   UNL     1      -0.810  10.969  22.636  0.00  0.00    +0.000 S 
ATOM     19  H   UNL     1       0.004  10.249  19.230  0.00  0.00    +0.000 HD
ENDBRANCH   1   8
BRANCH   5  20
ATOM     20  S   UNL     1       3.420   4.708  19.229  0.00  0.00    +0.000 S 
ATOM     21  O   UNL     1       3.429   4.481  20.660  0.00  0.00    +0.000 OA
ATOM     22  O   UNL     1       2.639   3.866  18.346  0.00  0.00    +0.000 OA
BRANCH  20  23
ATOM     23  N   UNL     1       4.992   4.691  18.688  0.00  0.00    +0.000 N 
ATOM     24  C   UNL     1       6.038   5.550  19.302  0.00  0.00    +0.000 C 
ATOM     25  C   UNL     1       7.321   4.981  18.689  0.00  0.00    +0.000 C 
ATOM     26  C   UNL     1       6.799   4.744  17.301  0.00  0.00    +0.000 A 
ATOM     27  C   UNL     1       7.446   4.922  16.095  0.00  0.00    +0.000 A 
ATOM     28  C   UNL     1       6.702   4.722  14.934  0.00  0.00    +0.000 A 
ATOM     29  C   UNL     1       5.373   4.255  15.000  0.00  0.00    +0.000 A 
ATOM     30  C   UNL     1       4.728   4.078  16.230  0.00  0.00    +0.000 A 
ATOM     31  C   UNL     1       5.434   4.418  17.362  0.00  0.00    +0.000 A 
ENDBRANCH  20  23
ENDBRANCH   5  20
TORSDOF 3
ENDMDL
MODEL 7
REMARK VINA RESULT:      -8.5      2.234      3.399
REMARK  Name = 
REMARK  3 active torsions:
REMARK  status: ('A' for Active; 'I' for Inactive)
REMARK    1  A    between atoms: C_2  and  C_13
REMARK    2  A    between atoms: C_17  and  S_18
REMARK    3  A    between atoms: S_18  and  N_21
REMARK                            x       y       z     vdW  Elec       q    Type
REMARK                         _______ _______ _______ _____ _____    ______ ____
ROOT
ATOM      1  C   UNL     1       0.617   9.658  20.942  0.00  0.00    +0.000 A 
ATOM      2  C   UNL     1       0.392   8.884  22.090  0.00  0.00    +0.000 A 
ATOM      3  C   UNL     1      -0.328   9.412  23.163  0.00  0.00    +0.000 A 
ATOM      4  C   UNL     1      -0.814  10.716  23.094  0.00  0.00    +0.000 A 
ATOM      5  C   UNL     1      -0.591  11.488  21.945  0.00  0.00    +0.000 A 
ATOM      6  C   UNL     1       0.105  10.958  20.858  0.00  0.00    +0.000 A 
ENDROOT
BRANCH   1   8
ATOM      7  O   UNL     1       1.437   9.672  18.762  0.00  0.00    +0.000 OA
ATOM      8  C   UNL     1       1.366   9.045  19.811  0.00  0.00    +0.000 C 
ATOM      9  N   UNL     1       1.853   7.787  20.069  0.00  0.00    +0.000 N 
ATOM     10  C   UNL     1       2.593   7.012  19.205  0.00  0.00    +0.000 A 
ATOM     11  N   UNL     1       2.777   5.736  19.426  0.00  0.00    +0.000 NA
ATOM     12  C   UNL     1       3.524   5.190  18.391  0.00  0.00    +0.000 A 
ATOM     13  C   UNL     1       3.860   3.830  18.235  0.00  0.00    +0.000 A 
ATOM     14  C   UNL     1       4.614   3.428  17.125  0.00  0.00    +0.000 A 
ATOM     15  C   UNL     1       5.039   4.349  16.176  0.00  0.00    +0.000 A 
ATOM     16  C   UNL     1       4.722   5.703  16.315  0.00  0.00    +0.000 A 
ATOM     17  C   UNL     1       3.957   6.100  17.424  0.00  0.00    +0.000 A 
ATOM     18  S   UNL     1       3.378   7.663  17.841  0.00  0.00    +0.000 S 
ATOM     19  H   UNL     1       1.525   7.267  20.874  0.00  0.00    +0.000 HD
ENDBRANCH   1   8
BRANCH   5  20
ATOM     20  S   UNL     1      -1.243  13.143  21.903  0.00  0.00    +0.000 S 
ATOM     21  O   UNL     1      -1.036  13.689  23.228  0.00  0.00    +0.000 OA
ATOM     22  O   UNL     1      -0.666  13.778  20.736  0.00  0.00    +0.000 OA
BRANCH  20  23
ATOM     23  N   UNL     1      -2.881  13.004  21.647  0.00  0.00    +0.000 N 
ATOM     24  C   UNL     1      -3.581  13.810  20.613  0.00  0.00    +0.000 C 
ATOM     25  C   UNL     1      -4.955  13.136  20.558  0.00  0.00    +0.000 C 
ATOM     26  C   UNL     1      -5.124  12.892  22.030  0.00  0.00    +0.000 A 
ATOM     27  C   UNL     1      -6.270  12.987  22.794  0.00  0.00    +0.000 A 
ATOM     28  C   UNL     1      -6.140  12.802  24.168  0.00  0.00    +0.000 A 
ATOM     29  C   UNL     1      -4.903  12.428  24.732  0.00  0.00    +0.000 A 
ATOM     30  C   UNL     1      -3.748  12.333  23.947  0.00  0.00    +0.000 A 
ATOM     31  C   UNL     1      -3.868  12.660  22.615  0.00  0.00    +0.000 A 
ENDBRANCH  20  23
ENDBRANCH   5  20
TORSDOF 3
ENDMDL
MODEL 8
REMARK VINA RESULT:      -8.5      2.762      3.777
REMARK  Name = 
REMARK  3 active torsions:
REMARK  status: ('A' for Active; 'I' for Inactive)
REMARK    1  A    between atoms: C_2  and  C_13
REMARK    2  A    between atoms: C_17  and  S_18
REMARK    3  A    between atoms: S_18  and  N_21
REMARK                            x       y       z     vdW  Elec       q    Type
REMARK                         _______ _______ _______ _____ _____    ______ ____
ROOT
ATOM      1  C   UNL     1       0.783   8.955  21.003  0.00  0.00    +0.000 A 
ATOM      2  C   UNL     1       0.452   8.919  22.365  0.00  0.00    +0.000 A 
ATOM      3  C   UNL     1      -0.229   9.986  22.951  0.00  0.00    +0.000 A 
ATOM      4  C   UNL     1      -0.571  11.095  22.180  0.00  0.00    +0.000 A 
ATOM      5  C   UNL     1      -0.241  11.130  20.818  0.00  0.00    +0.000 A 
ATOM      6  C   UNL     1       0.416  10.055  20.219  0.00  0.00    +0.000 A 
ENDROOT
BRANCH   1   8
ATOM      7  O   UNL     1       1.471   6.730  21.038  0.00  0.00    +0.000 OA
ATOM      8  C   UNL     1       1.485   7.783  20.413  0.00  0.00    +0.000 C 
ATOM      9  N   UNL     1       2.134   8.045  19.231  0.00  0.00    +0.000 N 
ATOM     10  C   UNL     1       2.839   7.136  18.476  0.00  0.00    +0.000 A 
ATOM     11  N   UNL     1       3.645   7.527  17.521  0.00  0.00    +0.000 NA
ATOM     12  C   UNL     1       4.251   6.418  16.945  0.00  0.00    +0.000 A 
ATOM     13  C   UNL     1       5.239   6.439  15.941  0.00  0.00    +0.000 A 
ATOM     14  C   UNL     1       5.766   5.232  15.465  0.00  0.00    +0.000 A 
ATOM     15  C   UNL     1       5.328   4.012  15.966  0.00  0.00    +0.000 A 
ATOM     16  C   UNL     1       4.345   3.969  16.958  0.00  0.00    +0.000 A 
ATOM     17  C   UNL     1       3.827   5.183  17.440  0.00  0.00    +0.000 A 
ATOM     18  S   UNL     1       2.659   5.454  18.670  0.00  0.00    +0.000 S 
ATOM     19  H   UNL     1       2.289   9.001  18.935  0.00  0.00    +0.000 HD
ENDBRANCH   1   8
BRANCH   5  20
ATOM     20  S   UNL     1      -0.712  12.564  19.875  0.00  0.00    +0.000 S 
ATOM     21  O   UNL     1      -1.199  12.067  18.605  0.00  0.00    +0.000 OA
ATOM     22  O   UNL     1      -1.560  13.359  20.740  0.00  0.00    +0.000 OA
BRANCH  20  23
ATOM     23  N   UNL     1       0.682  13.429  19.596  0.00  0.00    +0.000 N 
ATOM     24  C   UNL     1       1.884  13.272  20.456  0.00  0.00    +0.000 C 
ATOM     25  C   UNL     1       2.952  14.018  19.652  0.00  0.00    +0.000 C 
ATOM     26  C   UNL     1       2.100  15.165  19.191  0.00  0.00    +0.000 A 
ATOM     27  C   UNL     1       2.445  16.495  19.056  0.00  0.00    +0.000 A 
ATOM     28  C   UNL     1       1.434  17.385  18.699  0.00  0.00    +0.000 A 
ATOM     29  C   UNL     1       0.141  16.919  18.387  0.00  0.00    +0.000 A 
ATOM     30  C   UNL     1      -0.197  15.568  18.526  0.00  0.00    +0.000 A 
ATOM     31  C   UNL     1       0.777  14.728  19.018  0.00  0.00    +0.000 A 
ENDBRANCH  20  23
ENDBRANCH   5  20
TORSDOF 3
ENDMDL
MODEL 9
REMARK VINA RESULT:      -8.5      1.452      1.947
REMARK  Name = 
REMARK  3 active torsions:
REMARK  status: ('A' for Active; 'I' for Inactive)
REMARK    1  A    between atoms: C_2  and  C_13
REMARK    2  A    between atoms: C_17  and  S_18
REMARK    3  A    between atoms: S_18  and  N_21
REMARK                            x       y       z     vdW  Elec       q    Type
REMARK                         _______ _______ _______ _____ _____    ______ ____
ROOT
ATOM      1  C   UNL     1       0.565   9.704  20.938  0.00  0.00    +0.000 A 
ATOM      2  C   UNL     1       0.305   8.940  22.086  0.00  0.00    +0.000 A 
ATOM      3  C   UNL     1      -0.430   9.484  23.139  0.00  0.00    +0.000 A 
ATOM      4  C   UNL     1      -0.897  10.793  23.053  0.00  0.00    +0.000 A 
ATOM      5  C   UNL     1      -0.638  11.556  21.906  0.00  0.00    +0.000 A 
ATOM      6  C   UNL     1       0.073  11.010  20.836  0.00  0.00    +0.000 A 
ENDROOT
BRANCH   1   8
ATOM      7  O   UNL     1       1.449   9.703  18.783  0.00  0.00    +0.000 OA
ATOM      8  C   UNL     1       1.329   9.074  19.827  0.00  0.00    +0.000 C 
ATOM      9  N   UNL     1       1.772   7.801  20.093  0.00  0.00    +0.000 N 
ATOM     10  C   UNL     1       2.514   7.009  19.247  0.00  0.00    +0.000 A 
ATOM     11  N   UNL     1       2.655   5.727  19.467  0.00  0.00    +0.000 NA
ATOM     12  C   UNL     1       3.416   5.164  18.451  0.00  0.00    +0.000 A 
ATOM     13  C   UNL     1       3.717   3.796  18.298  0.00  0.00    +0.000 A 
ATOM     14  C   UNL     1       4.492   3.376  17.209  0.00  0.00    +0.000 A 
ATOM     15  C   UNL     1       4.971   4.288  16.277  0.00  0.00    +0.000 A 
ATOM     16  C   UNL     1       4.690   5.651  16.415  0.00  0.00    +0.000 A 
ATOM     17  C   UNL     1       3.904   6.065  17.502  0.00  0.00    +0.000 A 
ATOM     18  S   UNL     1       3.358   7.642  17.910  0.00  0.00    +0.000 S 
ATOM     19  H   UNL     1       1.405   7.288  20.884  0.00  0.00    +0.000 HD
ENDBRANCH   1   8
BRANCH   5  20
ATOM     20  S   UNL     1      -1.266  13.220  21.841  0.00  0.00    +0.000 S 
ATOM     21  O   UNL     1      -1.325  13.679  23.213  0.00  0.00    +0.000 OA
ATOM     22  O   UNL     1      -0.468  13.918  20.854  0.00  0.00    +0.000 OA
BRANCH  20  23
ATOM     23  N   UNL     1      -2.821  13.120  21.257  0.00  0.00    +0.000 N 
ATOM     24  C   UNL     1      -3.981  12.901  22.161  0.00  0.00    +0.000 C 
ATOM     25  C   UNL     1      -5.166  13.174  21.230  0.00  0.00    +0.000 C 
ATOM     26  C   UNL     1      -4.620  12.510  19.999  0.00  0.00    +0.000 A 
ATOM     27  C   UNL     1      -5.290  11.759  19.055  0.00  0.00    +0.000 A 
ATOM     28  C   UNL     1      -4.528  11.168  18.050  0.00  0.00    +0.000 A 
ATOM     29  C   UNL     1      -3.145  11.420  17.950  0.00  0.00    +0.000 A 
ATOM     30  C   UNL     1      -2.476  12.185  18.913  0.00  0.00    +0.000 A 
ATOM     31  C   UNL     1      -3.222  12.641  19.977  0.00  0.00    +0.000 A 
ENDBRANCH  20  23
ENDBRANCH   5  20
TORSDOF 3
ENDMDL
