MODEL 1
REMARK VINA RESULT:      -8.8      0.000      0.000
REMARK  Name = 
REMARK  7 active torsions:
REMARK  status: ('A' for Active; 'I' for Inactive)
REMARK    1  A    between atoms: C_1  and  C_2
REMARK    2  A    between atoms: C_4  and  C_5
REMARK    3  A    between atoms: C_7  and  C_8
REMARK    4  A    between atoms: N_10  and  C_11
REMARK    5  A    between atoms: N_10  and  C_23
REMARK    6  A    between atoms: C_11  and  C_12
REMARK    7  A    between atoms: C_23  and  C_24
REMARK                            x       y       z     vdW  Elec       q    Type
REMARK                         _______ _______ _______ _____ _____    ______ ____
ROOT
ATOM      1  C   UNL     1       3.490   4.352  17.221  0.00  0.00    +0.000 C 
ATOM      2  O   UNL     1       3.001   3.461  16.515  0.00  0.00    +0.000 OA
ATOM      3  N   UNL     1       2.797   4.825  18.350  0.00  0.00    +0.000 N 
ENDROOT
BRANCH   1  10
ATOM      4  C   UNL     1       7.036   4.602  13.673  0.00  0.00    +0.000 C 
ATOM      5  C   UNL     1       6.576   4.915  15.068  0.00  0.00    +0.000 A 
ATOM      6  C   UNL     1       7.384   5.684  15.912  0.00  0.00    +0.000 A 
ATOM      7  C   UNL     1       6.916   6.078  17.166  0.00  0.00    +0.000 A 
ATOM      8  C   UNL     1       7.764   6.894  18.096  0.00  0.00    +0.000 C 
ATOM      9  C   UNL     1       5.630   5.694  17.573  0.00  0.00    +0.000 A 
ATOM     10  C   UNL     1       4.855   4.825  16.816  0.00  0.00    +0.000 A 
ATOM     11  C   UNL     1       5.338   4.448  15.547  0.00  0.00    +0.000 A 
ENDBRANCH   1  10
BRANCH   3  12
ATOM     12  C   UNL     1       3.240   5.796  19.372  0.00  0.00    +0.000 C 
BRANCH  12  13
ATOM     13  C   UNL     1       2.406   7.069  19.457  0.00  0.00    +0.000 A 
ATOM     14  N   UNL     1       1.713   7.295  20.527  0.00  0.00    +0.000 NA
ATOM     15  C   UNL     1       1.065   8.530  20.644  0.00  0.00    +0.000 A 
ATOM     16  C   UNL     1       0.445   8.832  21.856  0.00  0.00    +0.000 A 
ATOM     17  C   UNL     1       0.022  10.135  22.122  0.00  0.00    +0.000 A 
ATOM     18  C   UNL     1       0.187  11.132  21.159  0.00  0.00    +0.000 A 
ATOM     19  C   UNL     1       0.715  10.817  19.906  0.00  0.00    +0.000 A 
ATOM     20  C   UNL     1       1.148   9.512  19.657  0.00  0.00    +0.000 A 
ATOM     21  C   UNL     1       1.793   9.139  18.381  0.00  0.00    +0.000 A 
ATOM     22  O   UNL     1       1.783   9.874  17.404  0.00  0.00    +0.000 OA
ATOM     23  N   UNL     1       2.403   7.906  18.375  0.00  0.00    +0.000 N 
ATOM     24  H   UNL     1       2.877   7.655  17.517  0.00  0.00    +0.000 HD
ENDBRANCH  12  13
ENDBRANCH   3  12
BRANCH   3  25
ATOM     25  C   UNL     1       1.503   4.160  18.657  0.00  0.00    +0.000 C 
BRANCH  25  26
ATOM     26  C   UNL     1       1.520   3.104  19.784  0.00  0.00    +0.000 C 
ATOM     27  C   UNL     1       1.141   3.556  21.186  0.00  0.00    +0.000 C 
ATOM     28  C   UNL     1       1.769   2.471  22.032  0.00  0.00    +0.000 C 
ATOM     29  C   UNL     1       3.061   2.210  21.289  0.00  0.00    +0.000 C 
ATOM     30  O   UNL     1       2.801   2.451  19.898  0.00  0.00    +0.000 OA
ENDBRANCH  25  26
ENDBRANCH   3  25
TORSDOF 5
ENDMDL
MODEL 2
REMARK VINA RESULT:      -8.6      0.191      1.603
REMARK  Name = 
REMARK  7 active torsions:
REMARK  status: ('A' for Active; 'I' for Inactive)
REMARK    1  A    between atoms: C_1  and  C_2
REMARK    2  A    between atoms: C_4  and  C_5
REMARK    3  A    between atoms: C_7  and  C_8
REMARK    4  A    between atoms: N_10  and  C_11
REMARK    5  A    between atoms: N_10  and  C_23
REMARK    6  A    between atoms: C_11  and  C_12
REMARK    7  A    between atoms: C_23  and  C_24
REMARK                            x       y       z     vdW  Elec       q    Type
REMARK                         _______ _______ _______ _____ _____    ______ ____
ROOT
ATOM      1  C   UNL     1       3.356   4.219  17.154  0.00  0.00    +0.000 C 
ATOM      2  O   UNL     1       2.830   3.337  16.465  0.00  0.00    +0.000 OA
ATOM      3  N   UNL     1       2.708   4.703  18.305  0.00  0.00    +0.000 N 
ENDROOT
BRANCH   1  10
ATOM      4  C   UNL     1       7.733   6.382  18.335  0.00  0.00    +0.000 C 
ATOM      5  C   UNL     1       6.839   5.745  17.310  0.00  0.00    +0.000 A 
ATOM      6  C   UNL     1       7.311   5.525  16.013  0.00  0.00    +0.000 A 
ATOM      7  C   UNL     1       6.530   4.830  15.088  0.00  0.00    +0.000 A 
ATOM      8  C   UNL     1       7.006   4.589  13.686  0.00  0.00    +0.000 C 
ATOM      9  C   UNL     1       5.268   4.356  15.471  0.00  0.00    +0.000 A 
ATOM     10  C   UNL     1       4.716   4.667  16.707  0.00  0.00    +0.000 A 
ATOM     11  C   UNL     1       5.523   5.359  17.632  0.00  0.00    +0.000 A 
ENDBRANCH   1  10
BRANCH   3  12
ATOM     12  C   UNL     1       3.200   5.666  19.313  0.00  0.00    +0.000 C 
BRANCH  12  13
ATOM     13  C   UNL     1       2.401   6.960  19.413  0.00  0.00    +0.000 A 
ATOM     14  N   UNL     1       1.741   7.207  20.499  0.00  0.00    +0.000 NA
ATOM     15  C   UNL     1       1.128   8.459  20.627  0.00  0.00    +0.000 A 
ATOM     16  C   UNL     1       0.546   8.781  21.852  0.00  0.00    +0.000 A 
ATOM     17  C   UNL     1       0.164  10.096  22.123  0.00  0.00    +0.000 A 
ATOM     18  C   UNL     1       0.331  11.085  21.152  0.00  0.00    +0.000 A 
ATOM     19  C   UNL     1       0.819  10.752  19.888  0.00  0.00    +0.000 A 
ATOM     20  C   UNL     1       1.211   9.435  19.633  0.00  0.00    +0.000 A 
ATOM     21  C   UNL     1       1.815   9.041  18.344  0.00  0.00    +0.000 A 
ATOM     22  O   UNL     1       1.800   9.773  17.364  0.00  0.00    +0.000 OA
ATOM     23  N   UNL     1       2.394   7.793  18.328  0.00  0.00    +0.000 N 
ATOM     24  H   UNL     1       2.839   7.527  17.459  0.00  0.00    +0.000 HD
ENDBRANCH  12  13
ENDBRANCH   3  12
BRANCH   3  25
ATOM     25  C   UNL     1       1.413   4.061  18.653  0.00  0.00    +0.000 C 
BRANCH  25  26
ATOM     26  C   UNL     1       1.438   3.037  19.808  0.00  0.00    +0.000 C 
ATOM     27  C   UNL     1       1.090   3.532  21.204  0.00  0.00    +0.000 C 
ATOM     28  C   UNL     1       1.720   2.464  22.069  0.00  0.00    +0.000 C 
ATOM     29  C   UNL     1       2.996   2.167  21.310  0.00  0.00    +0.000 C 
ATOM     30  O   UNL     1       2.714   2.372  19.918  0.00  0.00    +0.000 OA
ENDBRANCH  25  26
ENDBRANCH   3  25
TORSDOF 5
ENDMDL
MODEL 3
REMARK VINA RESULT:      -8.5      1.225      1.817
REMARK  Name = 
REMARK  7 active torsions:
REMARK  status: ('A' for Active; 'I' for Inactive)
REMARK    1  A    between atoms: C_1  and  C_2
REMARK    2  A    between atoms: C_4  and  C_5
REMARK    3  A    between atoms: C_7  and  C_8
REMARK    4  A    between atoms: N_10  and  C_11
REMARK    5  A    between atoms: N_10  and  C_23
REMARK    6  A    between atoms: C_11  and  C_12
REMARK    7  A    between atoms: C_23  and  C_24
REMARK                            x       y       z     vdW  Elec       q    Type
REMARK                         _______ _______ _______ _____ _____    ______ ____
ROOT
ATOM      1  C   UNL     1       3.390   4.506  17.256  0.00  0.00    +0.000 C 
ATOM      2  O   UNL     1       2.830   3.629  16.587  0.00  0.00    +0.000 OA
ATOM      3  N   UNL     1       2.781   5.010  18.420  0.00  0.00    +0.000 N 
ENDROOT
BRANCH   1  10
ATOM      4  C   UNL     1       6.881   4.291  13.651  0.00  0.00    +0.000 C 
ATOM      5  C   UNL     1       6.440   4.789  14.998  0.00  0.00    +0.000 A 
ATOM      6  C   UNL     1       7.253   5.671  15.716  0.00  0.00    +0.000 A 
ATOM      7  C   UNL     1       6.800   6.230  16.912  0.00  0.00    +0.000 A 
ATOM      8  C   UNL     1       7.655   7.170  17.709  0.00  0.00    +0.000 C 
ATOM      9  C   UNL     1       5.524   5.897  17.388  0.00  0.00    +0.000 A 
ATOM     10  C   UNL     1       4.745   4.928  16.769  0.00  0.00    +0.000 A 
ATOM     11  C   UNL     1       5.212   4.384  15.556  0.00  0.00    +0.000 A 
ENDBRANCH   1  10
BRANCH   3  12
ATOM     12  C   UNL     1       3.317   5.970  19.407  0.00  0.00    +0.000 C 
BRANCH  12  13
ATOM     13  C   UNL     1       2.442   7.192  19.659  0.00  0.00    +0.000 A 
ATOM     14  N   UNL     1       2.097   7.934  18.656  0.00  0.00    +0.000 NA
ATOM     15  C   UNL     1       1.183   8.968  18.885  0.00  0.00    +0.000 A 
ATOM     16  C   UNL     1       0.697   9.670  17.783  0.00  0.00    +0.000 A 
ATOM     17  C   UNL     1      -0.403  10.518  17.920  0.00  0.00    +0.000 A 
ATOM     18  C   UNL     1      -0.996  10.694  19.171  0.00  0.00    +0.000 A 
ATOM     19  C   UNL     1      -0.454  10.075  20.298  0.00  0.00    +0.000 A 
ATOM     20  C   UNL     1       0.638   9.217  20.146  0.00  0.00    +0.000 A 
ATOM     21  C   UNL     1       1.200   8.466  21.287  0.00  0.00    +0.000 A 
ATOM     22  O   UNL     1       0.899   8.716  22.446  0.00  0.00    +0.000 OA
ATOM     23  N   UNL     1       2.086   7.469  20.951  0.00  0.00    +0.000 N 
ATOM     24  H   UNL     1       2.451   6.927  21.723  0.00  0.00    +0.000 HD
ENDBRANCH  12  13
ENDBRANCH   3  12
BRANCH   3  25
ATOM     25  C   UNL     1       1.486   4.392  18.807  0.00  0.00    +0.000 C 
BRANCH  25  26
ATOM     26  C   UNL     1       1.549   3.237  19.830  0.00  0.00    +0.000 C 
ATOM     27  C   UNL     1       1.216   3.553  21.280  0.00  0.00    +0.000 C 
ATOM     28  C   UNL     1       1.880   2.401  22.000  0.00  0.00    +0.000 C 
ATOM     29  C   UNL     1       3.147   2.223  21.191  0.00  0.00    +0.000 C 
ATOM     30  O   UNL     1       2.838   2.589  19.839  0.00  0.00    +0.000 OA
ENDBRANCH  25  26
ENDBRANCH   3  25
TORSDOF 5
ENDMDL
MODEL 4
REMARK VINA RESULT:      -8.3      1.065      1.953
REMARK  Name = 
REMARK  7 active torsions:
REMARK  status: ('A' for Active; 'I' for Inactive)
REMARK    1  A    between atoms: C_1  and  C_2
REMARK    2  A    between atoms: C_4  and  C_5
REMARK    3  A    between atoms: C_7  and  C_8
REMARK    4  A    between atoms: N_10  and  C_11
REMARK    5  A    between atoms: N_10  and  C_23
REMARK    6  A    between atoms: C_11  and  C_12
REMARK    7  A    between atoms: C_23  and  C_24
REMARK                            x       y       z     vdW  Elec       q    Type
REMARK                         _______ _______ _______ _____ _____    ______ ____
ROOT
ATOM      1  C   UNL     1       3.208   4.862  17.758  0.00  0.00    +0.000 C 
ATOM      2  O   UNL     1       2.669   3.827  17.347  0.00  0.00    +0.000 OA
ATOM      3  N   UNL     1       2.521   5.720  18.636  0.00  0.00    +0.000 N 
ENDROOT
BRANCH   1  10
ATOM      4  C   UNL     1       7.926   6.094  18.957  0.00  0.00    +0.000 C 
ATOM      5  C   UNL     1       6.914   5.707  17.917  0.00  0.00    +0.000 A 
ATOM      6  C   UNL     1       7.318   5.497  16.596  0.00  0.00    +0.000 A 
ATOM      7  C   UNL     1       6.408   5.024  15.649  0.00  0.00    +0.000 A 
ATOM      8  C   UNL     1       6.810   4.800  14.221  0.00  0.00    +0.000 C 
ATOM      9  C   UNL     1       5.086   4.764  16.035  0.00  0.00    +0.000 A 
ATOM     10  C   UNL     1       4.620   5.083  17.304  0.00  0.00    +0.000 A 
ATOM     11  C   UNL     1       5.555   5.548  18.250  0.00  0.00    +0.000 A 
ENDBRANCH   1  10
BRANCH   3  12
ATOM     12  C   UNL     1       3.010   6.935  19.320  0.00  0.00    +0.000 C 
BRANCH  12  13
ATOM     13  C   UNL     1       1.929   7.937  19.708  0.00  0.00    +0.000 A 
ATOM     14  N   UNL     1       1.427   7.886  20.901  0.00  0.00    +0.000 NA
ATOM     15  C   UNL     1       0.538   8.897  21.284  0.00  0.00    +0.000 A 
ATOM     16  C   UNL     1       0.114   8.928  22.612  0.00  0.00    +0.000 A 
ATOM     17  C   UNL     1      -0.547  10.050  23.112  0.00  0.00    +0.000 A 
ATOM     18  C   UNL     1      -0.819  11.131  22.272  0.00  0.00    +0.000 A 
ATOM     19  C   UNL     1      -0.488  11.068  20.917  0.00  0.00    +0.000 A 
ATOM     20  C   UNL     1       0.187   9.945  20.432  0.00  0.00    +0.000 A 
ATOM     21  C   UNL     1       0.638   9.857  19.029  0.00  0.00    +0.000 A 
ATOM     22  O   UNL     1       0.261  10.643  18.170  0.00  0.00    +0.000 OA
ATOM     23  N   UNL     1       1.513   8.830  18.759  0.00  0.00    +0.000 N 
ATOM     24  H   UNL     1       1.855   8.782  17.809  0.00  0.00    +0.000 HD
ENDBRANCH  12  13
ENDBRANCH   3  12
BRANCH   3  25
ATOM     25  C   UNL     1       1.166   5.280  19.064  0.00  0.00    +0.000 C 
BRANCH  25  26
ATOM     26  C   UNL     1       1.102   4.308  20.263  0.00  0.00    +0.000 C 
ATOM     27  C   UNL     1       2.263   4.316  21.246  0.00  0.00    +0.000 C 
ATOM     28  C   UNL     1       2.114   2.960  21.899  0.00  0.00    +0.000 C 
ATOM     29  C   UNL     1       1.689   2.100  20.728  0.00  0.00    +0.000 C 
ATOM     30  O   UNL     1       0.932   2.939  19.844  0.00  0.00    +0.000 OA
ENDBRANCH  25  26
ENDBRANCH   3  25
TORSDOF 5
ENDMDL
MODEL 5
REMARK VINA RESULT:      -8.3      3.580      6.209
REMARK  Name = 
REMARK  7 active torsions:
REMARK  status: ('A' for Active; 'I' for Inactive)
REMARK    1  A    between atoms: C_1  and  C_2
REMARK    2  A    between atoms: C_4  and  C_5
REMARK    3  A    between atoms: C_7  and  C_8
REMARK    4  A    between atoms: N_10  and  C_11
REMARK    5  A    between atoms: N_10  and  C_23
REMARK    6  A    between atoms: C_11  and  C_12
REMARK    7  A    between atoms: C_23  and  C_24
REMARK                            x       y       z     vdW  Elec       q    Type
REMARK                         _______ _______ _______ _____ _____    ______ ____
ROOT
ATOM      1  C   UNL     1       5.729   4.783  14.389  0.00  0.00    +0.000 C 
ATOM      2  O   UNL     1       6.210   5.905  14.185  0.00  0.00    +0.000 OA
ATOM      3  N   UNL     1       5.288   4.423  15.676  0.00  0.00    +0.000 N 
ENDROOT
BRANCH   1  10
ATOM      4  C   UNL     1       2.972   3.256  10.479  0.00  0.00    +0.000 C 
ATOM      5  C   UNL     1       4.232   3.159  11.291  0.00  0.00    +0.000 A 
ATOM      6  C   UNL     1       5.268   2.319  10.874  0.00  0.00    +0.000 A 
ATOM      7  C   UNL     1       6.486   2.310  11.556  0.00  0.00    +0.000 A 
ATOM      8  C   UNL     1       7.611   1.412  11.137  0.00  0.00    +0.000 C 
ATOM      9  C   UNL     1       6.659   3.149  12.665  0.00  0.00    +0.000 A 
ATOM     10  C   UNL     1       5.610   3.898  13.184  0.00  0.00    +0.000 A 
ATOM     11  C   UNL     1       4.393   3.905  12.475  0.00  0.00    +0.000 A 
ENDBRANCH   1  10
BRANCH   3  12
ATOM     12  C   UNL     1       4.598   3.190  16.109  0.00  0.00    +0.000 C 
BRANCH  12  13
ATOM     13  C   UNL     1       4.127   3.190  17.559  0.00  0.00    +0.000 A 
ATOM     14  N   UNL     1       3.041   3.826  17.865  0.00  0.00    +0.000 NA
ATOM     15  C   UNL     1       2.550   3.700  19.169  0.00  0.00    +0.000 A 
ATOM     16  C   UNL     1       1.306   4.259  19.458  0.00  0.00    +0.000 A 
ATOM     17  C   UNL     1       0.651   3.939  20.649  0.00  0.00    +0.000 A 
ATOM     18  C   UNL     1       1.260   3.086  21.571  0.00  0.00    +0.000 A 
ATOM     19  C   UNL     1       2.548   2.602  21.336  0.00  0.00    +0.000 A 
ATOM     20  C   UNL     1       3.186   2.918  20.134  0.00  0.00    +0.000 A 
ATOM     21  C   UNL     1       4.513   2.366  19.792  0.00  0.00    +0.000 A 
ATOM     22  O   UNL     1       5.216   1.796  20.615  0.00  0.00    +0.000 OA
ATOM     23  N   UNL     1       4.898   2.540  18.483  0.00  0.00    +0.000 N 
ATOM     24  H   UNL     1       5.790   2.137  18.230  0.00  0.00    +0.000 HD
ENDBRANCH  12  13
ENDBRANCH   3  12
BRANCH   3  25
ATOM     25  C   UNL     1       5.386   5.471  16.725  0.00  0.00    +0.000 C 
BRANCH  25  26
ATOM     26  C   UNL     1       6.762   5.642  17.405  0.00  0.00    +0.000 C 
ATOM     27  C   UNL     1       6.828   5.504  18.919  0.00  0.00    +0.000 C 
ATOM     28  C   UNL     1       8.115   6.232  19.232  0.00  0.00    +0.000 C 
ATOM     29  C   UNL     1       8.066   7.381  18.249  0.00  0.00    +0.000 C 
ATOM     30  O   UNL     1       7.374   6.908  17.084  0.00  0.00    +0.000 OA
ENDBRANCH  25  26
ENDBRANCH   3  25
TORSDOF 5
ENDMDL
MODEL 6
REMARK VINA RESULT:      -8.3      1.338      2.435
REMARK  Name = 
REMARK  7 active torsions:
REMARK  status: ('A' for Active; 'I' for Inactive)
REMARK    1  A    between atoms: C_1  and  C_2
REMARK    2  A    between atoms: C_4  and  C_5
REMARK    3  A    between atoms: C_7  and  C_8
REMARK    4  A    between atoms: N_10  and  C_11
REMARK    5  A    between atoms: N_10  and  C_23
REMARK    6  A    between atoms: C_11  and  C_12
REMARK    7  A    between atoms: C_23  and  C_24
REMARK                            x       y       z     vdW  Elec       q    Type
REMARK                         _______ _______ _______ _____ _____    ______ ____
ROOT
ATOM      1  C   UNL     1       3.292   4.154  17.131  0.00  0.00    +0.000 C 
ATOM      2  O   UNL     1       2.632   3.272  16.568  0.00  0.00    +0.000 OA
ATOM      3  N   UNL     1       2.740   4.879  18.203  0.00  0.00    +0.000 N 
ENDROOT
BRANCH   1  10
ATOM      4  C   UNL     1       8.161   4.747  18.210  0.00  0.00    +0.000 C 
ATOM      5  C   UNL     1       7.065   4.643  17.188  0.00  0.00    +0.000 A 
ATOM      6  C   UNL     1       7.378   4.647  15.826  0.00  0.00    +0.000 A 
ATOM      7  C   UNL     1       6.381   4.433  14.873  0.00  0.00    +0.000 A 
ATOM      8  C   UNL     1       6.686   4.442  13.405  0.00  0.00    +0.000 C 
ATOM      9  C   UNL     1       5.061   4.218  15.295  0.00  0.00    +0.000 A 
ATOM     10  C   UNL     1       4.693   4.337  16.629  0.00  0.00    +0.000 A 
ATOM     11  C   UNL     1       5.715   4.539  17.578  0.00  0.00    +0.000 A 
ENDBRANCH   1  10
BRANCH   3  12
ATOM     12  C   UNL     1       3.382   5.888  19.070  0.00  0.00    +0.000 C 
BRANCH  12  13
ATOM     13  C   UNL     1       2.517   7.098  19.403  0.00  0.00    +0.000 A 
ATOM     14  N   UNL     1       2.125   7.872  18.441  0.00  0.00    +0.000 NA
ATOM     15  C   UNL     1       1.220   8.895  18.746  0.00  0.00    +0.000 A 
ATOM     16  C   UNL     1       0.683   9.631  17.691  0.00  0.00    +0.000 A 
ATOM     17  C   UNL     1      -0.411  10.471  17.907  0.00  0.00    +0.000 A 
ATOM     18  C   UNL     1      -0.946  10.603  19.189  0.00  0.00    +0.000 A 
ATOM     19  C   UNL     1      -0.352   9.948  20.269  0.00  0.00    +0.000 A 
ATOM     20  C   UNL     1       0.733   9.100  20.038  0.00  0.00    +0.000 A 
ATOM     21  C   UNL     1       1.349   8.314  21.127  0.00  0.00    +0.000 A 
ATOM     22  O   UNL     1       1.100   8.524  22.306  0.00  0.00    +0.000 OA
ATOM     23  N   UNL     1       2.220   7.331  20.718  0.00  0.00    +0.000 N 
ATOM     24  H   UNL     1       2.622   6.765  21.454  0.00  0.00    +0.000 HD
ENDBRANCH  12  13
ENDBRANCH   3  12
BRANCH   3  25
ATOM     25  C   UNL     1       1.373   4.484  18.633  0.00  0.00    +0.000 C 
BRANCH  25  26
ATOM     26  C   UNL     1       1.280   3.414  19.744  0.00  0.00    +0.000 C 
ATOM     27  C   UNL     1       1.167   3.894  21.183  0.00  0.00    +0.000 C 
ATOM     28  C   UNL     1       1.629   2.672  21.944  0.00  0.00    +0.000 C 
ATOM     29  C   UNL     1       2.741   2.158  21.056  0.00  0.00    +0.000 C 
ATOM     30  O   UNL     1       2.389   2.494  19.706  0.00  0.00    +0.000 OA
ENDBRANCH  25  26
ENDBRANCH   3  25
TORSDOF 5
ENDMDL
MODEL 7
REMARK VINA RESULT:      -8.2      1.454      1.947
REMARK  Name = 
REMARK  7 active torsions:
REMARK  status: ('A' for Active; 'I' for Inactive)
REMARK    1  A    between atoms: C_1  and  C_2
REMARK    2  A    between atoms: C_4  and  C_5
REMARK    3  A    between atoms: C_7  and  C_8
REMARK    4  A    between atoms: N_10  and  C_11
REMARK    5  A    between atoms: N_10  and  C_23
REMARK    6  A    between atoms: C_11  and  C_12
REMARK    7  A    between atoms: C_23  and  C_24
REMARK                            x       y       z     vdW  Elec       q    Type
REMARK                         _______ _______ _______ _____ _____    ______ ____
ROOT
ATOM      1  C   UNL     1       4.462   5.310  17.612  0.00  0.00    +0.000 C 
ATOM      2  O   UNL     1       4.453   4.667  16.555  0.00  0.00    +0.000 OA
ATOM      3  N   UNL     1       3.281   5.460  18.362  0.00  0.00    +0.000 N 
ENDROOT
BRANCH   1  10
ATOM      4  C   UNL     1       7.878   8.979  17.299  0.00  0.00    +0.000 C 
ATOM      5  C   UNL     1       7.456   7.646  17.848  0.00  0.00    +0.000 A 
ATOM      6  C   UNL     1       8.268   6.986  18.775  0.00  0.00    +0.000 A 
ATOM      7  C   UNL     1       7.831   5.806  19.379  0.00  0.00    +0.000 A 
ATOM      8  C   UNL     1       8.685   5.070  20.369  0.00  0.00    +0.000 C 
ATOM      9  C   UNL     1       6.572   5.287  19.045  0.00  0.00    +0.000 A 
ATOM     10  C   UNL     1       5.798   5.845  18.036  0.00  0.00    +0.000 A 
ATOM     11  C   UNL     1       6.249   7.043  17.447  0.00  0.00    +0.000 A 
ENDBRANCH   1  10
BRANCH   3  12
ATOM     12  C   UNL     1       3.096   6.091  19.686  0.00  0.00    +0.000 C 
BRANCH  12  13
ATOM     13  C   UNL     1       2.242   7.353  19.685  0.00  0.00    +0.000 A 
ATOM     14  N   UNL     1       1.492   7.604  20.710  0.00  0.00    +0.000 NA
ATOM     15  C   UNL     1       0.823   8.832  20.752  0.00  0.00    +0.000 A 
ATOM     16  C   UNL     1       0.139   9.166  21.920  0.00  0.00    +0.000 A 
ATOM     17  C   UNL     1      -0.315  10.471  22.120  0.00  0.00    +0.000 A 
ATOM     18  C   UNL     1      -0.115  11.437  21.132  0.00  0.00    +0.000 A 
ATOM     19  C   UNL     1       0.480  11.087  19.918  0.00  0.00    +0.000 A 
ATOM     20  C   UNL     1       0.941   9.782  19.736  0.00  0.00    +0.000 A 
ATOM     21  C   UNL     1       1.655   9.375  18.508  0.00  0.00    +0.000 A 
ATOM     22  O   UNL     1       1.684  10.077  17.507  0.00  0.00    +0.000 OA
ATOM     23  N   UNL     1       2.282   8.152  18.575  0.00  0.00    +0.000 N 
ATOM     24  H   UNL     1       2.801   7.879  17.751  0.00  0.00    +0.000 HD
ENDBRANCH  12  13
ENDBRANCH   3  12
BRANCH   3  25
ATOM     25  C   UNL     1       2.075   4.766  17.840  0.00  0.00    +0.000 C 
BRANCH  25  26
ATOM     26  C   UNL     1       1.540   3.584  18.678  0.00  0.00    +0.000 C 
ATOM     27  C   UNL     1       0.852   3.903  19.997  0.00  0.00    +0.000 C 
ATOM     28  C   UNL     1       0.966   2.582  20.724  0.00  0.00    +0.000 C 
ATOM     29  C   UNL     1       2.344   2.118  20.303  0.00  0.00    +0.000 C 
ATOM     30  O   UNL     1       2.571   2.621  18.979  0.00  0.00    +0.000 OA
ENDBRANCH  25  26
ENDBRANCH   3  25
TORSDOF 5
ENDMDL
MODEL 8
REMARK VINA RESULT:      -8.2      1.518      2.104
REMARK  Name = 
REMARK  7 active torsions:
REMARK  status: ('A' for Active; 'I' for Inactive)
REMARK    1  A    between atoms: C_1  and  C_2
REMARK    2  A    between atoms: C_4  and  C_5
REMARK    3  A    between atoms: C_7  and  C_8
REMARK    4  A    between atoms: N_10  and  C_11
REMARK    5  A    between atoms: N_10  and  C_23
REMARK    6  A    between atoms: C_11  and  C_12
REMARK    7  A    between atoms: C_23  and  C_24
REMARK                            x       y       z     vdW  Elec       q    Type
REMARK                         _______ _______ _______ _____ _____    ______ ____
ROOT
ATOM      1  C   UNL     1       4.441   5.524  17.623  0.00  0.00    +0.000 C 
ATOM      2  O   UNL     1       4.427   4.916  16.545  0.00  0.00    +0.000 OA
ATOM      3  N   UNL     1       3.278   5.596  18.413  0.00  0.00    +0.000 N 
ENDROOT
BRANCH   1  10
ATOM      4  C   UNL     1       8.676   5.044  20.279  0.00  0.00    +0.000 C 
ATOM      5  C   UNL     1       7.817   5.850  19.348  0.00  0.00    +0.000 A 
ATOM      6  C   UNL     1       8.291   7.060  18.833  0.00  0.00    +0.000 A 
ATOM      7  C   UNL     1       7.550   7.758  17.878  0.00  0.00    +0.000 A 
ATOM      8  C   UNL     1       8.028   9.063  17.316  0.00  0.00    +0.000 C 
ATOM      9  C   UNL     1       6.324   7.234  17.441  0.00  0.00    +0.000 A 
ATOM     10  C   UNL     1       5.764   6.105  18.024  0.00  0.00    +0.000 A 
ATOM     11  C   UNL     1       6.532   5.407  18.978  0.00  0.00    +0.000 A 
ENDBRANCH   1  10
BRANCH   3  12
ATOM     12  C   UNL     1       3.107   6.175  19.762  0.00  0.00    +0.000 C 
BRANCH  12  13
ATOM     13  C   UNL     1       2.184   7.386  19.831  0.00  0.00    +0.000 A 
ATOM     14  N   UNL     1       1.460   7.562  20.891  0.00  0.00    +0.000 NA
ATOM     15  C   UNL     1       0.725   8.749  20.996  0.00  0.00    +0.000 A 
ATOM     16  C   UNL     1       0.067   9.007  22.197  0.00  0.00    +0.000 A 
ATOM     17  C   UNL     1      -0.451  10.278  22.455  0.00  0.00    +0.000 A 
ATOM     18  C   UNL     1      -0.342  11.283  21.492  0.00  0.00    +0.000 A 
ATOM     19  C   UNL     1       0.226  11.005  20.248  0.00  0.00    +0.000 A 
ATOM     20  C   UNL     1       0.753   9.734  20.008  0.00  0.00    +0.000 A 
ATOM     21  C   UNL     1       1.442   9.406  18.743  0.00  0.00    +0.000 A 
ATOM     22  O   UNL     1       1.395  10.138  17.764  0.00  0.00    +0.000 OA
ATOM     23  N   UNL     1       2.138   8.219  18.748  0.00  0.00    +0.000 N 
ATOM     24  H   UNL     1       2.641   8.002  17.898  0.00  0.00    +0.000 HD
ENDBRANCH  12  13
ENDBRANCH   3  12
BRANCH   3  25
ATOM     25  C   UNL     1       2.088   4.866  17.903  0.00  0.00    +0.000 C 
BRANCH  25  26
ATOM     26  C   UNL     1       1.617   3.650  18.731  0.00  0.00    +0.000 C 
ATOM     27  C   UNL     1       0.875   3.920  20.031  0.00  0.00    +0.000 C 
ATOM     28  C   UNL     1       1.064   2.611  20.763  0.00  0.00    +0.000 C 
ATOM     29  C   UNL     1       2.482   2.245  20.379  0.00  0.00    +0.000 C 
ATOM     30  O   UNL     1       2.706   2.762  19.059  0.00  0.00    +0.000 OA
ENDBRANCH  25  26
ENDBRANCH   3  25
TORSDOF 5
ENDMDL
MODEL 9
REMARK VINA RESULT:      -8.0      1.924      2.707
REMARK  Name = 
REMARK  7 active torsions:
REMARK  status: ('A' for Active; 'I' for Inactive)
REMARK    1  A    between atoms: C_1  and  C_2
REMARK    2  A    between atoms: C_4  and  C_5
REMARK    3  A    between atoms: C_7  and  C_8
REMARK    4  A    between atoms: N_10  and  C_11
REMARK    5  A    between atoms: N_10  and  C_23
REMARK    6  A    between atoms: C_11  and  C_12
REMARK    7  A    between atoms: C_23  and  C_24
REMARK                            x       y       z     vdW  Elec       q    Type
REMARK                         _______ _______ _______ _____ _____    ______ ____
ROOT
ATOM      1  C   UNL     1       4.413   5.560  17.597  0.00  0.00    +0.000 C 
ATOM      2  O   UNL     1       4.354   5.038  16.476  0.00  0.00    +0.000 OA
ATOM      3  N   UNL     1       3.264   5.643  18.404  0.00  0.00    +0.000 N 
ENDROOT
BRANCH   1  10
ATOM      4  C   UNL     1       7.999   9.065  17.326  0.00  0.00    +0.000 C 
ATOM      5  C   UNL     1       7.516   7.747  17.859  0.00  0.00    +0.000 A 
ATOM      6  C   UNL     1       8.296   7.036  18.775  0.00  0.00    +0.000 A 
ATOM      7  C   UNL     1       7.804   5.871  19.364  0.00  0.00    +0.000 A 
ATOM      8  C   UNL     1       8.623   5.082  20.343  0.00  0.00    +0.000 C 
ATOM      9  C   UNL     1       6.521   5.417  19.025  0.00  0.00    +0.000 A 
ATOM     10  C   UNL     1       5.774   6.025  18.025  0.00  0.00    +0.000 A 
ATOM     11  C   UNL     1       6.280   7.208  17.451  0.00  0.00    +0.000 A 
ENDBRANCH   1  10
BRANCH   3  12
ATOM     12  C   UNL     1       3.139   6.125  19.795  0.00  0.00    +0.000 C 
BRANCH  12  13
ATOM     13  C   UNL     1       2.279   7.371  19.971  0.00  0.00    +0.000 A 
ATOM     14  N   UNL     1       1.982   8.081  18.929  0.00  0.00    +0.000 NA
ATOM     15  C   UNL     1       1.081   9.139  19.088  0.00  0.00    +0.000 A 
ATOM     16  C   UNL     1       0.646   9.807  17.944  0.00  0.00    +0.000 A 
ATOM     17  C   UNL     1      -0.442  10.679  18.011  0.00  0.00    +0.000 A 
ATOM     18  C   UNL     1      -1.073  10.913  19.233  0.00  0.00    +0.000 A 
ATOM     19  C   UNL     1      -0.582  10.327  20.401  0.00  0.00    +0.000 A 
ATOM     20  C   UNL     1       0.498   9.445  20.319  0.00  0.00    +0.000 A 
ATOM     21  C   UNL     1       1.007   8.729  21.506  0.00  0.00    +0.000 A 
ATOM     22  O   UNL     1       0.672   9.028  22.644  0.00  0.00    +0.000 OA
ATOM     23  N   UNL     1       1.885   7.704  21.238  0.00  0.00    +0.000 N 
ATOM     24  H   UNL     1       2.213   7.185  22.042  0.00  0.00    +0.000 HD
ENDBRANCH  12  13
ENDBRANCH   3  12
BRANCH   3  25
ATOM     25  C   UNL     1       2.026   5.029  17.855  0.00  0.00    +0.000 C 
BRANCH  25  26
ATOM     26  C   UNL     1       1.517   3.752  18.560  0.00  0.00    +0.000 C 
ATOM     27  C   UNL     1       0.908   3.901  19.945  0.00  0.00    +0.000 C 
ATOM     28  C   UNL     1       1.038   2.494  20.484  0.00  0.00    +0.000 C 
ATOM     29  C   UNL     1       2.382   2.076  19.930  0.00  0.00    +0.000 C 
ATOM     30  O   UNL     1       2.545   2.747  18.672  0.00  0.00    +0.000 OA
ENDBRANCH  25  26
ENDBRANCH   3  25
TORSDOF 5
ENDMDL
