MODEL 1
REMARK VINA RESULT:      -8.0      0.000      0.000
REMARK  Name = 
REMARK  4 active torsions:
REMARK  status: ('A' for Active; 'I' for Inactive)
REMARK    1  A    between atoms: C_1  and  C_2
REMARK    2  A    between atoms: C_8  and  C_9
REMARK    3  A    between atoms: C_20  and  C_21
REMARK    4  A    between atoms: C_21  and  C_22
REMARK                            x       y       z     vdW  Elec       q    Type
REMARK                         _______ _______ _______ _____ _____    ______ ____
ROOT
ATOM      1  C   UNL     1      -1.529  11.025  23.084  0.00  0.00    +0.000 C 
ATOM      2  C   UNL     1      -0.546  10.610  22.022  0.00  0.00    +0.000 A 
ATOM      3  N   UNL     1      -0.025   9.353  22.245  0.00  0.00    +0.000 NA
ATOM      4  C   UNL     1       0.865   8.890  21.419  0.00  0.00    +0.000 A 
ATOM      5  N   UNL     1       1.358   7.630  21.593  0.00  0.00    +0.000 N 
ATOM      6  C   UNL     1       1.878   6.835  20.581  0.00  0.00    +0.000 A 
ATOM      7  N   UNL     1       2.300   7.423  19.449  0.00  0.00    +0.000 NA
ATOM      8  C   UNL     1       2.724   6.645  18.437  0.00  0.00    +0.000 A 
ATOM      9  C   UNL     1       3.112   7.386  17.193  0.00  0.00    +0.000 C 
ATOM     10  C   UNL     1       2.767   5.257  18.541  0.00  0.00    +0.000 A 
ATOM     11  C   UNL     1       3.213   4.389  17.516  0.00  0.00    +0.000 A 
ATOM     12  C   UNL     1       3.215   3.012  17.712  0.00  0.00    +0.000 A 
ATOM     13  C   UNL     1       2.767   2.495  18.920  0.00  0.00    +0.000 A 
ATOM     14  C   UNL     1       2.327   3.358  19.928  0.00  0.00    +0.000 A 
ATOM     15  C   UNL     1       2.324   4.738  19.764  0.00  0.00    +0.000 A 
ATOM     16  N   UNL     1       1.887   5.511  20.771  0.00  0.00    +0.000 NA
ATOM     17  N   UNL     1       1.297   9.641  20.365  0.00  0.00    +0.000 N 
ATOM     18  C   UNL     1       0.745  10.826  20.001  0.00  0.00    +0.000 A 
ATOM     19  O   UNL     1       1.018  11.365  18.934  0.00  0.00    +0.000 OA
ATOM     20  C   UNL     1      -0.231  11.388  20.963  0.00  0.00    +0.000 A 
ATOM     21  H   UNL     1       0.933   7.081  22.322  0.00  0.00    +0.000 HD
ATOM     22  H   UNL     1       1.931   9.208  19.705  0.00  0.00    +0.000 HD
ENDROOT
BRANCH  20  23
ATOM     23  C   UNL     1      -0.749  12.766  20.637  0.00  0.00    +0.000 C 
BRANCH  23  24
ATOM     24  C   UNL     1      -2.162  12.711  20.104  0.00  0.00    +0.000 A 
ATOM     25  C   UNL     1      -3.216  13.329  20.794  0.00  0.00    +0.000 A 
ATOM     26  C   UNL     1      -4.537  13.125  20.400  0.00  0.00    +0.000 A 
ATOM     27  C   UNL     1      -4.819  12.312  19.303  0.00  0.00    +0.000 A 
ATOM     28  C   UNL     1      -3.778  11.734  18.580  0.00  0.00    +0.000 A 
ATOM     29  C   UNL     1      -2.456  11.938  18.972  0.00  0.00    +0.000 A 
ENDBRANCH  23  24
ENDBRANCH  20  23
TORSDOF 2
ENDMDL
MODEL 2
REMARK VINA RESULT:      -7.9      1.778      3.037
REMARK  Name = 
REMARK  4 active torsions:
REMARK  status: ('A' for Active; 'I' for Inactive)
REMARK    1  A    between atoms: C_1  and  C_2
REMARK    2  A    between atoms: C_8  and  C_9
REMARK    3  A    between atoms: C_20  and  C_21
REMARK    4  A    between atoms: C_21  and  C_22
REMARK                            x       y       z     vdW  Elec       q    Type
REMARK                         _______ _______ _______ _____ _____    ______ ____
ROOT
ATOM      1  C   UNL     1       0.782  13.749  19.467  0.00  0.00    +0.000 C 
ATOM      2  C   UNL     1       0.724  12.273  19.757  0.00  0.00    +0.000 A 
ATOM      3  N   UNL     1       1.312  11.514  18.767  0.00  0.00    +0.000 NA
ATOM      4  C   UNL     1       1.297  10.220  18.879  0.00  0.00    +0.000 A 
ATOM      5  N   UNL     1       1.915   9.453  17.936  0.00  0.00    +0.000 N 
ATOM      6  C   UNL     1       2.419   8.178  18.155  0.00  0.00    +0.000 A 
ATOM      7  N   UNL     1       1.959   7.472  19.201  0.00  0.00    +0.000 NA
ATOM      8  C   UNL     1       2.509   6.273  19.463  0.00  0.00    +0.000 A 
ATOM      9  C   UNL     1       1.977   5.589  20.687  0.00  0.00    +0.000 C 
ATOM     10  C   UNL     1       3.515   5.733  18.666  0.00  0.00    +0.000 A 
ATOM     11  C   UNL     1       4.123   4.474  18.885  0.00  0.00    +0.000 A 
ATOM     12  C   UNL     1       5.125   4.020  18.035  0.00  0.00    +0.000 A 
ATOM     13  C   UNL     1       5.532   4.817  16.974  0.00  0.00    +0.000 A 
ATOM     14  C   UNL     1       4.928   6.059  16.763  0.00  0.00    +0.000 A 
ATOM     15  C   UNL     1       3.916   6.534  17.590  0.00  0.00    +0.000 A 
ATOM     16  N   UNL     1       3.379   7.738  17.335  0.00  0.00    +0.000 NA
ATOM     17  N   UNL     1       0.689   9.618  19.942  0.00  0.00    +0.000 N 
ATOM     18  C   UNL     1       0.206  10.288  21.018  0.00  0.00    +0.000 A 
ATOM     19  O   UNL     1      -0.141   9.705  22.040  0.00  0.00    +0.000 OA
ATOM     20  C   UNL     1       0.169  11.762  20.878  0.00  0.00    +0.000 A 
ATOM     21  H   UNL     1       2.435   9.946  17.229  0.00  0.00    +0.000 HD
ATOM     22  H   UNL     1       0.772   8.613  20.026  0.00  0.00    +0.000 HD
ENDROOT
BRANCH  20  23
ATOM     23  C   UNL     1      -0.491  12.509  22.010  0.00  0.00    +0.000 C 
BRANCH  23  24
ATOM     24  C   UNL     1      -1.996  12.498  21.871  0.00  0.00    +0.000 A 
ATOM     25  C   UNL     1      -2.604  12.653  20.616  0.00  0.00    +0.000 A 
ATOM     26  C   UNL     1      -3.984  12.824  20.513  0.00  0.00    +0.000 A 
ATOM     27  C   UNL     1      -4.773  12.828  21.662  0.00  0.00    +0.000 A 
ATOM     28  C   UNL     1      -4.186  12.624  22.909  0.00  0.00    +0.000 A 
ATOM     29  C   UNL     1      -2.807  12.452  23.014  0.00  0.00    +0.000 A 
ENDBRANCH  23  24
ENDBRANCH  20  23
TORSDOF 2
ENDMDL
MODEL 3
REMARK VINA RESULT:      -7.8      2.709      8.707
REMARK  Name = 
REMARK  4 active torsions:
REMARK  status: ('A' for Active; 'I' for Inactive)
REMARK    1  A    between atoms: C_1  and  C_2
REMARK    2  A    between atoms: C_8  and  C_9
REMARK    3  A    between atoms: C_20  and  C_21
REMARK    4  A    between atoms: C_21  and  C_22
REMARK                            x       y       z     vdW  Elec       q    Type
REMARK                         _______ _______ _______ _____ _____    ______ ____
ROOT
ATOM      1  C   UNL     1       2.184   5.418  20.744  0.00  0.00    +0.000 C 
ATOM      2  C   UNL     1       2.047   6.709  19.982  0.00  0.00    +0.000 A 
ATOM      3  N   UNL     1       1.343   7.665  20.682  0.00  0.00    +0.000 NA
ATOM      4  C   UNL     1       1.123   8.816  20.121  0.00  0.00    +0.000 A 
ATOM      5  N   UNL     1       0.470   9.793  20.813  0.00  0.00    +0.000 N 
ATOM      6  C   UNL     1       0.606  11.155  20.583  0.00  0.00    +0.000 A 
ATOM      7  N   UNL     1       1.076  11.566  19.395  0.00  0.00    +0.000 NA
ATOM      8  C   UNL     1       1.288  12.880  19.203  0.00  0.00    +0.000 A 
ATOM      9  C   UNL     1       1.875  13.237  17.871  0.00  0.00    +0.000 C 
ATOM     10  C   UNL     1       1.006  13.824  20.187  0.00  0.00    +0.000 A 
ATOM     11  C   UNL     1       1.198  15.219  20.041  0.00  0.00    +0.000 A 
ATOM     12  C   UNL     1       0.890  16.084  21.085  0.00  0.00    +0.000 A 
ATOM     13  C   UNL     1       0.401  15.568  22.277  0.00  0.00    +0.000 A 
ATOM     14  C   UNL     1       0.215  14.190  22.415  0.00  0.00    +0.000 A 
ATOM     15  C   UNL     1       0.503  13.302  21.386  0.00  0.00    +0.000 A 
ATOM     16  N   UNL     1       0.304  11.989  21.584  0.00  0.00    +0.000 NA
ATOM     17  N   UNL     1       1.558   9.068  18.852  0.00  0.00    +0.000 N 
ATOM     18  C   UNL     1       2.366   8.236  18.148  0.00  0.00    +0.000 A 
ATOM     19  O   UNL     1       2.903   8.588  17.103  0.00  0.00    +0.000 OA
ATOM     20  C   UNL     1       2.579   6.903  18.755  0.00  0.00    +0.000 A 
ATOM     21  H   UNL     1       0.261   9.593  21.778  0.00  0.00    +0.000 HD
ATOM     22  H   UNL     1       1.432  10.004  18.487  0.00  0.00    +0.000 HD
ENDROOT
BRANCH  20  23
ATOM     23  C   UNL     1       3.362   5.922  17.918  0.00  0.00    +0.000 C 
BRANCH  23  24
ATOM     24  C   UNL     1       4.849   6.076  18.140  0.00  0.00    +0.000 A 
ATOM     25  C   UNL     1       5.646   6.771  17.218  0.00  0.00    +0.000 A 
ATOM     26  C   UNL     1       7.036   6.756  17.330  0.00  0.00    +0.000 A 
ATOM     27  C   UNL     1       7.644   6.058  18.372  0.00  0.00    +0.000 A 
ATOM     28  C   UNL     1       6.861   5.407  19.322  0.00  0.00    +0.000 A 
ATOM     29  C   UNL     1       5.471   5.421  19.213  0.00  0.00    +0.000 A 
ENDBRANCH  23  24
ENDBRANCH  20  23
TORSDOF 2
ENDMDL
MODEL 4
REMARK VINA RESULT:      -7.7      1.793      3.018
REMARK  Name = 
REMARK  4 active torsions:
REMARK  status: ('A' for Active; 'I' for Inactive)
REMARK    1  A    between atoms: C_1  and  C_2
REMARK    2  A    between atoms: C_8  and  C_9
REMARK    3  A    between atoms: C_20  and  C_21
REMARK    4  A    between atoms: C_21  and  C_22
REMARK                            x       y       z     vdW  Elec       q    Type
REMARK                         _______ _______ _______ _____ _____    ______ ____
ROOT
ATOM      1  C   UNL     1       0.516  13.941  19.792  0.00  0.00    +0.000 C 
ATOM      2  C   UNL     1       0.515  12.448  19.981  0.00  0.00    +0.000 A 
ATOM      3  N   UNL     1       1.104  11.780  18.929  0.00  0.00    +0.000 NA
ATOM      4  C   UNL     1       1.136  10.481  18.953  0.00  0.00    +0.000 A 
ATOM      5  N   UNL     1       1.757   9.802  17.946  0.00  0.00    +0.000 N 
ATOM      6  C   UNL     1       2.309   8.534  18.067  0.00  0.00    +0.000 A 
ATOM      7  N   UNL     1       1.898   7.743  19.072  0.00  0.00    +0.000 NA
ATOM      8  C   UNL     1       2.495   6.549  19.239  0.00  0.00    +0.000 A 
ATOM      9  C   UNL     1       2.016   5.766  20.424  0.00  0.00    +0.000 C 
ATOM     10  C   UNL     1       3.499   6.100  18.386  0.00  0.00    +0.000 A 
ATOM     11  C   UNL     1       4.154   4.851  18.505  0.00  0.00    +0.000 A 
ATOM     12  C   UNL     1       5.151   4.492  17.604  0.00  0.00    +0.000 A 
ATOM     13  C   UNL     1       5.505   5.372  16.591  0.00  0.00    +0.000 A 
ATOM     14  C   UNL     1       4.854   6.604  16.479  0.00  0.00    +0.000 A 
ATOM     15  C   UNL     1       3.847   6.985  17.358  0.00  0.00    +0.000 A 
ATOM     16  N   UNL     1       3.263   8.184  17.197  0.00  0.00    +0.000 NA
ATOM     17  N   UNL     1       0.575   9.788  19.985  0.00  0.00    +0.000 N 
ATOM     18  C   UNL     1       0.095  10.366  21.115  0.00  0.00    +0.000 A 
ATOM     19  O   UNL     1      -0.207   9.703  22.102  0.00  0.00    +0.000 OA
ATOM     20  C   UNL     1       0.005  11.843  21.077  0.00  0.00    +0.000 A 
ATOM     21  H   UNL     1       2.243  10.360  17.264  0.00  0.00    +0.000 HD
ATOM     22  H   UNL     1       0.694   8.782  19.999  0.00  0.00    +0.000 HD
ENDROOT
BRANCH  20  23
ATOM     23  C   UNL     1      -0.653  12.488  22.271  0.00  0.00    +0.000 C 
BRANCH  23  24
ATOM     24  C   UNL     1      -2.132  12.695  22.039  0.00  0.00    +0.000 A 
ATOM     25  C   UNL     1      -3.025  12.772  23.118  0.00  0.00    +0.000 A 
ATOM     26  C   UNL     1      -4.403  12.780  22.898  0.00  0.00    +0.000 A 
ATOM     27  C   UNL     1      -4.901  12.726  21.597  0.00  0.00    +0.000 A 
ATOM     28  C   UNL     1      -4.022  12.700  20.517  0.00  0.00    +0.000 A 
ATOM     29  C   UNL     1      -2.645  12.693  20.734  0.00  0.00    +0.000 A 
ENDBRANCH  23  24
ENDBRANCH  20  23
TORSDOF 2
ENDMDL
MODEL 5
REMARK VINA RESULT:      -7.7      2.674      8.674
REMARK  Name = 
REMARK  4 active torsions:
REMARK  status: ('A' for Active; 'I' for Inactive)
REMARK    1  A    between atoms: C_1  and  C_2
REMARK    2  A    between atoms: C_8  and  C_9
REMARK    3  A    between atoms: C_20  and  C_21
REMARK    4  A    between atoms: C_21  and  C_22
REMARK                            x       y       z     vdW  Elec       q    Type
REMARK                         _______ _______ _______ _____ _____    ______ ____
ROOT
ATOM      1  C   UNL     1       2.687   5.107  20.435  0.00  0.00    +0.000 C 
ATOM      2  C   UNL     1       2.448   6.407  19.715  0.00  0.00    +0.000 A 
ATOM      3  N   UNL     1       1.681   7.286  20.449  0.00  0.00    +0.000 NA
ATOM      4  C   UNL     1       1.371   8.434  19.925  0.00  0.00    +0.000 A 
ATOM      5  N   UNL     1       0.654   9.338  20.652  0.00  0.00    +0.000 N 
ATOM      6  C   UNL     1       0.686  10.712  20.464  0.00  0.00    +0.000 A 
ATOM      7  N   UNL     1       1.113  11.193  19.285  0.00  0.00    +0.000 NA
ATOM      8  C   UNL     1       1.225  12.525  19.133  0.00  0.00    +0.000 A 
ATOM      9  C   UNL     1       1.771  12.965  17.807  0.00  0.00    +0.000 C 
ATOM     10  C   UNL     1       0.883  13.415  20.147  0.00  0.00    +0.000 A 
ATOM     11  C   UNL     1       0.969  14.824  20.043  0.00  0.00    +0.000 A 
ATOM     12  C   UNL     1       0.608  15.632  21.115  0.00  0.00    +0.000 A 
ATOM     13  C   UNL     1       0.171  15.045  22.295  0.00  0.00    +0.000 A 
ATOM     14  C   UNL     1       0.088  13.653  22.392  0.00  0.00    +0.000 A 
ATOM     15  C   UNL     1       0.432  12.821  21.333  0.00  0.00    +0.000 A 
ATOM     16  N   UNL     1       0.333  11.491  21.492  0.00  0.00    +0.000 NA
ATOM     17  N   UNL     1       1.773   8.756  18.662  0.00  0.00    +0.000 N 
ATOM     18  C   UNL     1       2.634   8.008  17.926  0.00  0.00    +0.000 A 
ATOM     19  O   UNL     1       3.133   8.431  16.889  0.00  0.00    +0.000 OA
ATOM     20  C   UNL     1       2.951   6.676  18.490  0.00  0.00    +0.000 A 
ATOM     21  H   UNL     1       0.470   9.094  21.612  0.00  0.00    +0.000 HD
ATOM     22  H   UNL     1       1.575   9.691  18.327  0.00  0.00    +0.000 HD
ENDROOT
BRANCH  20  23
ATOM     23  C   UNL     1       3.797   5.783  17.618  0.00  0.00    +0.000 C 
BRANCH  23  24
ATOM     24  C   UNL     1       5.269   5.954  17.919  0.00  0.00    +0.000 A 
ATOM     25  C   UNL     1       5.855   5.317  19.023  0.00  0.00    +0.000 A 
ATOM     26  C   UNL     1       7.162   5.619  19.403  0.00  0.00    +0.000 A 
ATOM     27  C   UNL     1       7.902   6.549  18.675  0.00  0.00    +0.000 A 
ATOM     28  C   UNL     1       7.348   7.149  17.547  0.00  0.00    +0.000 A 
ATOM     29  C   UNL     1       6.041   6.848  17.165  0.00  0.00    +0.000 A 
ENDBRANCH  23  24
ENDBRANCH  20  23
TORSDOF 2
ENDMDL
MODEL 6
REMARK VINA RESULT:      -7.6      0.641      1.125
REMARK  Name = 
REMARK  4 active torsions:
REMARK  status: ('A' for Active; 'I' for Inactive)
REMARK    1  A    between atoms: C_1  and  C_2
REMARK    2  A    between atoms: C_8  and  C_9
REMARK    3  A    between atoms: C_20  and  C_21
REMARK    4  A    between atoms: C_21  and  C_22
REMARK                            x       y       z     vdW  Elec       q    Type
REMARK                         _______ _______ _______ _____ _____    ______ ____
ROOT
ATOM      1  C   UNL     1      -1.336  10.462  22.799  0.00  0.00    +0.000 C 
ATOM      2  C   UNL     1      -0.333  10.058  21.753  0.00  0.00    +0.000 A 
ATOM      3  N   UNL     1       0.236   8.829  22.009  0.00  0.00    +0.000 NA
ATOM      4  C   UNL     1       1.147   8.379  21.198  0.00  0.00    +0.000 A 
ATOM      5  N   UNL     1       1.687   7.145  21.406  0.00  0.00    +0.000 N 
ATOM      6  C   UNL     1       2.242   6.345  20.417  0.00  0.00    +0.000 A 
ATOM      7  N   UNL     1       2.646   6.919  19.272  0.00  0.00    +0.000 NA
ATOM      8  C   UNL     1       3.104   6.133  18.282  0.00  0.00    +0.000 A 
ATOM      9  C   UNL     1       3.469   6.857  17.020  0.00  0.00    +0.000 C 
ATOM     10  C   UNL     1       3.201   4.751  18.421  0.00  0.00    +0.000 A 
ATOM     11  C   UNL     1       3.684   3.875  17.420  0.00  0.00    +0.000 A 
ATOM     12  C   UNL     1       3.739   2.505  17.652  0.00  0.00    +0.000 A 
ATOM     13  C   UNL     1       3.306   2.002  18.871  0.00  0.00    +0.000 A 
ATOM     14  C   UNL     1       2.829   2.872  19.855  0.00  0.00    +0.000 A 
ATOM     15  C   UNL     1       2.773   4.246  19.655  0.00  0.00    +0.000 A 
ATOM     16  N   UNL     1       2.302   5.028  20.641  0.00  0.00    +0.000 NA
ATOM     17  N   UNL     1       1.554   9.120  20.127  0.00  0.00    +0.000 N 
ATOM     18  C   UNL     1       0.958  10.273  19.731  0.00  0.00    +0.000 A 
ATOM     19  O   UNL     1       1.215  10.795  18.651  0.00  0.00    +0.000 OA
ATOM     20  C   UNL     1      -0.043  10.820  20.675  0.00  0.00    +0.000 A 
ATOM     21  H   UNL     1       1.280   6.598  22.148  0.00  0.00    +0.000 HD
ATOM     22  H   UNL     1       2.207   8.695  19.481  0.00  0.00    +0.000 HD
ENDROOT
BRANCH  20  23
ATOM     23  C   UNL     1      -0.612  12.169  20.312  0.00  0.00    +0.000 C 
BRANCH  23  24
ATOM     24  C   UNL     1      -2.062  12.061  19.898  0.00  0.00    +0.000 A 
ATOM     25  C   UNL     1      -2.417  11.495  18.664  0.00  0.00    +0.000 A 
ATOM     26  C   UNL     1      -3.733  11.561  18.207  0.00  0.00    +0.000 A 
ATOM     27  C   UNL     1      -4.710  12.179  18.985  0.00  0.00    +0.000 A 
ATOM     28  C   UNL     1      -4.379  12.699  20.234  0.00  0.00    +0.000 A 
ATOM     29  C   UNL     1      -3.064  12.634  20.693  0.00  0.00    +0.000 A 
ENDBRANCH  23  24
ENDBRANCH  20  23
TORSDOF 2
ENDMDL
MODEL 7
REMARK VINA RESULT:      -7.4      2.397      8.523
REMARK  Name = 
REMARK  4 active torsions:
REMARK  status: ('A' for Active; 'I' for Inactive)
REMARK    1  A    between atoms: C_1  and  C_2
REMARK    2  A    between atoms: C_8  and  C_9
REMARK    3  A    between atoms: C_20  and  C_21
REMARK    4  A    between atoms: C_21  and  C_22
REMARK                            x       y       z     vdW  Elec       q    Type
REMARK                         _______ _______ _______ _____ _____    ______ ____
ROOT
ATOM      1  C   UNL     1       3.440   3.933  20.223  0.00  0.00    +0.000 C 
ATOM      2  C   UNL     1       2.992   5.257  19.663  0.00  0.00    +0.000 A 
ATOM      3  N   UNL     1       2.025   5.860  20.438  0.00  0.00    +0.000 NA
ATOM      4  C   UNL     1       1.526   6.994  20.046  0.00  0.00    +0.000 A 
ATOM      5  N   UNL     1       0.603   7.631  20.822  0.00  0.00    +0.000 N 
ATOM      6  C   UNL     1       0.376   9.001  20.820  0.00  0.00    +0.000 A 
ATOM      7  N   UNL     1       0.768   9.720  19.756  0.00  0.00    +0.000 NA
ATOM      8  C   UNL     1       0.624  11.057  19.792  0.00  0.00    +0.000 A 
ATOM      9  C   UNL     1       1.150  11.780  18.588  0.00  0.00    +0.000 C 
ATOM     10  C   UNL     1       0.054  11.709  20.882  0.00  0.00    +0.000 A 
ATOM     11  C   UNL     1      -0.133  13.109  20.972  0.00  0.00    +0.000 A 
ATOM     12  C   UNL     1      -0.708  13.669  22.107  0.00  0.00    +0.000 A 
ATOM     13  C   UNL     1      -1.090  12.845  23.157  0.00  0.00    +0.000 A 
ATOM     14  C   UNL     1      -0.902  11.463  23.061  0.00  0.00    +0.000 A 
ATOM     15  C   UNL     1      -0.340  10.874  21.936  0.00  0.00    +0.000 A 
ATOM     16  N   UNL     1      -0.185   9.541  21.908  0.00  0.00    +0.000 NA
ATOM     17  N   UNL     1       1.931   7.567  18.875  0.00  0.00    +0.000 N 
ATOM     18  C   UNL     1       2.964   7.109  18.125  0.00  0.00    +0.000 A 
ATOM     19  O   UNL     1       3.430   7.765  17.199  0.00  0.00    +0.000 OA
ATOM     20  C   UNL     1       3.504   5.792  18.533  0.00  0.00    +0.000 A 
ATOM     21  H   UNL     1       0.415   7.220  21.722  0.00  0.00    +0.000 HD
ATOM     22  H   UNL     1       1.573   8.487  18.652  0.00  0.00    +0.000 HD
ENDROOT
BRANCH  20  23
ATOM     23  C   UNL     1       4.559   5.209  17.626  0.00  0.00    +0.000 C 
BRANCH  23  24
ATOM     24  C   UNL     1       5.925   5.777  17.938  0.00  0.00    +0.000 A 
ATOM     25  C   UNL     1       6.647   5.338  19.058  0.00  0.00    +0.000 A 
ATOM     26  C   UNL     1       7.819   5.988  19.444  0.00  0.00    +0.000 A 
ATOM     27  C   UNL     1       8.290   7.073  18.706  0.00  0.00    +0.000 A 
ATOM     28  C   UNL     1       7.609   7.484  17.563  0.00  0.00    +0.000 A 
ATOM     29  C   UNL     1       6.437   6.835  17.175  0.00  0.00    +0.000 A 
ENDBRANCH  23  24
ENDBRANCH  20  23
TORSDOF 2
ENDMDL
MODEL 8
REMARK VINA RESULT:      -7.4      2.116      3.426
REMARK  Name = 
REMARK  4 active torsions:
REMARK  status: ('A' for Active; 'I' for Inactive)
REMARK    1  A    between atoms: C_1  and  C_2
REMARK    2  A    between atoms: C_8  and  C_9
REMARK    3  A    between atoms: C_20  and  C_21
REMARK    4  A    between atoms: C_21  and  C_22
REMARK                            x       y       z     vdW  Elec       q    Type
REMARK                         _______ _______ _______ _____ _____    ______ ____
ROOT
ATOM      1  C   UNL     1      -1.131  11.301  21.091  0.00  0.00    +0.000 C 
ATOM      2  C   UNL     1      -0.012  10.605  20.364  0.00  0.00    +0.000 A 
ATOM      3  N   UNL     1       0.252   9.351  20.873  0.00  0.00    +0.000 NA
ATOM      4  C   UNL     1       1.222   8.657  20.356  0.00  0.00    +0.000 A 
ATOM      5  N   UNL     1       1.468   7.396  20.811  0.00  0.00    +0.000 N 
ATOM      6  C   UNL     1       2.073   6.389  20.071  0.00  0.00    +0.000 A 
ATOM      7  N   UNL     1       2.817   6.728  19.006  0.00  0.00    +0.000 NA
ATOM      8  C   UNL     1       3.332   5.749  18.240  0.00  0.00    +0.000 A 
ATOM      9  C   UNL     1       4.092   6.224  17.038  0.00  0.00    +0.000 C 
ATOM     10  C   UNL     1       3.142   4.403  18.537  0.00  0.00    +0.000 A 
ATOM     11  C   UNL     1       3.666   3.331  17.776  0.00  0.00    +0.000 A 
ATOM     12  C   UNL     1       3.417   2.015  18.150  0.00  0.00    +0.000 A 
ATOM     13  C   UNL     1       2.641   1.760  19.273  0.00  0.00    +0.000 A 
ATOM     14  C   UNL     1       2.126   2.823  20.019  0.00  0.00    +0.000 A 
ATOM     15  C   UNL     1       2.367   4.148  19.675  0.00  0.00    +0.000 A 
ATOM     16  N   UNL     1       1.840   5.123  20.434  0.00  0.00    +0.000 NA
ATOM     17  N   UNL     1       1.984   9.168  19.346  0.00  0.00    +0.000 N 
ATOM     18  C   UNL     1       1.711  10.332  18.704  0.00  0.00    +0.000 A 
ATOM     19  O   UNL     1       2.291  10.651  17.671  0.00  0.00    +0.000 OA
ATOM     20  C   UNL     1       0.643  11.154  19.317  0.00  0.00    +0.000 A 
ATOM     21  H   UNL     1       0.815   7.028  21.483  0.00  0.00    +0.000 HD
ATOM     22  H   UNL     1       2.675   8.562  18.923  0.00  0.00    +0.000 HD
ENDROOT
BRANCH  20  23
ATOM     23  C   UNL     1       0.424  12.510  18.694  0.00  0.00    +0.000 C 
BRANCH  23  24
ATOM     24  C   UNL     1       1.459  13.505  19.167  0.00  0.00    +0.000 A 
ATOM     25  C   UNL     1       2.419  14.019  18.281  0.00  0.00    +0.000 A 
ATOM     26  C   UNL     1       3.478  14.792  18.756  0.00  0.00    +0.000 A 
ATOM     27  C   UNL     1       3.581  15.072  20.118  0.00  0.00    +0.000 A 
ATOM     28  C   UNL     1       2.605  14.610  20.998  0.00  0.00    +0.000 A 
ATOM     29  C   UNL     1       1.545  13.837  20.525  0.00  0.00    +0.000 A 
ENDBRANCH  23  24
ENDBRANCH  20  23
TORSDOF 2
ENDMDL
MODEL 9
REMARK VINA RESULT:      -7.3      1.082      1.614
REMARK  Name = 
REMARK  4 active torsions:
REMARK  status: ('A' for Active; 'I' for Inactive)
REMARK    1  A    between atoms: C_1  and  C_2
REMARK    2  A    between atoms: C_8  and  C_9
REMARK    3  A    between atoms: C_20  and  C_21
REMARK    4  A    between atoms: C_21  and  C_22
REMARK                            x       y       z     vdW  Elec       q    Type
REMARK                         _______ _______ _______ _____ _____    ______ ____
ROOT
ATOM      1  C   UNL     1      -2.389  11.789  23.442  0.00  0.00    +0.000 C 
ATOM      2  C   UNL     1      -1.389  11.455  22.369  0.00  0.00    +0.000 A 
ATOM      3  N   UNL     1      -0.728  10.269  22.610  0.00  0.00    +0.000 NA
ATOM      4  C   UNL     1       0.190   9.883  21.776  0.00  0.00    +0.000 A 
ATOM      5  N   UNL     1       0.822   8.690  21.970  0.00  0.00    +0.000 N 
ATOM      6  C   UNL     1       1.405   7.929  20.966  0.00  0.00    +0.000 A 
ATOM      7  N   UNL     1       1.736   8.527  19.810  0.00  0.00    +0.000 NA
ATOM      8  C   UNL     1       2.221   7.773  18.809  0.00  0.00    +0.000 A 
ATOM      9  C   UNL     1       2.500   8.516  17.537  0.00  0.00    +0.000 C 
ATOM     10  C   UNL     1       2.419   6.401  18.946  0.00  0.00    +0.000 A 
ATOM     11  C   UNL     1       2.936   5.559  17.933  0.00  0.00    +0.000 A 
ATOM     12  C   UNL     1       3.093   4.197  18.165  0.00  0.00    +0.000 A 
ATOM     13  C   UNL     1       2.730   3.667  19.395  0.00  0.00    +0.000 A 
ATOM     14  C   UNL     1       2.220   4.505  20.391  0.00  0.00    +0.000 A 
ATOM     15  C   UNL     1       2.062   5.871  20.192  0.00  0.00    +0.000 A 
ATOM     16  N   UNL     1       1.563   6.620  21.189  0.00  0.00    +0.000 NA
ATOM     17  N   UNL     1       0.515  10.648  20.693  0.00  0.00    +0.000 N 
ATOM     18  C   UNL     1      -0.171  11.755  20.313  0.00  0.00    +0.000 A 
ATOM     19  O   UNL     1       0.018  12.290  19.226  0.00  0.00    +0.000 OA
ATOM     20  C   UNL     1      -1.183  12.232  21.282  0.00  0.00    +0.000 A 
ATOM     21  H   UNL     1       0.475   8.118  22.722  0.00  0.00    +0.000 HD
ATOM     22  H   UNL     1       1.179  10.268  20.030  0.00  0.00    +0.000 HD
ENDROOT
BRANCH  20  23
ATOM     23  C   UNL     1      -1.856  13.537  20.935  0.00  0.00    +0.000 C 
BRANCH  23  24
ATOM     24  C   UNL     1      -3.317  13.332  20.608  0.00  0.00    +0.000 A 
ATOM     25  C   UNL     1      -3.713  12.400  19.636  0.00  0.00    +0.000 A 
ATOM     26  C   UNL     1      -5.039  12.342  19.210  0.00  0.00    +0.000 A 
ATOM     27  C   UNL     1      -5.987  13.204  19.759  0.00  0.00    +0.000 A 
ATOM     28  C   UNL     1      -5.615  14.098  20.761  0.00  0.00    +0.000 A 
ATOM     29  C   UNL     1      -4.289  14.157  21.189  0.00  0.00    +0.000 A 
ENDBRANCH  23  24
ENDBRANCH  20  23
TORSDOF 2
ENDMDL
