MODEL 1
REMARK VINA RESULT:      -8.9      0.000      0.000
REMARK  Name = 
REMARK  5 active torsions:
REMARK  status: ('A' for Active; 'I' for Inactive)
REMARK    1  A    between atoms: C_1  and  C_2
REMARK    2  A    between atoms: C_2  and  N_3
REMARK    3  A    between atoms: C_2  and  C_17
REMARK    4  A    between atoms: C_4  and  C_6
REMARK    5  A    between atoms: C_21  and  N_22
REMARK                            x       y       z     vdW  Elec       q    Type
REMARK                         _______ _______ _______ _____ _____    ______ ____
ROOT
ATOM      1  N   UNL     1       5.135   3.702  18.253  0.00  0.00    +0.000 N 
ATOM      2  C   UNL     1       6.092   4.656  17.959  0.00  0.00    +0.000 C 
ATOM      3  O   UNL     1       6.645   5.372  18.770  0.00  0.00    +0.000 OA
ATOM      4  H   UNL     1       4.815   3.104  17.501  0.00  0.00    +0.000 HD
ENDROOT
BRANCH   2   5
ATOM      5  C   UNL     1       6.428   4.789  16.487  0.00  0.00    +0.000 A 
ATOM      6  N   UNL     1       7.503   5.487  16.171  0.00  0.00    +0.000 NA
ATOM      7  N   UNL     1       7.841   5.622  14.863  0.00  0.00    +0.000 N 
ATOM      8  C   UNL     1       7.266   4.841  13.848  0.00  0.00    +0.000 A 
ATOM      9  C   UNL     1       7.779   4.854  12.548  0.00  0.00    +0.000 A 
ATOM     10  C   UNL     1       7.150   4.137  11.523  0.00  0.00    +0.000 A 
ATOM     11  C   UNL     1       5.977   3.425  11.777  0.00  0.00    +0.000 A 
ATOM     12  C   UNL     1       5.437   3.422  13.058  0.00  0.00    +0.000 A 
ATOM     13  C   UNL     1       6.092   4.120  14.075  0.00  0.00    +0.000 A 
ATOM     14  C   UNL     1       5.574   4.141  15.438  0.00  0.00    +0.000 A 
ATOM     15  O   UNL     1       4.479   3.667  15.720  0.00  0.00    +0.000 OA
ATOM     16  H   UNL     1       8.796   5.941  14.678  0.00  0.00    +0.000 HD
ENDBRANCH   2   5
BRANCH   1  18
ATOM     17  C   UNL     1       4.692   1.905  19.839  0.00  0.00    +0.000 C 
ATOM     18  C   UNL     1       4.747   3.426  19.625  0.00  0.00    +0.000 C 
BRANCH  18  19
ATOM     19  C   UNL     1       3.449   4.145  19.986  0.00  0.00    +0.000 A 
ATOM     20  C   UNL     1       2.368   3.474  20.575  0.00  0.00    +0.000 A 
ATOM     21  C   UNL     1       1.188   4.154  20.896  0.00  0.00    +0.000 A 
ATOM     22  C   UNL     1       1.050   5.504  20.597  0.00  0.00    +0.000 A 
ATOM     23  C   UNL     1       2.077   6.190  19.955  0.00  0.00    +0.000 A 
ATOM     24  C   UNL     1       3.282   5.509  19.685  0.00  0.00    +0.000 A 
BRANCH  23  25
ATOM     25  N   UNL     1       1.899   7.520  19.521  0.00  0.00    +0.000 N 
ATOM     26  C   UNL     1       1.944   7.908  18.134  0.00  0.00    +0.000 C 
ATOM     27  C   UNL     1       1.965   9.420  18.189  0.00  0.00    +0.000 C 
ATOM     28  C   UNL     1       1.172   9.750  19.441  0.00  0.00    +0.000 C 
ATOM     29  C   UNL     1       1.401   8.557  20.326  0.00  0.00    +0.000 C 
ATOM     30  O   UNL     1       1.114   8.544  21.512  0.00  0.00    +0.000 OA
ENDBRANCH  23  25
ENDBRANCH  18  19
ENDBRANCH   1  18
TORSDOF 4
ENDMDL
MODEL 2
REMARK VINA RESULT:      -8.7      0.888      1.171
REMARK  Name = 
REMARK  5 active torsions:
REMARK  status: ('A' for Active; 'I' for Inactive)
REMARK    1  A    between atoms: C_1  and  C_2
REMARK    2  A    between atoms: C_2  and  N_3
REMARK    3  A    between atoms: C_2  and  C_17
REMARK    4  A    between atoms: C_4  and  C_6
REMARK    5  A    between atoms: C_21  and  N_22
REMARK                            x       y       z     vdW  Elec       q    Type
REMARK                         _______ _______ _______ _____ _____    ______ ____
ROOT
ATOM      1  N   UNL     1       5.112   3.630  18.424  0.00  0.00    +0.000 N 
ATOM      2  C   UNL     1       5.945   4.697  18.138  0.00  0.00    +0.000 C 
ATOM      3  O   UNL     1       6.361   5.501  18.947  0.00  0.00    +0.000 OA
ATOM      4  H   UNL     1       4.908   2.974  17.678  0.00  0.00    +0.000 HD
ENDROOT
BRANCH   2   5
ATOM      5  C   UNL     1       6.324   4.834  16.677  0.00  0.00    +0.000 A 
ATOM      6  N   UNL     1       7.409   5.533  16.396  0.00  0.00    +0.000 NA
ATOM      7  N   UNL     1       7.787   5.673  15.100  0.00  0.00    +0.000 N 
ATOM      8  C   UNL     1       7.241   4.897  14.065  0.00  0.00    +0.000 A 
ATOM      9  C   UNL     1       7.792   4.915  12.781  0.00  0.00    +0.000 A 
ATOM     10  C   UNL     1       7.195   4.202  11.735  0.00  0.00    +0.000 A 
ATOM     11  C   UNL     1       6.014   3.489  11.950  0.00  0.00    +0.000 A 
ATOM     12  C   UNL     1       5.436   3.482  13.215  0.00  0.00    +0.000 A 
ATOM     13  C   UNL     1       6.060   4.176  14.254  0.00  0.00    +0.000 A 
ATOM     14  C   UNL     1       5.502   4.192  15.601  0.00  0.00    +0.000 A 
ATOM     15  O   UNL     1       4.399   3.717  15.849  0.00  0.00    +0.000 OA
ATOM     16  H   UNL     1       8.746   5.992  14.944  0.00  0.00    +0.000 HD
ENDBRANCH   2   5
BRANCH   1  18
ATOM     17  C   UNL     1       4.831   1.830  20.043  0.00  0.00    +0.000 C 
ATOM     18  C   UNL     1       4.704   3.340  19.787  0.00  0.00    +0.000 C 
BRANCH  18  19
ATOM     19  C   UNL     1       3.312   3.897  20.076  0.00  0.00    +0.000 A 
ATOM     20  C   UNL     1       2.212   3.060  20.312  0.00  0.00    +0.000 A 
ATOM     21  C   UNL     1       0.945   3.593  20.573  0.00  0.00    +0.000 A 
ATOM     22  C   UNL     1       0.745   4.969  20.563  0.00  0.00    +0.000 A 
ATOM     23  C   UNL     1       1.799   5.830  20.272  0.00  0.00    +0.000 A 
ATOM     24  C   UNL     1       3.082   5.285  20.062  0.00  0.00    +0.000 A 
BRANCH  23  25
ATOM     25  N   UNL     1       1.581   7.215  20.121  0.00  0.00    +0.000 N 
ATOM     26  C   UNL     1       1.278   8.090  21.225  0.00  0.00    +0.000 C 
ATOM     27  C   UNL     1       0.879   9.385  20.552  0.00  0.00    +0.000 C 
ATOM     28  C   UNL     1       1.702   9.402  19.277  0.00  0.00    +0.000 C 
ATOM     29  C   UNL     1       1.889   7.945  18.961  0.00  0.00    +0.000 C 
ATOM     30  O   UNL     1       2.307   7.546  17.885  0.00  0.00    +0.000 OA
ENDBRANCH  23  25
ENDBRANCH  18  19
ENDBRANCH   1  18
TORSDOF 4
ENDMDL
MODEL 3
REMARK VINA RESULT:      -8.5      1.710      3.041
REMARK  Name = 
REMARK  5 active torsions:
REMARK  status: ('A' for Active; 'I' for Inactive)
REMARK    1  A    between atoms: C_1  and  C_2
REMARK    2  A    between atoms: C_2  and  N_3
REMARK    3  A    between atoms: C_2  and  C_17
REMARK    4  A    between atoms: C_4  and  C_6
REMARK    5  A    between atoms: C_21  and  N_22
REMARK                            x       y       z     vdW  Elec       q    Type
REMARK                         _______ _______ _______ _____ _____    ______ ____
ROOT
ATOM      1  N   UNL     1       4.057   5.972  17.756  0.00  0.00    +0.000 N 
ATOM      2  C   UNL     1       5.397   5.630  17.709  0.00  0.00    +0.000 C 
ATOM      3  O   UNL     1       6.132   5.534  18.671  0.00  0.00    +0.000 OA
ATOM      4  H   UNL     1       3.527   5.929  16.893  0.00  0.00    +0.000 HD
ENDROOT
BRANCH   2   5
ATOM      5  C   UNL     1       5.943   5.382  16.317  0.00  0.00    +0.000 A 
ATOM      6  N   UNL     1       7.136   5.874  16.038  0.00  0.00    +0.000 NA
ATOM      7  N   UNL     1       7.663   5.666  14.804  0.00  0.00    +0.000 N 
ATOM      8  C   UNL     1       7.128   4.734  13.899  0.00  0.00    +0.000 A 
ATOM      9  C   UNL     1       7.808   4.393  12.727  0.00  0.00    +0.000 A 
ATOM     10  C   UNL     1       7.232   3.526  11.792  0.00  0.00    +0.000 A 
ATOM     11  C   UNL     1       5.949   3.017  11.998  0.00  0.00    +0.000 A 
ATOM     12  C   UNL     1       5.245   3.367  13.145  0.00  0.00    +0.000 A 
ATOM     13  C   UNL     1       5.847   4.211  14.082  0.00  0.00    +0.000 A 
ATOM     14  C   UNL     1       5.158   4.601  15.306  0.00  0.00    +0.000 A 
ATOM     15  O   UNL     1       3.980   4.321  15.502  0.00  0.00    +0.000 OA
ATOM     16  H   UNL     1       8.668   5.833  14.712  0.00  0.00    +0.000 HD
ENDBRANCH   2   5
BRANCH   1  18
ATOM     17  C   UNL     1       2.572   4.935  19.386  0.00  0.00    +0.000 C 
ATOM     18  C   UNL     1       3.382   6.190  19.022  0.00  0.00    +0.000 C 
BRANCH  18  19
ATOM     19  C   UNL     1       2.550   7.470  18.990  0.00  0.00    +0.000 A 
ATOM     20  C   UNL     1       2.534   8.318  17.873  0.00  0.00    +0.000 A 
ATOM     21  C   UNL     1       1.765   9.487  17.867  0.00  0.00    +0.000 A 
ATOM     22  C   UNL     1       1.032   9.852  18.990  0.00  0.00    +0.000 A 
ATOM     23  C   UNL     1       1.071   9.068  20.140  0.00  0.00    +0.000 A 
ATOM     24  C   UNL     1       1.806   7.866  20.117  0.00  0.00    +0.000 A 
BRANCH  23  25
ATOM     25  N   UNL     1       0.447   9.497  21.330  0.00  0.00    +0.000 N 
ATOM     26  C   UNL     1       0.953   9.186  22.642  0.00  0.00    +0.000 C 
ATOM     27  C   UNL     1      -0.164   9.619  23.566  0.00  0.00    +0.000 C 
ATOM     28  C   UNL     1      -0.806  10.787  22.839  0.00  0.00    +0.000 C 
ATOM     29  C   UNL     1      -0.559  10.475  21.390  0.00  0.00    +0.000 C 
ATOM     30  O   UNL     1      -1.120  11.063  20.478  0.00  0.00    +0.000 OA
ENDBRANCH  23  25
ENDBRANCH  18  19
ENDBRANCH   1  18
TORSDOF 4
ENDMDL
MODEL 4
REMARK VINA RESULT:      -8.4      1.962      3.392
REMARK  Name = 
REMARK  5 active torsions:
REMARK  status: ('A' for Active; 'I' for Inactive)
REMARK    1  A    between atoms: C_1  and  C_2
REMARK    2  A    between atoms: C_2  and  N_3
REMARK    3  A    between atoms: C_2  and  C_17
REMARK    4  A    between atoms: C_4  and  C_6
REMARK    5  A    between atoms: C_21  and  N_22
REMARK                            x       y       z     vdW  Elec       q    Type
REMARK                         _______ _______ _______ _____ _____    ______ ____
ROOT
ATOM      1  N   UNL     1       3.794   5.576  18.236  0.00  0.00    +0.000 N 
ATOM      2  C   UNL     1       5.161   5.470  18.059  0.00  0.00    +0.000 C 
ATOM      3  O   UNL     1       6.004   5.814  18.864  0.00  0.00    +0.000 OA
ATOM      4  H   UNL     1       3.191   5.169  17.529  0.00  0.00    +0.000 HD
ENDROOT
BRANCH   2   5
ATOM      5  C   UNL     1       5.588   4.884  16.728  0.00  0.00    +0.000 A 
ATOM      6  N   UNL     1       4.952   3.805  16.309  0.00  0.00    +0.000 NA
ATOM      7  N   UNL     1       5.301   3.255  15.118  0.00  0.00    +0.000 N 
ATOM      8  C   UNL     1       6.113   3.920  14.185  0.00  0.00    +0.000 A 
ATOM      9  C   UNL     1       6.283   3.422  12.891  0.00  0.00    +0.000 A 
ATOM     10  C   UNL     1       7.158   4.046  11.993  0.00  0.00    +0.000 A 
ATOM     11  C   UNL     1       7.904   5.156  12.391  0.00  0.00    +0.000 A 
ATOM     12  C   UNL     1       7.769   5.649  13.684  0.00  0.00    +0.000 A 
ATOM     13  C   UNL     1       6.870   5.032  14.558  0.00  0.00    +0.000 A 
ATOM     14  C   UNL     1       6.682   5.515  15.920  0.00  0.00    +0.000 A 
ATOM     15  O   UNL     1       7.396   6.389  16.400  0.00  0.00    +0.000 OA
ATOM     16  H   UNL     1       4.631   2.593  14.717  0.00  0.00    +0.000 HD
ENDBRANCH   2   5
BRANCH   1  18
ATOM     17  C   UNL     1       2.414   4.955  20.146  0.00  0.00    +0.000 C 
ATOM     18  C   UNL     1       3.234   6.072  19.480  0.00  0.00    +0.000 C 
BRANCH  18  19
ATOM     19  C   UNL     1       2.447   7.361  19.255  0.00  0.00    +0.000 A 
ATOM     20  C   UNL     1       2.522   8.077  18.052  0.00  0.00    +0.000 A 
ATOM     21  C   UNL     1       1.792   9.257  17.870  0.00  0.00    +0.000 A 
ATOM     22  C   UNL     1       1.007   9.764  18.899  0.00  0.00    +0.000 A 
ATOM     23  C   UNL     1       0.955   9.115  20.129  0.00  0.00    +0.000 A 
ATOM     24  C   UNL     1       1.652   7.899  20.284  0.00  0.00    +0.000 A 
BRANCH  23  25
ATOM     25  N   UNL     1       0.276   9.690  21.223  0.00  0.00    +0.000 N 
ATOM     26  C   UNL     1       0.598   9.392  22.595  0.00  0.00    +0.000 C 
ATOM     27  C   UNL     1      -0.537  10.021  23.372  0.00  0.00    +0.000 C 
ATOM     28  C   UNL     1      -0.935  11.219  22.529  0.00  0.00    +0.000 C 
ATOM     29  C   UNL     1      -0.586  10.794  21.130  0.00  0.00    +0.000 C 
ATOM     30  O   UNL     1      -0.966  11.397  20.138  0.00  0.00    +0.000 OA
ENDBRANCH  23  25
ENDBRANCH  18  19
ENDBRANCH   1  18
TORSDOF 4
ENDMDL
MODEL 5
REMARK VINA RESULT:      -8.2      3.892      9.344
REMARK  Name = 
REMARK  5 active torsions:
REMARK  status: ('A' for Active; 'I' for Inactive)
REMARK    1  A    between atoms: C_1  and  C_2
REMARK    2  A    between atoms: C_2  and  N_3
REMARK    3  A    between atoms: C_2  and  C_17
REMARK    4  A    between atoms: C_4  and  C_6
REMARK    5  A    between atoms: C_21  and  N_22
REMARK                            x       y       z     vdW  Elec       q    Type
REMARK                         _______ _______ _______ _____ _____    ______ ____
ROOT
ATOM      1  N   UNL     1       1.000  10.317  20.002  0.00  0.00    +0.000 N 
ATOM      2  C   UNL     1      -0.096  10.917  19.411  0.00  0.00    +0.000 C 
ATOM      3  O   UNL     1      -1.137  10.357  19.127  0.00  0.00    +0.000 OA
ATOM      4  H   UNL     1       1.776  10.910  20.274  0.00  0.00    +0.000 HD
ENDROOT
BRANCH   2   5
ATOM      5  C   UNL     1       0.075  12.390  19.098  0.00  0.00    +0.000 A 
ATOM      6  N   UNL     1      -0.970  13.175  19.288  0.00  0.00    +0.000 NA
ATOM      7  N   UNL     1      -0.855  14.502  19.027  0.00  0.00    +0.000 N 
ATOM      8  C   UNL     1       0.386  15.128  18.822  0.00  0.00    +0.000 A 
ATOM      9  C   UNL     1       0.491  16.520  18.763  0.00  0.00    +0.000 A 
ATOM     10  C   UNL     1       1.717  17.134  18.477  0.00  0.00    +0.000 A 
ATOM     11  C   UNL     1       2.847  16.361  18.209  0.00  0.00    +0.000 A 
ATOM     12  C   UNL     1       2.755  14.974  18.236  0.00  0.00    +0.000 A 
ATOM     13  C   UNL     1       1.532  14.378  18.551  0.00  0.00    +0.000 A 
ATOM     14  C   UNL     1       1.383  12.929  18.603  0.00  0.00    +0.000 A 
ATOM     15  O   UNL     1       2.280  12.174  18.243  0.00  0.00    +0.000 OA
ATOM     16  H   UNL     1      -1.584  15.102  19.421  0.00  0.00    +0.000 HD
ENDBRANCH   2   5
BRANCH   1  18
ATOM     17  C   UNL     1       1.283   8.822  21.907  0.00  0.00    +0.000 C 
ATOM     18  C   UNL     1       0.967   8.923  20.405  0.00  0.00    +0.000 C 
BRANCH  18  19
ATOM     19  C   UNL     1       1.882   8.073  19.527  0.00  0.00    +0.000 A 
ATOM     20  C   UNL     1       2.348   8.524  18.284  0.00  0.00    +0.000 A 
ATOM     21  C   UNL     1       3.185   7.727  17.496  0.00  0.00    +0.000 A 
ATOM     22  C   UNL     1       3.538   6.450  17.915  0.00  0.00    +0.000 A 
ATOM     23  C   UNL     1       3.045   5.942  19.114  0.00  0.00    +0.000 A 
ATOM     24  C   UNL     1       2.246   6.773  19.925  0.00  0.00    +0.000 A 
BRANCH  23  25
ATOM     25  N   UNL     1       3.280   4.601  19.483  0.00  0.00    +0.000 N 
ATOM     26  C   UNL     1       2.230   3.623  19.610  0.00  0.00    +0.000 C 
ATOM     27  C   UNL     1       2.918   2.445  20.263  0.00  0.00    +0.000 C 
ATOM     28  C   UNL     1       4.345   2.526  19.750  0.00  0.00    +0.000 C 
ATOM     29  C   UNL     1       4.547   3.996  19.509  0.00  0.00    +0.000 C 
ATOM     30  O   UNL     1       5.645   4.492  19.307  0.00  0.00    +0.000 OA
ENDBRANCH  23  25
ENDBRANCH  18  19
ENDBRANCH   1  18
TORSDOF 4
ENDMDL
MODEL 6
REMARK VINA RESULT:      -8.2      1.919      3.462
REMARK  Name = 
REMARK  5 active torsions:
REMARK  status: ('A' for Active; 'I' for Inactive)
REMARK    1  A    between atoms: C_1  and  C_2
REMARK    2  A    between atoms: C_2  and  N_3
REMARK    3  A    between atoms: C_2  and  C_17
REMARK    4  A    between atoms: C_4  and  C_6
REMARK    5  A    between atoms: C_21  and  N_22
REMARK                            x       y       z     vdW  Elec       q    Type
REMARK                         _______ _______ _______ _____ _____    ______ ____
ROOT
ATOM      1  N   UNL     1       3.684   5.846  18.214  0.00  0.00    +0.000 N 
ATOM      2  C   UNL     1       5.026   5.525  18.118  0.00  0.00    +0.000 C 
ATOM      3  O   UNL     1       5.854   5.696  18.990  0.00  0.00    +0.000 OA
ATOM      4  H   UNL     1       3.075   5.571  17.452  0.00  0.00    +0.000 HD
ENDROOT
BRANCH   2   5
ATOM      5  C   UNL     1       5.445   4.930  16.789  0.00  0.00    +0.000 A 
ATOM      6  N   UNL     1       4.759   3.892  16.346  0.00  0.00    +0.000 NA
ATOM      7  N   UNL     1       5.099   3.336  15.156  0.00  0.00    +0.000 N 
ATOM      8  C   UNL     1       5.964   3.964  14.246  0.00  0.00    +0.000 A 
ATOM      9  C   UNL     1       6.132   3.471  12.949  0.00  0.00    +0.000 A 
ATOM     10  C   UNL     1       7.057   4.054  12.075  0.00  0.00    +0.000 A 
ATOM     11  C   UNL     1       7.855   5.117  12.499  0.00  0.00    +0.000 A 
ATOM     12  C   UNL     1       7.722   5.604  13.795  0.00  0.00    +0.000 A 
ATOM     13  C   UNL     1       6.775   5.029  14.645  0.00  0.00    +0.000 A 
ATOM     14  C   UNL     1       6.587   5.508  16.009  0.00  0.00    +0.000 A 
ATOM     15  O   UNL     1       7.339   6.336  16.512  0.00  0.00    +0.000 OA
ATOM     16  H   UNL     1       4.402   2.716  14.735  0.00  0.00    +0.000 HD
ENDBRANCH   2   5
BRANCH   1  18
ATOM     17  C   UNL     1       2.312   5.278  20.147  0.00  0.00    +0.000 C 
ATOM     18  C   UNL     1       3.125   6.377  19.444  0.00  0.00    +0.000 C 
BRANCH  18  19
ATOM     19  C   UNL     1       2.331   7.655  19.182  0.00  0.00    +0.000 A 
ATOM     20  C   UNL     1       2.367   8.311  17.943  0.00  0.00    +0.000 A 
ATOM     21  C   UNL     1       1.632   9.482  17.727  0.00  0.00    +0.000 A 
ATOM     22  C   UNL     1       0.881  10.041  18.755  0.00  0.00    +0.000 A 
ATOM     23  C   UNL     1       0.870   9.454  20.017  0.00  0.00    +0.000 A 
ATOM     24  C   UNL     1       1.571   8.246  20.209  0.00  0.00    +0.000 A 
BRANCH  23  25
ATOM     25  N   UNL     1       0.229  10.084  21.103  0.00  0.00    +0.000 N 
ATOM     26  C   UNL     1      -0.003  11.504  21.164  0.00  0.00    +0.000 C 
ATOM     27  C   UNL     1      -0.463  11.728  22.589  0.00  0.00    +0.000 C 
ATOM     28  C   UNL     1      -1.180  10.439  22.947  0.00  0.00    +0.000 C 
ATOM     29  C   UNL     1      -0.486   9.406  22.104  0.00  0.00    +0.000 C 
ATOM     30  O   UNL     1      -0.625   8.205  22.276  0.00  0.00    +0.000 OA
ENDBRANCH  23  25
ENDBRANCH  18  19
ENDBRANCH   1  18
TORSDOF 4
ENDMDL
MODEL 7
REMARK VINA RESULT:      -8.2      4.575      9.375
REMARK  Name = 
REMARK  5 active torsions:
REMARK  status: ('A' for Active; 'I' for Inactive)
REMARK    1  A    between atoms: C_1  and  C_2
REMARK    2  A    between atoms: C_2  and  N_3
REMARK    3  A    between atoms: C_2  and  C_17
REMARK    4  A    between atoms: C_4  and  C_6
REMARK    5  A    between atoms: C_21  and  N_22
REMARK                            x       y       z     vdW  Elec       q    Type
REMARK                         _______ _______ _______ _____ _____    ______ ____
ROOT
ATOM      1  N   UNL     1       0.837  10.620  20.384  0.00  0.00    +0.000 N 
ATOM      2  C   UNL     1      -0.171  11.184  19.623  0.00  0.00    +0.000 C 
ATOM      3  O   UNL     1      -1.189  10.620  19.274  0.00  0.00    +0.000 OA
ATOM      4  H   UNL     1       1.595  11.221  20.688  0.00  0.00    +0.000 HD
ENDROOT
BRANCH   2   5
ATOM      5  C   UNL     1       0.075  12.620  19.204  0.00  0.00    +0.000 A 
ATOM      6  N   UNL     1      -0.923  13.472  19.350  0.00  0.00    +0.000 NA
ATOM      7  N   UNL     1      -0.740  14.769  18.993  0.00  0.00    +0.000 N 
ATOM      8  C   UNL     1       0.529  15.310  18.729  0.00  0.00    +0.000 A 
ATOM      9  C   UNL     1       0.708  16.686  18.569  0.00  0.00    +0.000 A 
ATOM     10  C   UNL     1       1.961  17.210  18.225  0.00  0.00    +0.000 A 
ATOM     11  C   UNL     1       3.043  16.359  18.000  0.00  0.00    +0.000 A 
ATOM     12  C   UNL     1       2.877  14.984  18.127  0.00  0.00    +0.000 A 
ATOM     13  C   UNL     1       1.628  14.480  18.498  0.00  0.00    +0.000 A 
ATOM     14  C   UNL     1       1.402  13.049  18.656  0.00  0.00    +0.000 A 
ATOM     15  O   UNL     1       2.251  12.222  18.340  0.00  0.00    +0.000 OA
ATOM     16  H   UNL     1      -1.429  15.434  19.352  0.00  0.00    +0.000 HD
ENDBRANCH   2   5
BRANCH   1  18
ATOM     17  C   UNL     1       1.174   9.248  22.370  0.00  0.00    +0.000 C 
ATOM     18  C   UNL     1       0.721   9.269  20.901  0.00  0.00    +0.000 C 
BRANCH  18  19
ATOM     19  C   UNL     1       1.465   8.273  20.015  0.00  0.00    +0.000 A 
ATOM     20  C   UNL     1       2.048   8.653  18.798  0.00  0.00    +0.000 A 
ATOM     21  C   UNL     1       2.724   7.722  18.001  0.00  0.00    +0.000 A 
ATOM     22  C   UNL     1       2.794   6.388  18.384  0.00  0.00    +0.000 A 
ATOM     23  C   UNL     1       2.175   5.960  19.555  0.00  0.00    +0.000 A 
ATOM     24  C   UNL     1       1.542   6.915  20.377  0.00  0.00    +0.000 A 
BRANCH  23  25
ATOM     25  N   UNL     1       2.119   4.590  19.885  0.00  0.00    +0.000 N 
ATOM     26  C   UNL     1       2.288   4.095  21.227  0.00  0.00    +0.000 C 
ATOM     27  C   UNL     1       2.409   2.598  21.042  0.00  0.00    +0.000 C 
ATOM     28  C   UNL     1       1.552   2.313  19.821  0.00  0.00    +0.000 C 
ATOM     29  C   UNL     1       1.636   3.587  19.029  0.00  0.00    +0.000 C 
ATOM     30  O   UNL     1       1.264   3.674  17.869  0.00  0.00    +0.000 OA
ENDBRANCH  23  25
ENDBRANCH  18  19
ENDBRANCH   1  18
TORSDOF 4
ENDMDL
MODEL 8
REMARK VINA RESULT:      -8.1      5.092      8.419
REMARK  Name = 
REMARK  5 active torsions:
REMARK  status: ('A' for Active; 'I' for Inactive)
REMARK    1  A    between atoms: C_1  and  C_2
REMARK    2  A    between atoms: C_2  and  N_3
REMARK    3  A    between atoms: C_2  and  C_17
REMARK    4  A    between atoms: C_4  and  C_6
REMARK    5  A    between atoms: C_21  and  N_22
REMARK                            x       y       z     vdW  Elec       q    Type
REMARK                         _______ _______ _______ _____ _____    ______ ____
ROOT
ATOM      1  N   UNL     1      -0.310  10.036  19.452  0.00  0.00    +0.000 N 
ATOM      2  C   UNL     1       1.017   9.921  19.080  0.00  0.00    +0.000 C 
ATOM      3  O   UNL     1       1.677  10.791  18.546  0.00  0.00    +0.000 OA
ATOM      4  H   UNL     1      -0.724   9.272  19.973  0.00  0.00    +0.000 HD
ENDROOT
BRANCH   2   5
ATOM      5  C   UNL     1       1.646   8.572  19.370  0.00  0.00    +0.000 A 
ATOM      6  N   UNL     1       1.471   8.070  20.579  0.00  0.00    +0.000 NA
ATOM      7  N   UNL     1       2.012   6.861  20.876  0.00  0.00    +0.000 N 
ATOM      8  C   UNL     1       2.519   5.997  19.892  0.00  0.00    +0.000 A 
ATOM      9  C   UNL     1       2.876   4.681  20.201  0.00  0.00    +0.000 A 
ATOM     10  C   UNL     1       3.455   3.851  19.234  0.00  0.00    +0.000 A 
ATOM     11  C   UNL     1       3.721   4.337  17.953  0.00  0.00    +0.000 A 
ATOM     12  C   UNL     1       3.397   5.652  17.635  0.00  0.00    +0.000 A 
ATOM     13  C   UNL     1       2.794   6.458  18.603  0.00  0.00    +0.000 A 
ATOM     14  C   UNL     1       2.425   7.840  18.319  0.00  0.00    +0.000 A 
ATOM     15  O   UNL     1       2.749   8.394  17.274  0.00  0.00    +0.000 OA
ATOM     16  H   UNL     1       1.648   6.400  21.713  0.00  0.00    +0.000 HD
ENDBRANCH   2   5
BRANCH   1  18
ATOM     17  C   UNL     1      -1.431  11.829  20.664  0.00  0.00    +0.000 C 
ATOM     18  C   UNL     1      -1.031  11.284  19.283  0.00  0.00    +0.000 C 
BRANCH  18  19
ATOM     19  C   UNL     1      -2.208  11.116  18.325  0.00  0.00    +0.000 A 
ATOM     20  C   UNL     1      -2.093  10.396  17.127  0.00  0.00    +0.000 A 
ATOM     21  C   UNL     1      -3.185  10.256  16.264  0.00  0.00    +0.000 A 
ATOM     22  C   UNL     1      -4.399  10.866  16.560  0.00  0.00    +0.000 A 
ATOM     23  C   UNL     1      -4.534  11.640  17.709  0.00  0.00    +0.000 A 
ATOM     24  C   UNL     1      -3.444  11.731  18.598  0.00  0.00    +0.000 A 
BRANCH  23  25
ATOM     25  N   UNL     1      -5.712  12.377  17.951  0.00  0.00    +0.000 N 
ATOM     26  C   UNL     1      -6.339  13.209  16.957  0.00  0.00    +0.000 C 
ATOM     27  C   UNL     1      -7.382  13.975  17.741  0.00  0.00    +0.000 C 
ATOM     28  C   UNL     1      -7.788  13.013  18.843  0.00  0.00    +0.000 C 
ATOM     29  C   UNL     1      -6.550  12.190  19.062  0.00  0.00    +0.000 C 
ATOM     30  O   UNL     1      -6.402  11.455  20.027  0.00  0.00    +0.000 OA
ENDBRANCH  23  25
ENDBRANCH  18  19
ENDBRANCH   1  18
TORSDOF 4
ENDMDL
MODEL 9
REMARK VINA RESULT:      -8.1      3.813     10.257
REMARK  Name = 
REMARK  5 active torsions:
REMARK  status: ('A' for Active; 'I' for Inactive)
REMARK    1  A    between atoms: C_1  and  C_2
REMARK    2  A    between atoms: C_2  and  N_3
REMARK    3  A    between atoms: C_2  and  C_17
REMARK    4  A    between atoms: C_4  and  C_6
REMARK    5  A    between atoms: C_21  and  N_22
REMARK                            x       y       z     vdW  Elec       q    Type
REMARK                         _______ _______ _______ _____ _____    ______ ____
ROOT
ATOM      1  N   UNL     1       0.781   9.496  19.903  0.00  0.00    +0.000 N 
ATOM      2  C   UNL     1       0.684  10.828  20.263  0.00  0.00    +0.000 C 
ATOM      3  O   UNL     1       1.440  11.710  19.907  0.00  0.00    +0.000 OA
ATOM      4  H   UNL     1       0.036   8.872  20.191  0.00  0.00    +0.000 HD
ENDROOT
BRANCH   2   5
ATOM      5  C   UNL     1      -0.469  11.155  21.191  0.00  0.00    +0.000 A 
ATOM      6  N   UNL     1      -0.371  10.751  22.445  0.00  0.00    +0.000 NA
ATOM      7  N   UNL     1      -1.380  11.031  23.309  0.00  0.00    +0.000 N 
ATOM      8  C   UNL     1      -2.395  11.954  23.013  0.00  0.00    +0.000 A 
ATOM      9  C   UNL     1      -3.297  12.376  23.994  0.00  0.00    +0.000 A 
ATOM     10  C   UNL     1      -4.356  13.233  23.673  0.00  0.00    +0.000 A 
ATOM     11  C   UNL     1      -4.550  13.651  22.356  0.00  0.00    +0.000 A 
ATOM     12  C   UNL     1      -3.680  13.220  21.361  0.00  0.00    +0.000 A 
ATOM     13  C   UNL     1      -2.612  12.388  21.704  0.00  0.00    +0.000 A 
ATOM     14  C   UNL     1      -1.664  11.916  20.701  0.00  0.00    +0.000 A 
ATOM     15  O   UNL     1      -1.838  12.113  19.504  0.00  0.00    +0.000 OA
ATOM     16  H   UNL     1      -1.158  10.932  24.303  0.00  0.00    +0.000 HD
ENDBRANCH   2   5
BRANCH   1  18
ATOM     17  C   UNL     1       1.304   9.229  17.538  0.00  0.00    +0.000 C 
ATOM     18  C   UNL     1       1.804   9.040  18.980  0.00  0.00    +0.000 C 
BRANCH  18  19
ATOM     19  C   UNL     1       2.237   7.611  19.297  0.00  0.00    +0.000 A 
ATOM     20  C   UNL     1       1.699   6.894  20.376  0.00  0.00    +0.000 A 
ATOM     21  C   UNL     1       2.112   5.585  20.648  0.00  0.00    +0.000 A 
ATOM     22  C   UNL     1       3.098   4.984  19.875  0.00  0.00    +0.000 A 
ATOM     23  C   UNL     1       3.700   5.685  18.834  0.00  0.00    +0.000 A 
ATOM     24  C   UNL     1       3.239   6.983  18.535  0.00  0.00    +0.000 A 
BRANCH  23  25
ATOM     25  N   UNL     1       4.796   5.140  18.132  0.00  0.00    +0.000 N 
ATOM     26  C   UNL     1       4.768   4.868  16.718  0.00  0.00    +0.000 C 
ATOM     27  C   UNL     1       6.033   4.070  16.485  0.00  0.00    +0.000 C 
ATOM     28  C   UNL     1       7.000   4.608  17.525  0.00  0.00    +0.000 C 
ATOM     29  C   UNL     1       6.100   5.050  18.644  0.00  0.00    +0.000 C 
ATOM     30  O   UNL     1       6.514   5.332  19.758  0.00  0.00    +0.000 OA
ENDBRANCH  23  25
ENDBRANCH  18  19
ENDBRANCH   1  18
TORSDOF 4
ENDMDL
