MODEL 1
REMARK VINA RESULT:      -7.1      0.000      0.000
REMARK  Name = 
REMARK  8 active torsions:
REMARK  status: ('A' for Active; 'I' for Inactive)
REMARK    1  A    between atoms: C_1  and  C_2
REMARK    2  A    between atoms: C_2  and  C_3
REMARK    3  A    between atoms: N_12  and  C_13
REMARK    4  A    between atoms: N_21  and  C_22
REMARK    5  A    between atoms: C_22  and  C_23
REMARK    6  A    between atoms: C_23  and  O_24
REMARK    7  A    between atoms: C_23  and  C_25
REMARK    8  A    between atoms: C_25  and  O_26
REMARK                            x       y       z     vdW  Elec       q    Type
REMARK                         _______ _______ _______ _____ _____    ______ ____
ROOT
ATOM      1  C   UNL     1       2.522   6.626  18.905  0.00  0.00    +0.000 A 
ATOM      2  N   UNL     1       3.009   7.134  17.732  0.00  0.00    +0.000 NA
ATOM      3  C   UNL     1       2.844   8.447  17.455  0.00  0.00    +0.000 A 
ATOM      4  N   UNL     1       2.221   9.385  18.194  0.00  0.00    +0.000 NA
ATOM      5  C   UNL     1       1.744   8.847  19.324  0.00  0.00    +0.000 A 
ATOM      6  C   UNL     1       1.834   7.535  19.751  0.00  0.00    +0.000 A 
ATOM      7  N   UNL     1       1.220   7.385  20.981  0.00  0.00    +0.000 NA
ATOM      8  C   UNL     1       0.790   8.588  21.303  0.00  0.00    +0.000 A 
ATOM      9  N   UNL     1       1.063   9.499  20.325  0.00  0.00    +0.000 N 
ENDROOT
BRANCH   1  14
ATOM     10  C   UNL     1       3.432   1.939  17.840  0.00  0.00    +0.000 C 
ATOM     11  C   UNL     1       3.770   3.405  18.174  0.00  0.00    +0.000 C 
ATOM     12  C   UNL     1       4.227   3.520  19.648  0.00  0.00    +0.000 C 
ATOM     13  C   UNL     1       3.837   4.937  20.066  0.00  0.00    +0.000 C 
ATOM     14  N   UNL     1       2.705   5.285  19.211  0.00  0.00    +0.000 N 
ATOM     15  C   UNL     1       2.455   4.238  18.221  0.00  0.00    +0.000 C 
BRANCH  11  16
ATOM     16  C   UNL     1       4.858   3.912  17.207  0.00  0.00    +0.000 A 
ATOM     17  C   UNL     1       6.157   4.251  17.630  0.00  0.00    +0.000 A 
ATOM     18  C   UNL     1       7.114   4.735  16.731  0.00  0.00    +0.000 A 
ATOM     19  C   UNL     1       6.788   4.886  15.393  0.00  0.00    +0.000 A 
ATOM     20  F   UNL     1       7.703   5.351  14.535  0.00  0.00    +0.000 F 
ATOM     21  C   UNL     1       5.517   4.565  14.938  0.00  0.00    +0.000 A 
ATOM     22  C   UNL     1       4.561   4.081  15.838  0.00  0.00    +0.000 A 
ENDBRANCH  11  16
ENDBRANCH   1  14
BRANCH   9  23
ATOM     23  C   UNL     1       0.764  10.913  20.388  0.00  0.00    +0.000 C 
BRANCH  23  24
ATOM     24  C   UNL     1      -0.162  11.433  19.279  0.00  0.00    +0.000 C 
BRANCH  24  25
ATOM     25  O   UNL     1       0.569  11.980  18.178  0.00  0.00    +0.000 OA
ATOM     26  H   UNL     1       0.219  11.600  17.347  0.00  0.00    +0.000 HD
ENDBRANCH  24  25
BRANCH  24  27
ATOM     27  C   UNL     1      -1.169  10.390  18.771  0.00  0.00    +0.000 C 
BRANCH  27  28
ATOM     28  O   UNL     1      -0.890  10.000  17.426  0.00  0.00    +0.000 OA
ATOM     29  H   UNL     1      -1.046   9.040  17.348  0.00  0.00    +0.000 HD
ENDBRANCH  27  28
ENDBRANCH  24  27
ENDBRANCH  23  24
ENDBRANCH   9  23
TORSDOF 7
ENDMDL
MODEL 2
REMARK VINA RESULT:      -7.1      1.864      2.805
REMARK  Name = 
REMARK  8 active torsions:
REMARK  status: ('A' for Active; 'I' for Inactive)
REMARK    1  A    between atoms: C_1  and  C_2
REMARK    2  A    between atoms: C_2  and  C_3
REMARK    3  A    between atoms: N_12  and  C_13
REMARK    4  A    between atoms: N_21  and  C_22
REMARK    5  A    between atoms: C_22  and  C_23
REMARK    6  A    between atoms: C_23  and  O_24
REMARK    7  A    between atoms: C_23  and  C_25
REMARK    8  A    between atoms: C_25  and  O_26
REMARK                            x       y       z     vdW  Elec       q    Type
REMARK                         _______ _______ _______ _____ _____    ______ ____
ROOT
ATOM      1  C   UNL     1       2.261   6.194  19.498  0.00  0.00    +0.000 A 
ATOM      2  N   UNL     1       1.756   6.135  20.768  0.00  0.00    +0.000 NA
ATOM      3  C   UNL     1       1.246   7.251  21.335  0.00  0.00    +0.000 A 
ATOM      4  N   UNL     1       1.168   8.491  20.817  0.00  0.00    +0.000 NA
ATOM      5  C   UNL     1       1.686   8.513  19.582  0.00  0.00    +0.000 A 
ATOM      6  C   UNL     1       2.237   7.465  18.867  0.00  0.00    +0.000 A 
ATOM      7  N   UNL     1       2.652   7.898  17.621  0.00  0.00    +0.000 NA
ATOM      8  C   UNL     1       2.334   9.175  17.574  0.00  0.00    +0.000 A 
ATOM      9  N   UNL     1       1.770   9.598  18.741  0.00  0.00    +0.000 N 
ENDROOT
BRANCH   1  14
ATOM     10  C   UNL     1       4.999   3.751  16.265  0.00  0.00    +0.000 C 
ATOM     11  C   UNL     1       4.688   4.499  17.576  0.00  0.00    +0.000 C 
ATOM     12  C   UNL     1       4.544   3.489  18.739  0.00  0.00    +0.000 C 
ATOM     13  C   UNL     1       3.582   4.159  19.719  0.00  0.00    +0.000 C 
ATOM     14  N   UNL     1       2.767   5.050  18.897  0.00  0.00    +0.000 N 
ATOM     15  C   UNL     1       3.239   5.065  17.513  0.00  0.00    +0.000 C 
BRANCH  11  16
ATOM     16  C   UNL     1       5.805   5.524  17.856  0.00  0.00    +0.000 A 
ATOM     17  C   UNL     1       5.903   6.751  17.173  0.00  0.00    +0.000 A 
ATOM     18  C   UNL     1       6.945   7.648  17.431  0.00  0.00    +0.000 A 
ATOM     19  C   UNL     1       7.907   7.332  18.376  0.00  0.00    +0.000 A 
ATOM     20  F   UNL     1       8.905   8.190  18.621  0.00  0.00    +0.000 F 
ATOM     21  C   UNL     1       7.847   6.132  19.069  0.00  0.00    +0.000 A 
ATOM     22  C   UNL     1       6.804   5.236  18.810  0.00  0.00    +0.000 A 
ENDBRANCH  11  16
ENDBRANCH   1  14
BRANCH   9  23
ATOM     23  C   UNL     1       1.268  10.931  18.998  0.00  0.00    +0.000 C 
BRANCH  23  24
ATOM     24  C   UNL     1      -0.245  11.104  18.806  0.00  0.00    +0.000 C 
BRANCH  24  25
ATOM     25  O   UNL     1      -0.987  10.676  19.952  0.00  0.00    +0.000 OA
ATOM     26  H   UNL     1      -1.852  10.326  19.656  0.00  0.00    +0.000 HD
ENDBRANCH  24  25
BRANCH  24  27
ATOM     27  C   UNL     1      -0.664  12.529  18.415  0.00  0.00    +0.000 C 
BRANCH  27  28
ATOM     28  O   UNL     1      -1.426  12.542  17.207  0.00  0.00    +0.000 OA
ATOM     29  H   UNL     1      -0.807  12.493  16.455  0.00  0.00    +0.000 HD
ENDBRANCH  27  28
ENDBRANCH  24  27
ENDBRANCH  23  24
ENDBRANCH   9  23
TORSDOF 7
ENDMDL
MODEL 3
REMARK VINA RESULT:      -7.0      0.784      1.310
REMARK  Name = 
REMARK  8 active torsions:
REMARK  status: ('A' for Active; 'I' for Inactive)
REMARK    1  A    between atoms: C_1  and  C_2
REMARK    2  A    between atoms: C_2  and  C_3
REMARK    3  A    between atoms: N_12  and  C_13
REMARK    4  A    between atoms: N_21  and  C_22
REMARK    5  A    between atoms: C_22  and  C_23
REMARK    6  A    between atoms: C_23  and  O_24
REMARK    7  A    between atoms: C_23  and  C_25
REMARK    8  A    between atoms: C_25  and  O_26
REMARK                            x       y       z     vdW  Elec       q    Type
REMARK                         _______ _______ _______ _____ _____    ______ ____
ROOT
ATOM      1  C   UNL     1       2.498   6.742  18.858  0.00  0.00    +0.000 A 
ATOM      2  N   UNL     1       2.945   7.230  17.662  0.00  0.00    +0.000 NA
ATOM      3  C   UNL     1       2.753   8.534  17.360  0.00  0.00    +0.000 A 
ATOM      4  N   UNL     1       2.135   9.479  18.093  0.00  0.00    +0.000 NA
ATOM      5  C   UNL     1       1.696   8.961  19.247  0.00  0.00    +0.000 A 
ATOM      6  C   UNL     1       1.818   7.660  19.702  0.00  0.00    +0.000 A 
ATOM      7  N   UNL     1       1.238   7.531  20.951  0.00  0.00    +0.000 NA
ATOM      8  C   UNL     1       0.799   8.734  21.256  0.00  0.00    +0.000 A 
ATOM      9  N   UNL     1       1.032   9.626  20.250  0.00  0.00    +0.000 N 
ENDROOT
BRANCH   1  14
ATOM     10  C   UNL     1       3.442   2.044  17.877  0.00  0.00    +0.000 C 
ATOM     11  C   UNL     1       3.769   3.522  18.166  0.00  0.00    +0.000 C 
ATOM     12  C   UNL     1       4.269   3.679  19.621  0.00  0.00    +0.000 C 
ATOM     13  C   UNL     1       3.872   5.100  20.018  0.00  0.00    +0.000 C 
ATOM     14  N   UNL     1       2.709   5.412  19.191  0.00  0.00    +0.000 N 
ATOM     15  C   UNL     1       2.444   4.338  18.234  0.00  0.00    +0.000 C 
BRANCH  11  16
ATOM     16  C   UNL     1       4.819   4.020  17.153  0.00  0.00    +0.000 A 
ATOM     17  C   UNL     1       4.522   4.249  15.796  0.00  0.00    +0.000 A 
ATOM     18  C   UNL     1       5.505   4.674  14.896  0.00  0.00    +0.000 A 
ATOM     19  C   UNL     1       6.802   4.877  15.338  0.00  0.00    +0.000 A 
ATOM     20  F   UNL     1       7.742   5.282  14.476  0.00  0.00    +0.000 F 
ATOM     21  C   UNL     1       7.135   4.660  16.667  0.00  0.00    +0.000 A 
ATOM     22  C   UNL     1       6.151   4.235  17.567  0.00  0.00    +0.000 A 
ENDBRANCH  11  16
ENDBRANCH   1  14
BRANCH   9  23
ATOM     23  C   UNL     1       0.713  11.037  20.289  0.00  0.00    +0.000 C 
BRANCH  23  24
ATOM     24  C   UNL     1      -0.542  11.441  19.503  0.00  0.00    +0.000 C 
BRANCH  24  25
ATOM     25  O   UNL     1      -1.664  11.675  20.360  0.00  0.00    +0.000 OA
ATOM     26  H   UNL     1      -2.075  10.816  20.584  0.00  0.00    +0.000 HD
ENDBRANCH  24  25
BRANCH  24  27
ATOM     27  C   UNL     1      -0.334  12.648  18.576  0.00  0.00    +0.000 C 
BRANCH  27  28
ATOM     28  O   UNL     1      -1.225  12.615  17.461  0.00  0.00    +0.000 OA
ATOM     29  H   UNL     1      -1.919  11.954  17.643  0.00  0.00    +0.000 HD
ENDBRANCH  27  28
ENDBRANCH  24  27
ENDBRANCH  23  24
ENDBRANCH   9  23
TORSDOF 7
ENDMDL
MODEL 4
REMARK VINA RESULT:      -6.8      1.845      2.831
REMARK  Name = 
REMARK  8 active torsions:
REMARK  status: ('A' for Active; 'I' for Inactive)
REMARK    1  A    between atoms: C_1  and  C_2
REMARK    2  A    between atoms: C_2  and  C_3
REMARK    3  A    between atoms: N_12  and  C_13
REMARK    4  A    between atoms: N_21  and  C_22
REMARK    5  A    between atoms: C_22  and  C_23
REMARK    6  A    between atoms: C_23  and  O_24
REMARK    7  A    between atoms: C_23  and  C_25
REMARK    8  A    between atoms: C_25  and  O_26
REMARK                            x       y       z     vdW  Elec       q    Type
REMARK                         _______ _______ _______ _____ _____    ______ ____
ROOT
ATOM      1  C   UNL     1       2.269   6.241  19.460  0.00  0.00    +0.000 A 
ATOM      2  N   UNL     1       1.772   6.190  20.733  0.00  0.00    +0.000 NA
ATOM      3  C   UNL     1       1.265   7.309  21.296  0.00  0.00    +0.000 A 
ATOM      4  N   UNL     1       1.184   8.546  20.771  0.00  0.00    +0.000 NA
ATOM      5  C   UNL     1       1.695   8.560  19.533  0.00  0.00    +0.000 A 
ATOM      6  C   UNL     1       2.242   7.509  18.821  0.00  0.00    +0.000 A 
ATOM      7  N   UNL     1       2.649   7.934  17.570  0.00  0.00    +0.000 NA
ATOM      8  C   UNL     1       2.331   9.210  17.516  0.00  0.00    +0.000 A 
ATOM      9  N   UNL     1       1.773   9.640  18.685  0.00  0.00    +0.000 N 
ENDROOT
BRANCH   1  14
ATOM     10  C   UNL     1       5.022   3.778  16.254  0.00  0.00    +0.000 C 
ATOM     11  C   UNL     1       4.703   4.527  17.562  0.00  0.00    +0.000 C 
ATOM     12  C   UNL     1       4.536   3.517  18.722  0.00  0.00    +0.000 C 
ATOM     13  C   UNL     1       3.570   4.195  19.692  0.00  0.00    +0.000 C 
ATOM     14  N   UNL     1       2.771   5.094  18.862  0.00  0.00    +0.000 N 
ATOM     15  C   UNL     1       3.260   5.107  17.484  0.00  0.00    +0.000 C 
BRANCH  11  16
ATOM     16  C   UNL     1       5.826   5.541  17.857  0.00  0.00    +0.000 A 
ATOM     17  C   UNL     1       5.938   6.772  17.182  0.00  0.00    +0.000 A 
ATOM     18  C   UNL     1       6.985   7.659  17.453  0.00  0.00    +0.000 A 
ATOM     19  C   UNL     1       7.938   7.330  18.403  0.00  0.00    +0.000 A 
ATOM     20  F   UNL     1       8.940   8.179  18.660  0.00  0.00    +0.000 F 
ATOM     21  C   UNL     1       7.864   6.125  19.087  0.00  0.00    +0.000 A 
ATOM     22  C   UNL     1       6.815   5.239  18.815  0.00  0.00    +0.000 A 
ENDBRANCH  11  16
ENDBRANCH   1  14
BRANCH   9  23
ATOM     23  C   UNL     1       1.273  10.975  18.936  0.00  0.00    +0.000 C 
BRANCH  23  24
ATOM     24  C   UNL     1      -0.218  11.178  18.630  0.00  0.00    +0.000 C 
BRANCH  24  25
ATOM     25  O   UNL     1      -0.688  10.285  17.616  0.00  0.00    +0.000 OA
ATOM     26  H   UNL     1       0.027   9.656  17.392  0.00  0.00    +0.000 HD
ENDBRANCH  24  25
BRANCH  24  27
ATOM     27  C   UNL     1      -1.125  11.088  19.866  0.00  0.00    +0.000 C 
BRANCH  27  28
ATOM     28  O   UNL     1      -0.372  11.145  21.078  0.00  0.00    +0.000 OA
ATOM     29  H   UNL     1      -0.442  12.049  21.439  0.00  0.00    +0.000 HD
ENDBRANCH  27  28
ENDBRANCH  24  27
ENDBRANCH  23  24
ENDBRANCH   9  23
TORSDOF 7
ENDMDL
MODEL 5
REMARK VINA RESULT:      -6.7      2.017      3.075
REMARK  Name = 
REMARK  8 active torsions:
REMARK  status: ('A' for Active; 'I' for Inactive)
REMARK    1  A    between atoms: C_1  and  C_2
REMARK    2  A    between atoms: C_2  and  C_3
REMARK    3  A    between atoms: N_12  and  C_13
REMARK    4  A    between atoms: N_21  and  C_22
REMARK    5  A    between atoms: C_22  and  C_23
REMARK    6  A    between atoms: C_23  and  O_24
REMARK    7  A    between atoms: C_23  and  C_25
REMARK    8  A    between atoms: C_25  and  O_26
REMARK                            x       y       z     vdW  Elec       q    Type
REMARK                         _______ _______ _______ _____ _____    ______ ____
ROOT
ATOM      1  C   UNL     1       2.240   6.350  19.508  0.00  0.00    +0.000 A 
ATOM      2  N   UNL     1       1.790   6.348  20.799  0.00  0.00    +0.000 NA
ATOM      3  C   UNL     1       1.291   7.486  21.332  0.00  0.00    +0.000 A 
ATOM      4  N   UNL     1       1.177   8.699  20.758  0.00  0.00    +0.000 NA
ATOM      5  C   UNL     1       1.643   8.664  19.503  0.00  0.00    +0.000 A 
ATOM      6  C   UNL     1       2.175   7.588  18.817  0.00  0.00    +0.000 A 
ATOM      7  N   UNL     1       2.533   7.964  17.535  0.00  0.00    +0.000 NA
ATOM      8  C   UNL     1       2.199   9.234  17.439  0.00  0.00    +0.000 A 
ATOM      9  N   UNL     1       1.678   9.707  18.608  0.00  0.00    +0.000 N 
ENDROOT
BRANCH   1  14
ATOM     10  C   UNL     1       4.962   3.779  16.360  0.00  0.00    +0.000 C 
ATOM     11  C   UNL     1       4.655   4.568  17.648  0.00  0.00    +0.000 C 
ATOM     12  C   UNL     1       4.490   3.594  18.838  0.00  0.00    +0.000 C 
ATOM     13  C   UNL     1       3.533   4.305  19.793  0.00  0.00    +0.000 C 
ATOM     14  N   UNL     1       2.734   5.183  18.941  0.00  0.00    +0.000 N 
ATOM     15  C   UNL     1       3.213   5.152  17.560  0.00  0.00    +0.000 C 
BRANCH  11  16
ATOM     16  C   UNL     1       5.784   5.586  17.905  0.00  0.00    +0.000 A 
ATOM     17  C   UNL     1       5.874   6.814  17.223  0.00  0.00    +0.000 A 
ATOM     18  C   UNL     1       6.927   7.703  17.459  0.00  0.00    +0.000 A 
ATOM     19  C   UNL     1       7.908   7.380  18.382  0.00  0.00    +0.000 A 
ATOM     20  F   UNL     1       8.916   8.231  18.606  0.00  0.00    +0.000 F 
ATOM     21  C   UNL     1       7.856   6.178  19.073  0.00  0.00    +0.000 A 
ATOM     22  C   UNL     1       6.801   5.289  18.836  0.00  0.00    +0.000 A 
ENDBRANCH  11  16
ENDBRANCH   1  14
BRANCH   9  23
ATOM     23  C   UNL     1       1.173  11.047  18.820  0.00  0.00    +0.000 C 
BRANCH  23  24
ATOM     24  C   UNL     1       2.223  12.162  18.713  0.00  0.00    +0.000 C 
BRANCH  24  25
ATOM     25  O   UNL     1       2.326  12.680  17.383  0.00  0.00    +0.000 OA
ATOM     26  H   UNL     1       2.465  11.936  16.764  0.00  0.00    +0.000 HD
ENDBRANCH  24  25
BRANCH  24  27
ATOM     27  C   UNL     1       2.010  13.314  19.706  0.00  0.00    +0.000 C 
BRANCH  27  28
ATOM     28  O   UNL     1       2.180  12.884  21.057  0.00  0.00    +0.000 OA
ATOM     29  H   UNL     1       2.537  13.631  21.573  0.00  0.00    +0.000 HD
ENDBRANCH  27  28
ENDBRANCH  24  27
ENDBRANCH  23  24
ENDBRANCH   9  23
TORSDOF 7
ENDMDL
MODEL 6
REMARK VINA RESULT:      -6.7      1.362      1.851
REMARK  Name = 
REMARK  8 active torsions:
REMARK  status: ('A' for Active; 'I' for Inactive)
REMARK    1  A    between atoms: C_1  and  C_2
REMARK    2  A    between atoms: C_2  and  C_3
REMARK    3  A    between atoms: N_12  and  C_13
REMARK    4  A    between atoms: N_21  and  C_22
REMARK    5  A    between atoms: C_22  and  C_23
REMARK    6  A    between atoms: C_23  and  O_24
REMARK    7  A    between atoms: C_23  and  C_25
REMARK    8  A    between atoms: C_25  and  O_26
REMARK                            x       y       z     vdW  Elec       q    Type
REMARK                         _______ _______ _______ _____ _____    ______ ____
ROOT
ATOM      1  C   UNL     1       2.712   6.627  18.835  0.00  0.00    +0.000 A 
ATOM      2  N   UNL     1       3.193   7.141  17.662  0.00  0.00    +0.000 NA
ATOM      3  C   UNL     1       2.926   8.426  17.339  0.00  0.00    +0.000 A 
ATOM      4  N   UNL     1       2.201   9.329  18.027  0.00  0.00    +0.000 NA
ATOM      5  C   UNL     1       1.734   8.785  19.159  0.00  0.00    +0.000 A 
ATOM      6  C   UNL     1       1.921   7.499  19.631  0.00  0.00    +0.000 A 
ATOM      7  N   UNL     1       1.281   7.333  20.845  0.00  0.00    +0.000 NA
ATOM      8  C   UNL     1       0.740   8.503  21.115  0.00  0.00    +0.000 A 
ATOM      9  N   UNL     1       0.967   9.405  20.117  0.00  0.00    +0.000 N 
ENDROOT
BRANCH   1  14
ATOM     10  C   UNL     1       3.752   1.935  17.926  0.00  0.00    +0.000 C 
ATOM     11  C   UNL     1       4.045   3.433  18.143  0.00  0.00    +0.000 C 
ATOM     12  C   UNL     1       4.650   3.655  19.550  0.00  0.00    +0.000 C 
ATOM     13  C   UNL     1       4.232   5.073  19.933  0.00  0.00    +0.000 C 
ATOM     14  N   UNL     1       2.998   5.317  19.190  0.00  0.00    +0.000 N 
ATOM     15  C   UNL     1       2.700   4.204  18.290  0.00  0.00    +0.000 C 
BRANCH  11  16
ATOM     16  C   UNL     1       4.995   3.933  17.037  0.00  0.00    +0.000 A 
ATOM     17  C   UNL     1       4.625   3.987  15.680  0.00  0.00    +0.000 A 
ATOM     18  C   UNL     1       5.520   4.419  14.696  0.00  0.00    +0.000 A 
ATOM     19  C   UNL     1       6.801   4.805  15.053  0.00  0.00    +0.000 A 
ATOM     20  F   UNL     1       7.658   5.217  14.111  0.00  0.00    +0.000 F 
ATOM     21  C   UNL     1       7.206   4.764  16.380  0.00  0.00    +0.000 A 
ATOM     22  C   UNL     1       6.309   4.331  17.363  0.00  0.00    +0.000 A 
ENDBRANCH  11  16
ENDBRANCH   1  14
BRANCH   9  23
ATOM     23  C   UNL     1       0.547  10.790  20.125  0.00  0.00    +0.000 C 
BRANCH  23  24
ATOM     24  C   UNL     1       0.759  11.524  21.457  0.00  0.00    +0.000 C 
BRANCH  24  25
ATOM     25  O   UNL     1       1.467  12.757  21.287  0.00  0.00    +0.000 OA
ATOM     26  H   UNL     1       2.373  12.652  21.640  0.00  0.00    +0.000 HD
ENDBRANCH  24  25
BRANCH  24  27
ATOM     27  C   UNL     1      -0.536  11.771  22.245  0.00  0.00    +0.000 C 
BRANCH  27  28
ATOM     28  O   UNL     1      -0.625  10.925  23.391  0.00  0.00    +0.000 OA
ATOM     29  H   UNL     1      -1.123  11.399  24.084  0.00  0.00    +0.000 HD
ENDBRANCH  27  28
ENDBRANCH  24  27
ENDBRANCH  23  24
ENDBRANCH   9  23
TORSDOF 7
ENDMDL
MODEL 7
REMARK VINA RESULT:      -6.7      1.101      1.235
REMARK  Name = 
REMARK  8 active torsions:
REMARK  status: ('A' for Active; 'I' for Inactive)
REMARK    1  A    between atoms: C_1  and  C_2
REMARK    2  A    between atoms: C_2  and  C_3
REMARK    3  A    between atoms: N_12  and  C_13
REMARK    4  A    between atoms: N_21  and  C_22
REMARK    5  A    between atoms: C_22  and  C_23
REMARK    6  A    between atoms: C_23  and  O_24
REMARK    7  A    between atoms: C_23  and  C_25
REMARK    8  A    between atoms: C_25  and  O_26
REMARK                            x       y       z     vdW  Elec       q    Type
REMARK                         _______ _______ _______ _____ _____    ______ ____
ROOT
ATOM      1  C   UNL     1       2.520   6.559  18.966  0.00  0.00    +0.000 A 
ATOM      2  N   UNL     1       2.969   7.090  17.789  0.00  0.00    +0.000 NA
ATOM      3  C   UNL     1       2.770   8.401  17.530  0.00  0.00    +0.000 A 
ATOM      4  N   UNL     1       2.144   9.318  18.292  0.00  0.00    +0.000 NA
ATOM      5  C   UNL     1       1.704   8.758  19.426  0.00  0.00    +0.000 A 
ATOM      6  C   UNL     1       1.832   7.444  19.837  0.00  0.00    +0.000 A 
ATOM      7  N   UNL     1       1.248   7.269  21.078  0.00  0.00    +0.000 NA
ATOM      8  C   UNL     1       0.800   8.458  21.423  0.00  0.00    +0.000 A 
ATOM      9  N   UNL     1       1.032   9.385  20.449  0.00  0.00    +0.000 N 
ENDROOT
BRANCH   1  14
ATOM     10  C   UNL     1       3.518   1.906  17.833  0.00  0.00    +0.000 C 
ATOM     11  C   UNL     1       3.828   3.376  18.179  0.00  0.00    +0.000 C 
ATOM     12  C   UNL     1       4.305   3.485  19.646  0.00  0.00    +0.000 C 
ATOM     13  C   UNL     1       3.891   4.887  20.087  0.00  0.00    +0.000 C 
ATOM     14  N   UNL     1       2.738   5.219  19.254  0.00  0.00    +0.000 N 
ATOM     15  C   UNL     1       2.495   4.178  18.256  0.00  0.00    +0.000 C 
BRANCH  11  16
ATOM     16  C   UNL     1       4.889   3.918  17.200  0.00  0.00    +0.000 A 
ATOM     17  C   UNL     1       6.179   4.303  17.610  0.00  0.00    +0.000 A 
ATOM     18  C   UNL     1       7.110   4.817  16.701  0.00  0.00    +0.000 A 
ATOM     19  C   UNL     1       6.766   4.955  15.367  0.00  0.00    +0.000 A 
ATOM     20  F   UNL     1       7.656   5.449  14.498  0.00  0.00    +0.000 F 
ATOM     21  C   UNL     1       5.503   4.589  14.924  0.00  0.00    +0.000 A 
ATOM     22  C   UNL     1       4.573   4.074  15.834  0.00  0.00    +0.000 A 
ENDBRANCH  11  16
ENDBRANCH   1  14
BRANCH   9  23
ATOM     23  C   UNL     1       0.705  10.792  20.534  0.00  0.00    +0.000 C 
BRANCH  23  24
ATOM     24  C   UNL     1      -0.532  11.121  21.382  0.00  0.00    +0.000 C 
BRANCH  24  25
ATOM     25  O   UNL     1      -0.182  11.628  22.674  0.00  0.00    +0.000 OA
ATOM     26  H   UNL     1      -0.581  11.053  23.357  0.00  0.00    +0.000 HD
ENDBRANCH  24  25
BRANCH  24  27
ATOM     27  C   UNL     1      -1.520  12.078  20.697  0.00  0.00    +0.000 C 
BRANCH  27  28
ATOM     28  O   UNL     1      -1.228  12.232  19.308  0.00  0.00    +0.000 OA
ATOM     29  H   UNL     1      -0.283  12.030  19.170  0.00  0.00    +0.000 HD
ENDBRANCH  27  28
ENDBRANCH  24  27
ENDBRANCH  23  24
ENDBRANCH   9  23
TORSDOF 7
ENDMDL
MODEL 8
REMARK VINA RESULT:      -6.6      1.888      2.178
REMARK  Name = 
REMARK  8 active torsions:
REMARK  status: ('A' for Active; 'I' for Inactive)
REMARK    1  A    between atoms: C_1  and  C_2
REMARK    2  A    between atoms: C_2  and  C_3
REMARK    3  A    between atoms: N_12  and  C_13
REMARK    4  A    between atoms: N_21  and  C_22
REMARK    5  A    between atoms: C_22  and  C_23
REMARK    6  A    between atoms: C_23  and  O_24
REMARK    7  A    between atoms: C_23  and  C_25
REMARK    8  A    between atoms: C_25  and  O_26
REMARK                            x       y       z     vdW  Elec       q    Type
REMARK                         _______ _______ _______ _____ _____    ______ ____
ROOT
ATOM      1  C   UNL     1       1.914   7.603  18.934  0.00  0.00    +0.000 A 
ATOM      2  N   UNL     1       2.304   8.278  17.810  0.00  0.00    +0.000 NA
ATOM      3  C   UNL     1       2.113   9.614  17.735  0.00  0.00    +0.000 A 
ATOM      4  N   UNL     1       1.548  10.430  18.646  0.00  0.00    +0.000 NA
ATOM      5  C   UNL     1       1.165   9.732  19.723  0.00  0.00    +0.000 A 
ATOM      6  C   UNL     1       1.293   8.374  19.952  0.00  0.00    +0.000 A 
ATOM      7  N   UNL     1       0.780   8.045  21.193  0.00  0.00    +0.000 NA
ATOM      8  C   UNL     1       0.374   9.184  21.714  0.00  0.00    +0.000 A 
ATOM      9  N   UNL     1       0.565  10.227  20.856  0.00  0.00    +0.000 N 
ENDROOT
BRANCH   1  14
ATOM     10  C   UNL     1       4.007   3.359  17.696  0.00  0.00    +0.000 C 
ATOM     11  C   UNL     1       3.870   4.708  18.429  0.00  0.00    +0.000 C 
ATOM     12  C   UNL     1       3.450   4.471  19.899  0.00  0.00    +0.000 C 
ATOM     13  C   UNL     1       2.671   5.726  20.288  0.00  0.00    +0.000 C 
ATOM     14  N   UNL     1       2.125   6.235  19.033  0.00  0.00    +0.000 N 
ATOM     15  C   UNL     1       2.613   5.457  17.895  0.00  0.00    +0.000 C 
BRANCH  11  16
ATOM     16  C   UNL     1       5.204   5.475  18.340  0.00  0.00    +0.000 A 
ATOM     17  C   UNL     1       6.288   5.222  19.203  0.00  0.00    +0.000 A 
ATOM     18  C   UNL     1       7.476   5.955  19.116  0.00  0.00    +0.000 A 
ATOM     19  C   UNL     1       7.600   6.953  18.163  0.00  0.00    +0.000 A 
ATOM     20  F   UNL     1       8.737   7.655  18.081  0.00  0.00    +0.000 F 
ATOM     21  C   UNL     1       6.554   7.234  17.296  0.00  0.00    +0.000 A 
ATOM     22  C   UNL     1       5.366   6.500  17.385  0.00  0.00    +0.000 A 
ENDBRANCH  11  16
ENDBRANCH   1  14
BRANCH   9  23
ATOM     23  C   UNL     1       0.268  11.614  21.142  0.00  0.00    +0.000 C 
BRANCH  23  24
ATOM     24  C   UNL     1      -1.030  12.144  20.515  0.00  0.00    +0.000 C 
BRANCH  24  25
ATOM     25  O   UNL     1      -1.919  12.691  21.494  0.00  0.00    +0.000 OA
ATOM     26  H   UNL     1      -2.689  13.083  21.037  0.00  0.00    +0.000 HD
ENDBRANCH  24  25
BRANCH  24  27
ATOM     27  C   UNL     1      -0.806  13.162  19.387  0.00  0.00    +0.000 C 
BRANCH  27  28
ATOM     28  O   UNL     1      -0.490  12.520  18.152  0.00  0.00    +0.000 OA
ATOM     29  H   UNL     1       0.296  12.956  17.773  0.00  0.00    +0.000 HD
ENDBRANCH  27  28
ENDBRANCH  24  27
ENDBRANCH  23  24
ENDBRANCH   9  23
TORSDOF 7
ENDMDL
MODEL 9
REMARK VINA RESULT:      -6.6      1.067      1.554
REMARK  Name = 
REMARK  8 active torsions:
REMARK  status: ('A' for Active; 'I' for Inactive)
REMARK    1  A    between atoms: C_1  and  C_2
REMARK    2  A    between atoms: C_2  and  C_3
REMARK    3  A    between atoms: N_12  and  C_13
REMARK    4  A    between atoms: N_21  and  C_22
REMARK    5  A    between atoms: C_22  and  C_23
REMARK    6  A    between atoms: C_23  and  O_24
REMARK    7  A    between atoms: C_23  and  C_25
REMARK    8  A    between atoms: C_25  and  O_26
REMARK                            x       y       z     vdW  Elec       q    Type
REMARK                         _______ _______ _______ _____ _____    ______ ____
ROOT
ATOM      1  C   UNL     1       2.467   6.649  18.925  0.00  0.00    +0.000 A 
ATOM      2  N   UNL     1       2.879   7.158  17.724  0.00  0.00    +0.000 NA
ATOM      3  C   UNL     1       2.693   8.470  17.456  0.00  0.00    +0.000 A 
ATOM      4  N   UNL     1       2.113   9.407  18.231  0.00  0.00    +0.000 NA
ATOM      5  C   UNL     1       1.708   8.868  19.388  0.00  0.00    +0.000 A 
ATOM      6  C   UNL     1       1.829   7.557  19.811  0.00  0.00    +0.000 A 
ATOM      7  N   UNL     1       1.291   7.407  21.076  0.00  0.00    +0.000 NA
ATOM      8  C   UNL     1       0.878   8.609  21.422  0.00  0.00    +0.000 A 
ATOM      9  N   UNL     1       1.088   9.519  20.428  0.00  0.00    +0.000 N 
ENDROOT
BRANCH   1  14
ATOM     10  C   UNL     1       3.403   1.978  17.818  0.00  0.00    +0.000 C 
ATOM     11  C   UNL     1       3.733   3.446  18.150  0.00  0.00    +0.000 C 
ATOM     12  C   UNL     1       4.225   3.561  19.612  0.00  0.00    +0.000 C 
ATOM     13  C   UNL     1       3.830   4.971  20.046  0.00  0.00    +0.000 C 
ATOM     14  N   UNL     1       2.673   5.309  19.221  0.00  0.00    +0.000 N 
ATOM     15  C   UNL     1       2.410   4.263  18.233  0.00  0.00    +0.000 C 
BRANCH  11  16
ATOM     16  C   UNL     1       4.790   3.969  17.157  0.00  0.00    +0.000 A 
ATOM     17  C   UNL     1       4.505   4.221  15.802  0.00  0.00    +0.000 A 
ATOM     18  C   UNL     1       5.494   4.668  14.920  0.00  0.00    +0.000 A 
ATOM     19  C   UNL     1       6.786   4.871  15.378  0.00  0.00    +0.000 A 
ATOM     20  F   UNL     1       7.732   5.296  14.533  0.00  0.00    +0.000 F 
ATOM     21  C   UNL     1       7.107   4.630  16.707  0.00  0.00    +0.000 A 
ATOM     22  C   UNL     1       6.116   4.183  17.588  0.00  0.00    +0.000 A 
ENDBRANCH  11  16
ENDBRANCH   1  14
BRANCH   9  23
ATOM     23  C   UNL     1       0.788  10.933  20.508  0.00  0.00    +0.000 C 
BRANCH  23  24
ATOM     24  C   UNL     1      -0.597  11.335  19.981  0.00  0.00    +0.000 C 
BRANCH  24  25
ATOM     25  O   UNL     1      -1.229  10.273  19.260  0.00  0.00    +0.000 OA
ATOM     26  H   UNL     1      -1.954  10.647  18.720  0.00  0.00    +0.000 HD
ENDBRANCH  24  25
BRANCH  24  27
ATOM     27  C   UNL     1      -1.545  11.866  21.067  0.00  0.00    +0.000 C 
BRANCH  27  28
ATOM     28  O   UNL     1      -1.196  11.372  22.360  0.00  0.00    +0.000 OA
ATOM     29  H   UNL     1      -1.665  11.906  23.028  0.00  0.00    +0.000 HD
ENDBRANCH  27  28
ENDBRANCH  24  27
ENDBRANCH  23  24
ENDBRANCH   9  23
TORSDOF 7
ENDMDL
