MODEL 1
REMARK VINA RESULT:      -9.2      0.000      0.000
REMARK  Name = 
REMARK  6 active torsions:
REMARK  status: ('A' for Active; 'I' for Inactive)
REMARK    1  A    between atoms: C_1  and  C_2
REMARK    2  A    between atoms: C_5  and  N_6
REMARK    3  A    between atoms: C_7  and  C_9
REMARK    4  A    between atoms: C_18  and  N_19
REMARK    5  A    between atoms: N_19  and  S_20
REMARK    6  A    between atoms: S_20  and  C_23
REMARK                            x       y       z     vdW  Elec       q    Type
REMARK                         _______ _______ _______ _____ _____    ______ ____
ROOT
ATOM      1  C   UNL     1       3.691   1.354  18.463  0.00  0.00    +0.000 C 
ATOM      2  C   UNL     1       3.240   2.667  19.034  0.00  0.00    +0.000 A 
ATOM      3  C   UNL     1       1.871   2.861  19.250  0.00  0.00    +0.000 A 
ATOM      4  C   UNL     1       1.382   4.062  19.767  0.00  0.00    +0.000 A 
ATOM      5  C   UNL     1       2.243   5.108  20.091  0.00  0.00    +0.000 A 
ATOM      6  C   UNL     1       3.618   4.922  19.880  0.00  0.00    +0.000 A 
ATOM      7  C   UNL     1       4.113   3.719  19.345  0.00  0.00    +0.000 A 
ENDROOT
BRANCH   5   8
ATOM      8  N   UNL     1       1.794   6.339  20.630  0.00  0.00    +0.000 N 
ATOM      9  C   UNL     1       1.765   7.555  19.959  0.00  0.00    +0.000 C 
ATOM     10  O   UNL     1       2.220   7.784  18.844  0.00  0.00    +0.000 OA
ATOM     11  H   UNL     1       1.551   6.332  21.613  0.00  0.00    +0.000 HD
BRANCH   9  12
ATOM     12  C   UNL     1       1.169   8.706  20.694  0.00  0.00    +0.000 A 
ATOM     13  C   UNL     1       0.918   9.890  19.973  0.00  0.00    +0.000 A 
ATOM     14  C   UNL     1       0.328  10.991  20.599  0.00  0.00    +0.000 A 
ATOM     15  C   UNL     1      -0.022  10.903  21.940  0.00  0.00    +0.000 A 
ATOM     16  F   UNL     1      -0.586  11.958  22.542  0.00  0.00    +0.000 F 
ATOM     17  C   UNL     1       0.201   9.725  22.649  0.00  0.00    +0.000 A 
ATOM     18  F   UNL     1      -0.165   9.641  23.935  0.00  0.00    +0.000 F 
ATOM     19  C   UNL     1       0.794   8.620  22.039  0.00  0.00    +0.000 A 
ENDBRANCH   9  12
ENDBRANCH   5   8
BRANCH   7  20
ATOM     20  N   UNL     1       5.502   3.634  19.059  0.00  0.00    +0.000 N 
ATOM     21  H   UNL     1       6.063   2.906  19.497  0.00  0.00    +0.000 HD
BRANCH  20  22
ATOM     22  S   UNL     1       6.352   4.920  18.398  0.00  0.00    +0.000 S 
ATOM     23  O   UNL     1       5.568   6.106  18.679  0.00  0.00    +0.000 OA
ATOM     24  O   UNL     1       7.744   4.837  18.787  0.00  0.00    +0.000 OA
BRANCH  22  25
ATOM     25  C   UNL     1       6.243   4.626  16.647  0.00  0.00    +0.000 A 
ATOM     26  C   UNL     1       7.291   5.044  15.816  0.00  0.00    +0.000 A 
ATOM     27  C   UNL     1       7.221   4.811  14.442  0.00  0.00    +0.000 A 
ATOM     28  C   UNL     1       6.115   4.153  13.904  0.00  0.00    +0.000 A 
ATOM     29  C   UNL     1       5.081   3.721  14.738  0.00  0.00    +0.000 A 
ATOM     30  C   UNL     1       5.143   3.947  16.115  0.00  0.00    +0.000 A 
ENDBRANCH  22  25
ENDBRANCH  20  22
ENDBRANCH   7  20
TORSDOF 5
ENDMDL
MODEL 2
REMARK VINA RESULT:      -9.1      2.221      4.409
REMARK  Name = 
REMARK  6 active torsions:
REMARK  status: ('A' for Active; 'I' for Inactive)
REMARK    1  A    between atoms: C_1  and  C_2
REMARK    2  A    between atoms: C_5  and  N_6
REMARK    3  A    between atoms: C_7  and  C_9
REMARK    4  A    between atoms: C_18  and  N_19
REMARK    5  A    between atoms: N_19  and  S_20
REMARK    6  A    between atoms: S_20  and  C_23
REMARK                            x       y       z     vdW  Elec       q    Type
REMARK                         _______ _______ _______ _____ _____    ______ ____
ROOT
ATOM      1  C   UNL     1       6.247   4.082  15.392  0.00  0.00    +0.000 C 
ATOM      2  C   UNL     1       5.372   4.990  16.206  0.00  0.00    +0.000 A 
ATOM      3  C   UNL     1       5.285   6.336  15.832  0.00  0.00    +0.000 A 
ATOM      4  C   UNL     1       4.499   7.238  16.553  0.00  0.00    +0.000 A 
ATOM      5  C   UNL     1       3.771   6.826  17.666  0.00  0.00    +0.000 A 
ATOM      6  C   UNL     1       3.852   5.478  18.048  0.00  0.00    +0.000 A 
ATOM      7  C   UNL     1       4.653   4.570  17.334  0.00  0.00    +0.000 A 
ENDROOT
BRANCH   5   8
ATOM      8  N   UNL     1       2.951   7.703  18.420  0.00  0.00    +0.000 N 
ATOM      9  C   UNL     1       2.227   7.361  19.555  0.00  0.00    +0.000 C 
ATOM     10  O   UNL     1       2.090   6.236  20.020  0.00  0.00    +0.000 OA
ATOM     11  H   UNL     1       2.831   8.634  18.041  0.00  0.00    +0.000 HD
BRANCH   9  12
ATOM     12  C   UNL     1       1.501   8.468  20.239  0.00  0.00    +0.000 A 
ATOM     13  C   UNL     1       0.962   9.495  19.441  0.00  0.00    +0.000 A 
ATOM     14  C   UNL     1       0.241  10.541  20.021  0.00  0.00    +0.000 A 
ATOM     15  C   UNL     1       0.047  10.551  21.396  0.00  0.00    +0.000 A 
ATOM     16  F   UNL     1      -0.643  11.555  21.955  0.00  0.00    +0.000 F 
ATOM     17  C   UNL     1       0.557   9.524  22.186  0.00  0.00    +0.000 A 
ATOM     18  F   UNL     1       0.342   9.529  23.508  0.00  0.00    +0.000 F 
ATOM     19  C   UNL     1       1.283   8.476  21.620  0.00  0.00    +0.000 A 
ENDBRANCH   9  12
ENDBRANCH   5   8
BRANCH   7  20
ATOM     20  N   UNL     1       4.773   3.245  17.834  0.00  0.00    +0.000 N 
ATOM     21  H   UNL     1       5.697   2.834  17.954  0.00  0.00    +0.000 HD
BRANCH  20  22
ATOM     22  S   UNL     1       3.487   2.169  17.816  0.00  0.00    +0.000 S 
ATOM     23  O   UNL     1       2.631   2.586  16.723  0.00  0.00    +0.000 OA
ATOM     24  O   UNL     1       3.984   0.813  17.898  0.00  0.00    +0.000 OA
BRANCH  22  25
ATOM     25  C   UNL     1       2.623   2.540  19.325  0.00  0.00    +0.000 A 
ATOM     26  C   UNL     1       1.259   2.863  19.272  0.00  0.00    +0.000 A 
ATOM     27  C   UNL     1       0.568   3.147  20.450  0.00  0.00    +0.000 A 
ATOM     28  C   UNL     1       1.234   3.098  21.675  0.00  0.00    +0.000 A 
ATOM     29  C   UNL     1       2.587   2.757  21.726  0.00  0.00    +0.000 A 
ATOM     30  C   UNL     1       3.287   2.468  20.552  0.00  0.00    +0.000 A 
ENDBRANCH  22  25
ENDBRANCH  20  22
ENDBRANCH   7  20
TORSDOF 5
ENDMDL
MODEL 3
REMARK VINA RESULT:      -9.1      1.726      2.374
REMARK  Name = 
REMARK  6 active torsions:
REMARK  status: ('A' for Active; 'I' for Inactive)
REMARK    1  A    between atoms: C_1  and  C_2
REMARK    2  A    between atoms: C_5  and  N_6
REMARK    3  A    between atoms: C_7  and  C_9
REMARK    4  A    between atoms: C_18  and  N_19
REMARK    5  A    between atoms: N_19  and  S_20
REMARK    6  A    between atoms: S_20  and  C_23
REMARK                            x       y       z     vdW  Elec       q    Type
REMARK                         _______ _______ _______ _____ _____    ______ ____
ROOT
ATOM      1  C   UNL     1       3.850   1.042  19.094  0.00  0.00    +0.000 C 
ATOM      2  C   UNL     1       3.364   2.398  19.517  0.00  0.00    +0.000 A 
ATOM      3  C   UNL     1       2.139   2.482  20.190  0.00  0.00    +0.000 A 
ATOM      4  C   UNL     1       1.623   3.713  20.602  0.00  0.00    +0.000 A 
ATOM      5  C   UNL     1       2.312   4.898  20.359  0.00  0.00    +0.000 A 
ATOM      6  C   UNL     1       3.541   4.823  19.686  0.00  0.00    +0.000 A 
ATOM      7  C   UNL     1       4.058   3.587  19.257  0.00  0.00    +0.000 A 
ENDROOT
BRANCH   5   8
ATOM      8  N   UNL     1       1.833   6.168  20.769  0.00  0.00    +0.000 N 
ATOM      9  C   UNL     1       1.891   7.336  20.021  0.00  0.00    +0.000 C 
ATOM     10  O   UNL     1       2.458   7.485  18.944  0.00  0.00    +0.000 OA
ATOM     11  H   UNL     1       1.493   6.228  21.721  0.00  0.00    +0.000 HD
BRANCH   9  12
ATOM     12  C   UNL     1       1.244   8.540  20.616  0.00  0.00    +0.000 A 
ATOM     13  C   UNL     1       0.861   9.580  19.747  0.00  0.00    +0.000 A 
ATOM     14  C   UNL     1       0.220  10.718  20.241  0.00  0.00    +0.000 A 
ATOM     15  C   UNL     1      -0.050  10.809  21.600  0.00  0.00    +0.000 A 
ATOM     16  F   UNL     1      -0.664  11.901  22.076  0.00  0.00    +0.000 F 
ATOM     17  C   UNL     1       0.304   9.771  22.459  0.00  0.00    +0.000 A 
ATOM     18  F   UNL     1       0.015   9.856  23.764  0.00  0.00    +0.000 F 
ATOM     19  C   UNL     1       0.949   8.632  21.980  0.00  0.00    +0.000 A 
ENDBRANCH   9  12
ENDBRANCH   5   8
BRANCH   7  20
ATOM     20  N   UNL     1       5.254   3.591  18.490  0.00  0.00    +0.000 N 
ATOM     21  H   UNL     1       6.116   3.236  18.900  0.00  0.00    +0.000 HD
BRANCH  20  22
ATOM     22  S   UNL     1       5.429   4.547  17.123  0.00  0.00    +0.000 S 
ATOM     23  O   UNL     1       6.147   3.738  16.158  0.00  0.00    +0.000 OA
ATOM     24  O   UNL     1       4.161   5.158  16.789  0.00  0.00    +0.000 OA
BRANCH  22  25
ATOM     25  C   UNL     1       6.542   5.827  17.660  0.00  0.00    +0.000 A 
ATOM     26  C   UNL     1       7.396   5.581  18.745  0.00  0.00    +0.000 A 
ATOM     27  C   UNL     1       8.279   6.574  19.169  0.00  0.00    +0.000 A 
ATOM     28  C   UNL     1       8.316   7.801  18.506  0.00  0.00    +0.000 A 
ATOM     29  C   UNL     1       7.478   8.035  17.414  0.00  0.00    +0.000 A 
ATOM     30  C   UNL     1       6.592   7.046  16.979  0.00  0.00    +0.000 A 
ENDBRANCH  22  25
ENDBRANCH  20  22
ENDBRANCH   7  20
TORSDOF 5
ENDMDL
MODEL 4
REMARK VINA RESULT:      -9.0      2.253      4.529
REMARK  Name = 
REMARK  6 active torsions:
REMARK  status: ('A' for Active; 'I' for Inactive)
REMARK    1  A    between atoms: C_1  and  C_2
REMARK    2  A    between atoms: C_5  and  N_6
REMARK    3  A    between atoms: C_7  and  C_9
REMARK    4  A    between atoms: C_18  and  N_19
REMARK    5  A    between atoms: N_19  and  S_20
REMARK    6  A    between atoms: S_20  and  C_23
REMARK                            x       y       z     vdW  Elec       q    Type
REMARK                         _______ _______ _______ _____ _____    ______ ____
ROOT
ATOM      1  C   UNL     1       5.875   4.426  15.320  0.00  0.00    +0.000 C 
ATOM      2  C   UNL     1       5.084   5.222  16.317  0.00  0.00    +0.000 A 
ATOM      3  C   UNL     1       4.931   6.596  16.096  0.00  0.00    +0.000 A 
ATOM      4  C   UNL     1       4.217   7.398  16.989  0.00  0.00    +0.000 A 
ATOM      5  C   UNL     1       3.629   6.855  18.129  0.00  0.00    +0.000 A 
ATOM      6  C   UNL     1       3.777   5.479  18.359  0.00  0.00    +0.000 A 
ATOM      7  C   UNL     1       4.507   4.670  17.469  0.00  0.00    +0.000 A 
ENDROOT
BRANCH   5   8
ATOM      8  N   UNL     1       2.886   7.628  19.057  0.00  0.00    +0.000 N 
ATOM      9  C   UNL     1       1.815   8.455  18.748  0.00  0.00    +0.000 C 
ATOM     10  O   UNL     1       1.411   8.738  17.626  0.00  0.00    +0.000 OA
ATOM     11  H   UNL     1       3.228   7.625  20.010  0.00  0.00    +0.000 HD
BRANCH   9  12
ATOM     12  C   UNL     1       1.124   9.106  19.898  0.00  0.00    +0.000 A 
ATOM     13  C   UNL     1       1.190   8.469  21.152  0.00  0.00    +0.000 A 
ATOM     14  C   UNL     1       0.592   9.048  22.274  0.00  0.00    +0.000 A 
ATOM     15  C   UNL     1      -0.057  10.268  22.144  0.00  0.00    +0.000 A 
ATOM     16  F   UNL     1      -0.632  10.825  23.219  0.00  0.00    +0.000 F 
ATOM     17  C   UNL     1      -0.101  10.914  20.910  0.00  0.00    +0.000 A 
ATOM     18  F   UNL     1      -0.707  12.104  20.801  0.00  0.00    +0.000 F 
ATOM     19  C   UNL     1       0.486  10.345  19.781  0.00  0.00    +0.000 A 
ENDBRANCH   9  12
ENDBRANCH   5   8
BRANCH   7  20
ATOM     20  N   UNL     1       4.707   3.306  17.813  0.00  0.00    +0.000 N 
ATOM     21  H   UNL     1       5.647   2.916  17.799  0.00  0.00    +0.000 HD
BRANCH  20  22
ATOM     22  S   UNL     1       3.450   2.196  17.807  0.00  0.00    +0.000 S 
ATOM     23  O   UNL     1       2.568   2.594  16.727  0.00  0.00    +0.000 OA
ATOM     24  O   UNL     1       3.985   0.853  17.876  0.00  0.00    +0.000 OA
BRANCH  22  25
ATOM     25  C   UNL     1       2.596   2.536  19.329  0.00  0.00    +0.000 A 
ATOM     26  C   UNL     1       1.240   2.890  19.289  0.00  0.00    +0.000 A 
ATOM     27  C   UNL     1       0.557   3.151  20.478  0.00  0.00    +0.000 A 
ATOM     28  C   UNL     1       1.223   3.048  21.699  0.00  0.00    +0.000 A 
ATOM     29  C   UNL     1       2.569   2.676  21.736  0.00  0.00    +0.000 A 
ATOM     30  C   UNL     1       3.261   2.410  20.552  0.00  0.00    +0.000 A 
ENDBRANCH  22  25
ENDBRANCH  20  22
ENDBRANCH   7  20
TORSDOF 5
ENDMDL
MODEL 5
REMARK VINA RESULT:      -9.0      4.605      7.867
REMARK  Name = 
REMARK  6 active torsions:
REMARK  status: ('A' for Active; 'I' for Inactive)
REMARK    1  A    between atoms: C_1  and  C_2
REMARK    2  A    between atoms: C_5  and  N_6
REMARK    3  A    between atoms: C_7  and  C_9
REMARK    4  A    between atoms: C_18  and  N_19
REMARK    5  A    between atoms: N_19  and  S_20
REMARK    6  A    between atoms: S_20  and  C_23
REMARK                            x       y       z     vdW  Elec       q    Type
REMARK                         _______ _______ _______ _____ _____    ______ ____
ROOT
ATOM      1  C   UNL     1       1.261   7.971  20.986  0.00  0.00    +0.000 C 
ATOM      2  C   UNL     1       2.099   7.486  19.839  0.00  0.00    +0.000 A 
ATOM      3  C   UNL     1       2.142   8.263  18.675  0.00  0.00    +0.000 A 
ATOM      4  C   UNL     1       2.892   7.866  17.567  0.00  0.00    +0.000 A 
ATOM      5  C   UNL     1       3.627   6.683  17.584  0.00  0.00    +0.000 A 
ATOM      6  C   UNL     1       3.591   5.898  18.746  0.00  0.00    +0.000 A 
ATOM      7  C   UNL     1       2.825   6.288  19.860  0.00  0.00    +0.000 A 
ENDROOT
BRANCH   5   8
ATOM      8  N   UNL     1       4.412   6.246  16.488  0.00  0.00    +0.000 N 
ATOM      9  C   UNL     1       5.195   5.100  16.457  0.00  0.00    +0.000 C 
ATOM     10  O   UNL     1       5.422   4.347  17.397  0.00  0.00    +0.000 OA
ATOM     11  H   UNL     1       4.457   6.875  15.695  0.00  0.00    +0.000 HD
BRANCH   9  12
ATOM     12  C   UNL     1       5.869   4.788  15.165  0.00  0.00    +0.000 A 
ATOM     13  C   UNL     1       5.244   3.868  14.301  0.00  0.00    +0.000 A 
ATOM     14  C   UNL     1       5.809   3.562  13.060  0.00  0.00    +0.000 A 
ATOM     15  C   UNL     1       6.989   4.187  12.680  0.00  0.00    +0.000 A 
ATOM     16  F   UNL     1       7.534   3.894  11.491  0.00  0.00    +0.000 F 
ATOM     17  C   UNL     1       7.597   5.117  13.520  0.00  0.00    +0.000 A 
ATOM     18  F   UNL     1       8.721   5.733  13.132  0.00  0.00    +0.000 F 
ATOM     19  C   UNL     1       7.046   5.427  14.763  0.00  0.00    +0.000 A 
ENDBRANCH   9  12
ENDBRANCH   5   8
BRANCH   7  20
ATOM     20  N   UNL     1       2.748   5.398  20.965  0.00  0.00    +0.000 N 
ATOM     21  H   UNL     1       3.481   5.409  21.672  0.00  0.00    +0.000 HD
BRANCH  20  22
ATOM     22  S   UNL     1       1.769   4.037  20.942  0.00  0.00    +0.000 S 
ATOM     23  O   UNL     1       1.982   3.369  22.211  0.00  0.00    +0.000 OA
ATOM     24  O   UNL     1       0.439   4.400  20.504  0.00  0.00    +0.000 OA
BRANCH  22  25
ATOM     25  C   UNL     1       2.513   3.020  19.686  0.00  0.00    +0.000 A 
ATOM     26  C   UNL     1       3.682   2.305  19.988  0.00  0.00    +0.000 A 
ATOM     27  C   UNL     1       4.269   1.497  19.014  0.00  0.00    +0.000 A 
ATOM     28  C   UNL     1       3.686   1.395  17.751  0.00  0.00    +0.000 A 
ATOM     29  C   UNL     1       2.512   2.094  17.461  0.00  0.00    +0.000 A 
ATOM     30  C   UNL     1       1.914   2.903  18.429  0.00  0.00    +0.000 A 
ENDBRANCH  22  25
ENDBRANCH  20  22
ENDBRANCH   7  20
TORSDOF 5
ENDMDL
MODEL 6
REMARK VINA RESULT:      -8.9      2.356      4.563
REMARK  Name = 
REMARK  6 active torsions:
REMARK  status: ('A' for Active; 'I' for Inactive)
REMARK    1  A    between atoms: C_1  and  C_2
REMARK    2  A    between atoms: C_5  and  N_6
REMARK    3  A    between atoms: C_7  and  C_9
REMARK    4  A    between atoms: C_18  and  N_19
REMARK    5  A    between atoms: N_19  and  S_20
REMARK    6  A    between atoms: S_20  and  C_23
REMARK                            x       y       z     vdW  Elec       q    Type
REMARK                         _______ _______ _______ _____ _____    ______ ____
ROOT
ATOM      1  C   UNL     1       6.344   4.338  15.667  0.00  0.00    +0.000 C 
ATOM      2  C   UNL     1       5.385   5.137  16.500  0.00  0.00    +0.000 A 
ATOM      3  C   UNL     1       5.270   6.509  16.247  0.00  0.00    +0.000 A 
ATOM      4  C   UNL     1       4.405   7.313  16.992  0.00  0.00    +0.000 A 
ATOM      5  C   UNL     1       3.624   6.775  18.011  0.00  0.00    +0.000 A 
ATOM      6  C   UNL     1       3.731   5.401  18.273  0.00  0.00    +0.000 A 
ATOM      7  C   UNL     1       4.611   4.590  17.533  0.00  0.00    +0.000 A 
ENDROOT
BRANCH   5   8
ATOM      8  N   UNL     1       2.724   7.550  18.786  0.00  0.00    +0.000 N 
ATOM      9  C   UNL     1       2.041   8.678  18.348  0.00  0.00    +0.000 C 
ATOM     10  O   UNL     1       2.187   9.246  17.272  0.00  0.00    +0.000 OA
ATOM     11  H   UNL     1       2.643   7.293  19.762  0.00  0.00    +0.000 HD
BRANCH   9  12
ATOM     12  C   UNL     1       1.077   9.286  19.308  0.00  0.00    +0.000 A 
ATOM     13  C   UNL     1       1.250   9.011  20.679  0.00  0.00    +0.000 A 
ATOM     14  C   UNL     1       0.399   9.580  21.629  0.00  0.00    +0.000 A 
ATOM     15  C   UNL     1      -0.613  10.433  21.210  0.00  0.00    +0.000 A 
ATOM     16  F   UNL     1      -1.432  10.978  22.121  0.00  0.00    +0.000 F 
ATOM     17  C   UNL     1      -0.771  10.727  19.858  0.00  0.00    +0.000 A 
ATOM     18  F   UNL     1      -1.734  11.572  19.467  0.00  0.00    +0.000 F 
ATOM     19  C   UNL     1       0.067  10.162  18.898  0.00  0.00    +0.000 A 
ENDBRANCH   9  12
ENDBRANCH   5   8
BRANCH   7  20
ATOM     20  N   UNL     1       4.750   3.229  17.916  0.00  0.00    +0.000 N 
ATOM     21  H   UNL     1       5.678   2.812  17.969  0.00  0.00    +0.000 HD
BRANCH  20  22
ATOM     22  S   UNL     1       3.464   2.153  17.854  0.00  0.00    +0.000 S 
ATOM     23  O   UNL     1       2.631   2.588  16.750  0.00  0.00    +0.000 OA
ATOM     24  O   UNL     1       3.959   0.796  17.925  0.00  0.00    +0.000 OA
BRANCH  22  25
ATOM     25  C   UNL     1       2.568   2.500  19.351  0.00  0.00    +0.000 A 
ATOM     26  C   UNL     1       3.247   2.468  20.578  0.00  0.00    +0.000 A 
ATOM     27  C   UNL     1       2.558   2.747  21.758  0.00  0.00    +0.000 A 
ATOM     28  C   UNL     1       1.200   3.068  21.711  0.00  0.00    +0.000 A 
ATOM     29  C   UNL     1       0.533   3.118  20.485  0.00  0.00    +0.000 A 
ATOM     30  C   UNL     1       1.215   2.842  19.298  0.00  0.00    +0.000 A 
ENDBRANCH  22  25
ENDBRANCH  20  22
ENDBRANCH   7  20
TORSDOF 5
ENDMDL
MODEL 7
REMARK VINA RESULT:      -8.8      4.609      7.844
REMARK  Name = 
REMARK  6 active torsions:
REMARK  status: ('A' for Active; 'I' for Inactive)
REMARK    1  A    between atoms: C_1  and  C_2
REMARK    2  A    between atoms: C_5  and  N_6
REMARK    3  A    between atoms: C_7  and  C_9
REMARK    4  A    between atoms: C_18  and  N_19
REMARK    5  A    between atoms: N_19  and  S_20
REMARK    6  A    between atoms: S_20  and  C_23
REMARK                            x       y       z     vdW  Elec       q    Type
REMARK                         _______ _______ _______ _____ _____    ______ ____
ROOT
ATOM      1  C   UNL     1       1.284   8.018  21.092  0.00  0.00    +0.000 C 
ATOM      2  C   UNL     1       2.082   7.534  19.917  0.00  0.00    +0.000 A 
ATOM      3  C   UNL     1       2.114   8.328  18.765  0.00  0.00    +0.000 A 
ATOM      4  C   UNL     1       2.827   7.933  17.632  0.00  0.00    +0.000 A 
ATOM      5  C   UNL     1       3.536   6.734  17.612  0.00  0.00    +0.000 A 
ATOM      6  C   UNL     1       3.512   5.932  18.762  0.00  0.00    +0.000 A 
ATOM      7  C   UNL     1       2.783   6.320  19.901  0.00  0.00    +0.000 A 
ENDROOT
BRANCH   5   8
ATOM      8  N   UNL     1       4.283   6.298  16.489  0.00  0.00    +0.000 N 
ATOM      9  C   UNL     1       5.090   5.168  16.441  0.00  0.00    +0.000 C 
ATOM     10  O   UNL     1       5.373   4.434  17.381  0.00  0.00    +0.000 OA
ATOM     11  H   UNL     1       4.281   6.916  15.687  0.00  0.00    +0.000 HD
BRANCH   9  12
ATOM     12  C   UNL     1       5.715   4.853  15.126  0.00  0.00    +0.000 A 
ATOM     13  C   UNL     1       7.011   5.344  14.877  0.00  0.00    +0.000 A 
ATOM     14  C   UNL     1       7.663   5.052  13.677  0.00  0.00    +0.000 A 
ATOM     15  C   UNL     1       7.025   4.258  12.734  0.00  0.00    +0.000 A 
ATOM     16  F   UNL     1       7.648   3.977  11.581  0.00  0.00    +0.000 F 
ATOM     17  C   UNL     1       5.754   3.748  12.987  0.00  0.00    +0.000 A 
ATOM     18  F   UNL     1       5.157   2.961  12.081  0.00  0.00    +0.000 F 
ATOM     19  C   UNL     1       5.089   4.036  14.178  0.00  0.00    +0.000 A 
ENDBRANCH   9  12
ENDBRANCH   5   8
BRANCH   7  20
ATOM     20  N   UNL     1       2.714   5.414  20.994  0.00  0.00    +0.000 N 
ATOM     21  H   UNL     1       3.445   5.424  21.702  0.00  0.00    +0.000 HD
BRANCH  20  22
ATOM     22  S   UNL     1       1.750   4.042  20.950  0.00  0.00    +0.000 S 
ATOM     23  O   UNL     1       1.941   3.378  22.224  0.00  0.00    +0.000 OA
ATOM     24  O   UNL     1       0.427   4.390  20.481  0.00  0.00    +0.000 OA
BRANCH  22  25
ATOM     25  C   UNL     1       2.534   3.032  19.714  0.00  0.00    +0.000 A 
ATOM     26  C   UNL     1       3.721   2.357  20.033  0.00  0.00    +0.000 A 
ATOM     27  C   UNL     1       4.341   1.554  19.074  0.00  0.00    +0.000 A 
ATOM     28  C   UNL     1       3.770   1.418  17.808  0.00  0.00    +0.000 A 
ATOM     29  C   UNL     1       2.577   2.076  17.501  0.00  0.00    +0.000 A 
ATOM     30  C   UNL     1       1.948   2.880  18.454  0.00  0.00    +0.000 A 
ENDBRANCH  22  25
ENDBRANCH  20  22
ENDBRANCH   7  20
TORSDOF 5
ENDMDL
MODEL 8
REMARK VINA RESULT:      -8.8      1.260      1.711
REMARK  Name = 
REMARK  6 active torsions:
REMARK  status: ('A' for Active; 'I' for Inactive)
REMARK    1  A    between atoms: C_1  and  C_2
REMARK    2  A    between atoms: C_5  and  N_6
REMARK    3  A    between atoms: C_7  and  C_9
REMARK    4  A    between atoms: C_18  and  N_19
REMARK    5  A    between atoms: N_19  and  S_20
REMARK    6  A    between atoms: S_20  and  C_23
REMARK                            x       y       z     vdW  Elec       q    Type
REMARK                         _______ _______ _______ _____ _____    ______ ____
ROOT
ATOM      1  C   UNL     1       4.272   2.142  17.724  0.00  0.00    +0.000 C 
ATOM      2  C   UNL     1       3.730   3.381  18.374  0.00  0.00    +0.000 A 
ATOM      3  C   UNL     1       3.031   3.245  19.580  0.00  0.00    +0.000 A 
ATOM      4  C   UNL     1       2.490   4.355  20.232  0.00  0.00    +0.000 A 
ATOM      5  C   UNL     1       2.633   5.637  19.707  0.00  0.00    +0.000 A 
ATOM      6  C   UNL     1       3.333   5.783  18.500  0.00  0.00    +0.000 A 
ATOM      7  C   UNL     1       3.867   4.666  17.832  0.00  0.00    +0.000 A 
ENDROOT
BRANCH   5   8
ATOM      8  N   UNL     1       2.112   6.793  20.341  0.00  0.00    +0.000 N 
ATOM      9  C   UNL     1       1.708   7.956  19.699  0.00  0.00    +0.000 C 
ATOM     10  O   UNL     1       1.837   8.214  18.508  0.00  0.00    +0.000 OA
ATOM     11  H   UNL     1       2.114   6.783  21.353  0.00  0.00    +0.000 HD
BRANCH   9  12
ATOM     12  C   UNL     1       1.108   9.016  20.558  0.00  0.00    +0.000 A 
ATOM     13  C   UNL     1       0.776  10.244  19.955  0.00  0.00    +0.000 A 
ATOM     14  C   UNL     1       0.179  11.263  20.700  0.00  0.00    +0.000 A 
ATOM     15  C   UNL     1      -0.099  11.048  22.044  0.00  0.00    +0.000 A 
ATOM     16  F   UNL     1      -0.671  12.025  22.761  0.00  0.00    +0.000 F 
ATOM     17  C   UNL     1       0.204   9.825  22.638  0.00  0.00    +0.000 A 
ATOM     18  F   UNL     1      -0.092   9.618  23.928  0.00  0.00    +0.000 F 
ATOM     19  C   UNL     1       0.805   8.801  21.907  0.00  0.00    +0.000 A 
ENDBRANCH   9  12
ENDBRANCH   5   8
BRANCH   7  20
ATOM     20  N   UNL     1       4.473   4.871  16.563  0.00  0.00    +0.000 N 
ATOM     21  H   UNL     1       4.023   4.505  15.726  0.00  0.00    +0.000 HD
BRANCH  20  22
ATOM     22  S   UNL     1       6.091   5.284  16.408  0.00  0.00    +0.000 S 
ATOM     23  O   UNL     1       6.143   6.731  16.471  0.00  0.00    +0.000 OA
ATOM     24  O   UNL     1       6.890   4.469  17.298  0.00  0.00    +0.000 OA
BRANCH  22  25
ATOM     25  C   UNL     1       6.472   4.821  14.733  0.00  0.00    +0.000 A 
ATOM     26  C   UNL     1       5.646   3.900  14.073  0.00  0.00    +0.000 A 
ATOM     27  C   UNL     1       5.929   3.536  12.756  0.00  0.00    +0.000 A 
ATOM     28  C   UNL     1       7.024   4.098  12.100  0.00  0.00    +0.000 A 
ATOM     29  C   UNL     1       7.833   5.029  12.754  0.00  0.00    +0.000 A 
ATOM     30  C   UNL     1       7.556   5.402  14.072  0.00  0.00    +0.000 A 
ENDBRANCH  22  25
ENDBRANCH  20  22
ENDBRANCH   7  20
TORSDOF 5
ENDMDL
MODEL 9
REMARK VINA RESULT:      -8.8      1.662      2.255
REMARK  Name = 
REMARK  6 active torsions:
REMARK  status: ('A' for Active; 'I' for Inactive)
REMARK    1  A    between atoms: C_1  and  C_2
REMARK    2  A    between atoms: C_5  and  N_6
REMARK    3  A    between atoms: C_7  and  C_9
REMARK    4  A    between atoms: C_18  and  N_19
REMARK    5  A    between atoms: N_19  and  S_20
REMARK    6  A    between atoms: S_20  and  C_23
REMARK                            x       y       z     vdW  Elec       q    Type
REMARK                         _______ _______ _______ _____ _____    ______ ____
ROOT
ATOM      1  C   UNL     1       4.143   1.933  18.054  0.00  0.00    +0.000 C 
ATOM      2  C   UNL     1       3.690   3.324  18.388  0.00  0.00    +0.000 A 
ATOM      3  C   UNL     1       2.362   3.672  18.114  0.00  0.00    +0.000 A 
ATOM      4  C   UNL     1       1.878   4.952  18.388  0.00  0.00    +0.000 A 
ATOM      5  C   UNL     1       2.700   5.926  18.950  0.00  0.00    +0.000 A 
ATOM      6  C   UNL     1       4.032   5.586  19.230  0.00  0.00    +0.000 A 
ATOM      7  C   UNL     1       4.528   4.301  18.942  0.00  0.00    +0.000 A 
ENDROOT
BRANCH   5   8
ATOM      8  N   UNL     1       2.249   7.234  19.257  0.00  0.00    +0.000 N 
ATOM      9  C   UNL     1       2.151   8.290  18.360  0.00  0.00    +0.000 C 
ATOM     10  O   UNL     1       2.538   8.296  17.197  0.00  0.00    +0.000 OA
ATOM     11  H   UNL     1       2.060   7.421  20.234  0.00  0.00    +0.000 HD
BRANCH   9  12
ATOM     12  C   UNL     1       1.566   9.556  18.884  0.00  0.00    +0.000 A 
ATOM     13  C   UNL     1       0.828   9.496  20.082  0.00  0.00    +0.000 A 
ATOM     14  C   UNL     1       0.285  10.655  20.641  0.00  0.00    +0.000 A 
ATOM     15  C   UNL     1       0.493  11.874  20.010  0.00  0.00    +0.000 A 
ATOM     16  F   UNL     1      -0.028  12.987  20.544  0.00  0.00    +0.000 F 
ATOM     17  C   UNL     1       1.244  11.942  18.839  0.00  0.00    +0.000 A 
ATOM     18  F   UNL     1       1.461  13.126  18.253  0.00  0.00    +0.000 F 
ATOM     19  C   UNL     1       1.787  10.792  18.267  0.00  0.00    +0.000 A 
ENDBRANCH   9  12
ENDBRANCH   5   8
BRANCH   7  20
ATOM     20  N   UNL     1       5.911   4.054  19.152  0.00  0.00    +0.000 N 
ATOM     21  H   UNL     1       6.216   3.595  20.008  0.00  0.00    +0.000 HD
BRANCH  20  22
ATOM     22  S   UNL     1       7.099   4.867  18.291  0.00  0.00    +0.000 S 
ATOM     23  O   UNL     1       7.097   6.227  18.790  0.00  0.00    +0.000 OA
ATOM     24  O   UNL     1       8.314   4.080  18.274  0.00  0.00    +0.000 OA
BRANCH  22  25
ATOM     25  C   UNL     1       6.443   4.917  16.638  0.00  0.00    +0.000 A 
ATOM     26  C   UNL     1       6.611   3.805  15.801  0.00  0.00    +0.000 A 
ATOM     27  C   UNL     1       6.094   3.829  14.506  0.00  0.00    +0.000 A 
ATOM     28  C   UNL     1       5.402   4.953  14.054  0.00  0.00    +0.000 A 
ATOM     29  C   UNL     1       5.220   6.051  14.898  0.00  0.00    +0.000 A 
ATOM     30  C   UNL     1       5.733   6.036  16.197  0.00  0.00    +0.000 A 
ENDBRANCH  22  25
ENDBRANCH  20  22
ENDBRANCH   7  20
TORSDOF 5
ENDMDL
