MODEL 1
REMARK VINA RESULT:      -8.4      0.000      0.000
REMARK  Name = 
REMARK  4 active torsions:
REMARK  status: ('A' for Active; 'I' for Inactive)
REMARK    1  A    between atoms: C_1  and  C_2
REMARK    2  A    between atoms: C_6  and  C_7
REMARK    3  A    between atoms: C_7  and  C_8
REMARK    4  A    between atoms: N_10  and  C_11
REMARK                            x       y       z     vdW  Elec       q    Type
REMARK                         _______ _______ _______ _____ _____    ______ ____
ROOT
ATOM      1  C   UNL     1       2.728   6.078  19.523  0.00  0.00    +0.000 C 
ATOM      2  O   UNL     1       3.319   6.136  20.615  0.00  0.00    +0.000 OA
ATOM      3  N   UNL     1       1.843   7.092  19.178  0.00  0.00    +0.000 N 
ATOM      4  H   UNL     1       1.642   7.252  18.203  0.00  0.00    +0.000 HD
ENDROOT
BRANCH   3   5
ATOM      5  C   UNL     1       1.775   8.260  20.087  0.00  0.00    +0.000 C 
ATOM      6  C   UNL     1       1.100   7.967  21.443  0.00  0.00    +0.000 C 
ATOM      7  C   UNL     1      -0.303   8.537  21.641  0.00  0.00    +0.000 C 
ATOM      8  C   UNL     1      -0.437   9.941  21.067  0.00  0.00    +0.000 C 
ATOM      9  N   UNL     1      -0.123   9.846  19.654  0.00  0.00    +0.000 N 
ATOM     10  C   UNL     1      -1.004  10.239  18.652  0.00  0.00    +0.000 A 
ATOM     11  N   UNL     1      -1.003   9.613  17.498  0.00  0.00    +0.000 NA
ATOM     12  C   UNL     1      -1.927   9.992  16.558  0.00  0.00    +0.000 A 
ATOM     13  C   UNL     1      -2.824  10.973  16.709  0.00  0.00    +0.000 A 
ATOM     14  N   UNL     1      -2.865  11.688  17.866  0.00  0.00    +0.000 N 
ATOM     15  C   UNL     1      -2.002  11.432  18.906  0.00  0.00    +0.000 A 
ATOM     16  O   UNL     1      -1.997  12.098  19.930  0.00  0.00    +0.000 OA
ATOM     17  C   UNL     1       1.280   9.541  19.363  0.00  0.00    +0.000 C 
ATOM     18  H   UNL     1      -3.512  12.455  17.994  0.00  0.00    +0.000 HD
ENDBRANCH   3   5
BRANCH   1  19
ATOM     19  C   UNL     1       2.959   4.846  18.589  0.00  0.00    +0.000 C 
ATOM     20  C   UNL     1       3.611   3.605  19.246  0.00  0.00    +0.000 C 
ATOM     21  C   UNL     1       2.769   2.922  20.324  0.00  0.00    +0.000 C 
ATOM     22  C   UNL     1       1.338   2.633  19.891  0.00  0.00    +0.000 C 
ATOM     23  C   UNL     1       0.661   3.822  19.229  0.00  0.00    +0.000 C 
ATOM     24  C   UNL     1       1.524   4.418  18.120  0.00  0.00    +0.000 C 
BRANCH  19  30
ATOM     25  C   UNL     1       5.996   3.609  14.676  0.00  0.00    +0.000 C 
ATOM     26  C   UNL     1       5.333   4.685  15.488  0.00  0.00    +0.000 A 
ATOM     27  C   UNL     1       5.592   6.037  15.269  0.00  0.00    +0.000 A 
ATOM     28  C   UNL     1       4.986   6.996  16.071  0.00  0.00    +0.000 A 
ATOM     29  C   UNL     1       4.129   6.619  17.117  0.00  0.00    +0.000 A 
ATOM     30  C   UNL     1       3.844   5.266  17.372  0.00  0.00    +0.000 A 
ATOM     31  C   UNL     1       4.449   4.320  16.519  0.00  0.00    +0.000 A 
ENDBRANCH  19  30
ENDBRANCH   1  19
TORSDOF 3
ENDMDL
MODEL 2
REMARK VINA RESULT:      -7.9      2.067      3.123
REMARK  Name = 
REMARK  4 active torsions:
REMARK  status: ('A' for Active; 'I' for Inactive)
REMARK    1  A    between atoms: C_1  and  C_2
REMARK    2  A    between atoms: C_6  and  C_7
REMARK    3  A    between atoms: C_7  and  C_8
REMARK    4  A    between atoms: N_10  and  C_11
REMARK                            x       y       z     vdW  Elec       q    Type
REMARK                         _______ _______ _______ _____ _____    ______ ____
ROOT
ATOM      1  C   UNL     1       2.440   6.245  18.147  0.00  0.00    +0.000 C 
ATOM      2  O   UNL     1       1.655   5.997  17.217  0.00  0.00    +0.000 OA
ATOM      3  N   UNL     1       2.633   7.564  18.537  0.00  0.00    +0.000 N 
ATOM      4  H   UNL     1       2.960   7.753  19.472  0.00  0.00    +0.000 HD
ENDROOT
BRANCH   3   5
ATOM      5  C   UNL     1       1.766   8.583  17.900  0.00  0.00    +0.000 C 
ATOM      6  C   UNL     1       2.514   9.857  17.451  0.00  0.00    +0.000 C 
ATOM      7  C   UNL     1       2.285  11.111  18.293  0.00  0.00    +0.000 C 
ATOM      8  C   UNL     1       0.832  11.253  18.726  0.00  0.00    +0.000 C 
ATOM      9  N   UNL     1       0.507  10.064  19.490  0.00  0.00    +0.000 N 
ATOM     10  C   UNL     1       0.046  10.106  20.802  0.00  0.00    +0.000 A 
ATOM     11  N   UNL     1       0.349   9.136  21.633  0.00  0.00    +0.000 NA
ATOM     12  C   UNL     1      -0.076   9.245  22.933  0.00  0.00    +0.000 A 
ATOM     13  C   UNL     1      -0.801  10.254  23.426  0.00  0.00    +0.000 A 
ATOM     14  N   UNL     1      -1.180  11.281  22.618  0.00  0.00    +0.000 N 
ATOM     15  C   UNL     1      -0.836  11.319  21.287  0.00  0.00    +0.000 A 
ATOM     16  O   UNL     1      -1.210  12.211  20.540  0.00  0.00    +0.000 OA
ATOM     17  C   UNL     1       0.460   8.830  18.702  0.00  0.00    +0.000 C 
ATOM     18  H   UNL     1      -1.755  12.041  22.957  0.00  0.00    +0.000 HD
ENDBRANCH   3   5
BRANCH   1  19
ATOM     19  C   UNL     1       3.224   5.073  18.824  0.00  0.00    +0.000 C 
ATOM     20  C   UNL     1       3.251   5.076  20.372  0.00  0.00    +0.000 C 
ATOM     21  C   UNL     1       1.896   4.868  21.047  0.00  0.00    +0.000 C 
ATOM     22  C   UNL     1       1.122   3.672  20.508  0.00  0.00    +0.000 C 
ATOM     23  C   UNL     1       1.079   3.621  18.990  0.00  0.00    +0.000 C 
ATOM     24  C   UNL     1       2.469   3.771  18.380  0.00  0.00    +0.000 C 
BRANCH  19  30
ATOM     25  C   UNL     1       6.639   4.240  15.122  0.00  0.00    +0.000 C 
ATOM     26  C   UNL     1       6.369   4.646  16.542  0.00  0.00    +0.000 A 
ATOM     27  C   UNL     1       7.401   4.885  17.449  0.00  0.00    +0.000 A 
ATOM     28  C   UNL     1       7.102   5.221  18.764  0.00  0.00    +0.000 A 
ATOM     29  C   UNL     1       5.771   5.302  19.199  0.00  0.00    +0.000 A 
ATOM     30  C   UNL     1       4.702   5.065  18.317  0.00  0.00    +0.000 A 
ATOM     31  C   UNL     1       5.038   4.760  16.982  0.00  0.00    +0.000 A 
ENDBRANCH  19  30
ENDBRANCH   1  19
TORSDOF 3
ENDMDL
MODEL 3
REMARK VINA RESULT:      -7.8      2.123      3.320
REMARK  Name = 
REMARK  4 active torsions:
REMARK  status: ('A' for Active; 'I' for Inactive)
REMARK    1  A    between atoms: C_1  and  C_2
REMARK    2  A    between atoms: C_6  and  C_7
REMARK    3  A    between atoms: C_7  and  C_8
REMARK    4  A    between atoms: N_10  and  C_11
REMARK                            x       y       z     vdW  Elec       q    Type
REMARK                         _______ _______ _______ _____ _____    ______ ____
ROOT
ATOM      1  C   UNL     1       2.412   6.064  18.148  0.00  0.00    +0.000 C 
ATOM      2  O   UNL     1       1.665   5.832  17.181  0.00  0.00    +0.000 OA
ATOM      3  N   UNL     1       2.589   7.377  18.566  0.00  0.00    +0.000 N 
ATOM      4  H   UNL     1       2.877   7.550  19.517  0.00  0.00    +0.000 HD
ENDROOT
BRANCH   3   5
ATOM      5  C   UNL     1       1.750   8.407  17.911  0.00  0.00    +0.000 C 
ATOM      6  C   UNL     1       2.531   9.651  17.438  0.00  0.00    +0.000 C 
ATOM      7  C   UNL     1       2.337  10.927  18.257  0.00  0.00    +0.000 C 
ATOM      8  C   UNL     1       0.889  11.115  18.688  0.00  0.00    +0.000 C 
ATOM      9  N   UNL     1       0.532   9.950  19.474  0.00  0.00    +0.000 N 
ATOM     10  C   UNL     1       0.072  10.029  20.784  0.00  0.00    +0.000 A 
ATOM     11  N   UNL     1       0.350   9.066  21.633  0.00  0.00    +0.000 NA
ATOM     12  C   UNL     1      -0.071   9.211  22.931  0.00  0.00    +0.000 A 
ATOM     13  C   UNL     1      -0.769  10.249  23.405  0.00  0.00    +0.000 A 
ATOM     14  N   UNL     1      -1.120  11.270  22.578  0.00  0.00    +0.000 N 
ATOM     15  C   UNL     1      -0.775  11.274  21.247  0.00  0.00    +0.000 A 
ATOM     16  O   UNL     1      -1.126  12.161  20.483  0.00  0.00    +0.000 OA
ATOM     17  C   UNL     1       0.451   8.704  18.708  0.00  0.00    +0.000 C 
ATOM     18  H   UNL     1      -1.674  12.052  22.904  0.00  0.00    +0.000 HD
ENDBRANCH   3   5
BRANCH   1  19
ATOM     19  C   UNL     1       3.167   4.880  18.837  0.00  0.00    +0.000 C 
ATOM     20  C   UNL     1       3.241   4.928  20.383  0.00  0.00    +0.000 C 
ATOM     21  C   UNL     1       1.898   4.797  21.103  0.00  0.00    +0.000 C 
ATOM     22  C   UNL     1       1.059   3.620  20.624  0.00  0.00    +0.000 C 
ATOM     23  C   UNL     1       0.969   3.526  19.109  0.00  0.00    +0.000 C 
ATOM     24  C   UNL     1       2.345   3.599  18.455  0.00  0.00    +0.000 C 
BRANCH  19  30
ATOM     25  C   UNL     1       8.151   5.870  19.321  0.00  0.00    +0.000 C 
ATOM     26  C   UNL     1       7.039   5.286  18.498  0.00  0.00    +0.000 A 
ATOM     27  C   UNL     1       7.255   4.796  17.211  0.00  0.00    +0.000 A 
ATOM     28  C   UNL     1       6.189   4.300  16.472  0.00  0.00    +0.000 A 
ATOM     29  C   UNL     1       4.887   4.307  16.996  0.00  0.00    +0.000 A 
ATOM     30  C   UNL     1       4.627   4.795  18.289  0.00  0.00    +0.000 A 
ATOM     31  C   UNL     1       5.736   5.260  19.026  0.00  0.00    +0.000 A 
ENDBRANCH  19  30
ENDBRANCH   1  19
TORSDOF 3
ENDMDL
MODEL 4
REMARK VINA RESULT:      -7.8      0.798      1.317
REMARK  Name = 
REMARK  4 active torsions:
REMARK  status: ('A' for Active; 'I' for Inactive)
REMARK    1  A    between atoms: C_1  and  C_2
REMARK    2  A    between atoms: C_6  and  C_7
REMARK    3  A    between atoms: C_7  and  C_8
REMARK    4  A    between atoms: N_10  and  C_11
REMARK                            x       y       z     vdW  Elec       q    Type
REMARK                         _______ _______ _______ _____ _____    ______ ____
ROOT
ATOM      1  C   UNL     1       2.877   5.881  19.348  0.00  0.00    +0.000 C 
ATOM      2  O   UNL     1       3.368   5.886  20.490  0.00  0.00    +0.000 OA
ATOM      3  N   UNL     1       2.078   6.945  18.950  0.00  0.00    +0.000 N 
ATOM      4  H   UNL     1       1.976   7.135  17.965  0.00  0.00    +0.000 HD
ENDROOT
BRANCH   3   5
ATOM      5  C   UNL     1       1.984   8.095  19.879  0.00  0.00    +0.000 C 
ATOM      6  C   UNL     1       1.334   7.759  21.238  0.00  0.00    +0.000 C 
ATOM      7  C   UNL     1      -0.084   8.282  21.460  0.00  0.00    +0.000 C 
ATOM      8  C   UNL     1      -0.268   9.690  20.910  0.00  0.00    +0.000 C 
ATOM      9  N   UNL     1       0.032   9.627  19.493  0.00  0.00    +0.000 N 
ATOM     10  C   UNL     1      -0.872  10.009  18.507  0.00  0.00    +0.000 A 
ATOM     11  N   UNL     1      -0.864   9.401  17.343  0.00  0.00    +0.000 NA
ATOM     12  C   UNL     1      -1.810   9.766  16.420  0.00  0.00    +0.000 A 
ATOM     13  C   UNL     1      -2.735  10.716  16.596  0.00  0.00    +0.000 A 
ATOM     14  N   UNL     1      -2.786  11.411  17.765  0.00  0.00    +0.000 N 
ATOM     15  C   UNL     1      -1.904  11.165  18.791  0.00  0.00    +0.000 A 
ATOM     16  O   UNL     1      -1.908  11.814  19.826  0.00  0.00    +0.000 OA
ATOM     17  C   UNL     1       1.441   9.372  19.182  0.00  0.00    +0.000 C 
ATOM     18  H   UNL     1      -3.455  12.155  17.913  0.00  0.00    +0.000 HD
ENDBRANCH   3   5
BRANCH   1  19
ATOM     19  C   UNL     1       3.134   4.658  18.407  0.00  0.00    +0.000 C 
ATOM     20  C   UNL     1       3.417   3.307  19.107  0.00  0.00    +0.000 C 
ATOM     21  C   UNL     1       2.253   2.736  19.916  0.00  0.00    +0.000 C 
ATOM     22  C   UNL     1       0.937   2.698  19.151  0.00  0.00    +0.000 C 
ATOM     23  C   UNL     1       0.622   4.002  18.436  0.00  0.00    +0.000 C 
ATOM     24  C   UNL     1       1.801   4.485  17.597  0.00  0.00    +0.000 C 
BRANCH  19  30
ATOM     25  C   UNL     1       7.361   7.304  17.317  0.00  0.00    +0.000 C 
ATOM     26  C   UNL     1       6.369   6.255  16.904  0.00  0.00    +0.000 A 
ATOM     27  C   UNL     1       6.415   5.653  15.648  0.00  0.00    +0.000 A 
ATOM     28  C   UNL     1       5.452   4.715  15.295  0.00  0.00    +0.000 A 
ATOM     29  C   UNL     1       4.417   4.381  16.181  0.00  0.00    +0.000 A 
ATOM     30  C   UNL     1       4.333   4.968  17.456  0.00  0.00    +0.000 A 
ATOM     31  C   UNL     1       5.345   5.890  17.796  0.00  0.00    +0.000 A 
ENDBRANCH  19  30
ENDBRANCH   1  19
TORSDOF 3
ENDMDL
MODEL 5
REMARK VINA RESULT:      -7.5      3.899      6.481
REMARK  Name = 
REMARK  4 active torsions:
REMARK  status: ('A' for Active; 'I' for Inactive)
REMARK    1  A    between atoms: C_1  and  C_2
REMARK    2  A    between atoms: C_6  and  C_7
REMARK    3  A    between atoms: C_7  and  C_8
REMARK    4  A    between atoms: N_10  and  C_11
REMARK                            x       y       z     vdW  Elec       q    Type
REMARK                         _______ _______ _______ _____ _____    ______ ____
ROOT
ATOM      1  C   UNL     1       5.001   5.535  16.571  0.00  0.00    +0.000 C 
ATOM      2  O   UNL     1       4.314   4.514  16.401  0.00  0.00    +0.000 OA
ATOM      3  N   UNL     1       4.393   6.688  17.051  0.00  0.00    +0.000 N 
ATOM      4  H   UNL     1       4.959   7.379  17.519  0.00  0.00    +0.000 HD
ENDROOT
BRANCH   3   5
ATOM      5  C   UNL     1       2.976   6.573  17.467  0.00  0.00    +0.000 C 
ATOM      6  C   UNL     1       2.512   7.678  18.441  0.00  0.00    +0.000 C 
ATOM      7  C   UNL     1       2.310   7.259  19.896  0.00  0.00    +0.000 C 
ATOM      8  C   UNL     1       1.660   5.887  20.012  0.00  0.00    +0.000 C 
ATOM      9  N   UNL     1       2.535   4.951  19.333  0.00  0.00    +0.000 N 
ATOM     10  C   UNL     1       3.085   3.836  19.956  0.00  0.00    +0.000 A 
ATOM     11  N   UNL     1       4.270   3.402  19.592  0.00  0.00    +0.000 NA
ATOM     12  C   UNL     1       4.802   2.336  20.272  0.00  0.00    +0.000 A 
ATOM     13  C   UNL     1       4.200   1.677  21.268  0.00  0.00    +0.000 A 
ATOM     14  N   UNL     1       2.958   2.049  21.680  0.00  0.00    +0.000 N 
ATOM     15  C   UNL     1       2.287   3.099  21.097  0.00  0.00    +0.000 A 
ATOM     16  O   UNL     1       1.152   3.412  21.425  0.00  0.00    +0.000 OA
ATOM     17  C   UNL     1       2.598   5.125  17.880  0.00  0.00    +0.000 C 
ATOM     18  H   UNL     1       2.467   1.549  22.410  0.00  0.00    +0.000 HD
ENDBRANCH   3   5
BRANCH   1  19
ATOM     19  C   UNL     1       6.520   5.510  16.198  0.00  0.00    +0.000 C 
ATOM     20  C   UNL     1       7.300   6.826  16.432  0.00  0.00    +0.000 C 
ATOM     21  C   UNL     1       7.428   7.256  17.893  0.00  0.00    +0.000 C 
ATOM     22  C   UNL     1       7.919   6.148  18.816  0.00  0.00    +0.000 C 
ATOM     23  C   UNL     1       7.188   4.832  18.613  0.00  0.00    +0.000 C 
ATOM     24  C   UNL     1       7.150   4.427  17.142  0.00  0.00    +0.000 C 
BRANCH  19  30
ATOM     25  C   UNL     1       5.080   2.745  12.155  0.00  0.00    +0.000 C 
ATOM     26  C   UNL     1       6.016   3.765  12.737  0.00  0.00    +0.000 A 
ATOM     27  C   UNL     1       7.102   4.261  12.018  0.00  0.00    +0.000 A 
ATOM     28  C   UNL     1       7.965   5.176  12.611  0.00  0.00    +0.000 A 
ATOM     29  C   UNL     1       7.769   5.591  13.937  0.00  0.00    +0.000 A 
ATOM     30  C   UNL     1       6.687   5.112  14.697  0.00  0.00    +0.000 A 
ATOM     31  C   UNL     1       5.812   4.211  14.055  0.00  0.00    +0.000 A 
ENDBRANCH  19  30
ENDBRANCH   1  19
TORSDOF 3
ENDMDL
MODEL 6
REMARK VINA RESULT:      -7.4      4.805      7.938
REMARK  Name = 
REMARK  4 active torsions:
REMARK  status: ('A' for Active; 'I' for Inactive)
REMARK    1  A    between atoms: C_1  and  C_2
REMARK    2  A    between atoms: C_6  and  C_7
REMARK    3  A    between atoms: C_7  and  C_8
REMARK    4  A    between atoms: N_10  and  C_11
REMARK                            x       y       z     vdW  Elec       q    Type
REMARK                         _______ _______ _______ _____ _____    ______ ____
ROOT
ATOM      1  C   UNL     1      -0.818  12.101  19.478  0.00  0.00    +0.000 C 
ATOM      2  O   UNL     1      -0.099  12.970  18.957  0.00  0.00    +0.000 OA
ATOM      3  N   UNL     1      -1.484  12.394  20.662  0.00  0.00    +0.000 N 
ATOM      4  H   UNL     1      -2.313  11.870  20.897  0.00  0.00    +0.000 HD
ENDROOT
BRANCH   3   5
ATOM      5  C   UNL     1      -1.399  13.790  21.149  0.00  0.00    +0.000 C 
ATOM      6  C   UNL     1      -0.494  13.974  22.385  0.00  0.00    +0.000 C 
ATOM      7  C   UNL     1      -1.203  14.227  23.715  0.00  0.00    +0.000 C 
ATOM      8  C   UNL     1      -2.396  15.160  23.559  0.00  0.00    +0.000 C 
ATOM      9  N   UNL     1      -3.299  14.530  22.615  0.00  0.00    +0.000 N 
ATOM     10  C   UNL     1      -4.622  14.224  22.917  0.00  0.00    +0.000 A 
ATOM     11  N   UNL     1      -5.190  13.174  22.372  0.00  0.00    +0.000 NA
ATOM     12  C   UNL     1      -6.476  12.872  22.742  0.00  0.00    +0.000 A 
ATOM     13  C   UNL     1      -7.218  13.579  23.601  0.00  0.00    +0.000 A 
ATOM     14  N   UNL     1      -6.708  14.699  24.183  0.00  0.00    +0.000 N 
ATOM     15  C   UNL     1      -5.432  15.136  23.915  0.00  0.00    +0.000 A 
ATOM     16  O   UNL     1      -4.979  16.165  24.394  0.00  0.00    +0.000 OA
ATOM     17  C   UNL     1      -2.793  14.467  21.242  0.00  0.00    +0.000 C 
ATOM     18  H   UNL     1      -7.258  15.268  24.813  0.00  0.00    +0.000 HD
ENDBRANCH   3   5
BRANCH   1  19
ATOM     19  C   UNL     1      -0.921  10.688  18.814  0.00  0.00    +0.000 C 
ATOM     20  C   UNL     1       0.377  10.142  18.171  0.00  0.00    +0.000 C 
ATOM     21  C   UNL     1       1.517   9.856  19.149  0.00  0.00    +0.000 C 
ATOM     22  C   UNL     1       1.097   9.018  20.349  0.00  0.00    +0.000 C 
ATOM     23  C   UNL     1      -0.182   9.511  21.006  0.00  0.00    +0.000 C 
ATOM     24  C   UNL     1      -1.298   9.717  19.987  0.00  0.00    +0.000 C 
BRANCH  19  30
ATOM     25  C   UNL     1      -5.517  12.187  17.173  0.00  0.00    +0.000 C 
ATOM     26  C   UNL     1      -4.263  11.401  16.917  0.00  0.00    +0.000 A 
ATOM     27  C   UNL     1      -4.123  10.584  15.797  0.00  0.00    +0.000 A 
ATOM     28  C   UNL     1      -2.960   9.844  15.621  0.00  0.00    +0.000 A 
ATOM     29  C   UNL     1      -1.929   9.892  16.571  0.00  0.00    +0.000 A 
ATOM     30  C   UNL     1      -2.032  10.702  17.716  0.00  0.00    +0.000 A 
ATOM     31  C   UNL     1      -3.211  11.465  17.848  0.00  0.00    +0.000 A 
ENDBRANCH  19  30
ENDBRANCH   1  19
TORSDOF 3
ENDMDL
MODEL 7
REMARK VINA RESULT:      -7.4      2.256      3.411
REMARK  Name = 
REMARK  4 active torsions:
REMARK  status: ('A' for Active; 'I' for Inactive)
REMARK    1  A    between atoms: C_1  and  C_2
REMARK    2  A    between atoms: C_6  and  C_7
REMARK    3  A    between atoms: C_7  and  C_8
REMARK    4  A    between atoms: N_10  and  C_11
REMARK                            x       y       z     vdW  Elec       q    Type
REMARK                         _______ _______ _______ _____ _____    ______ ____
ROOT
ATOM      1  C   UNL     1       2.840   7.045  17.939  0.00  0.00    +0.000 C 
ATOM      2  O   UNL     1       2.936   7.250  16.717  0.00  0.00    +0.000 OA
ATOM      3  N   UNL     1       2.184   7.978  18.732  0.00  0.00    +0.000 N 
ATOM      4  H   UNL     1       1.792   7.680  19.612  0.00  0.00    +0.000 HD
ENDROOT
BRANCH   3   5
ATOM      5  C   UNL     1       1.511   9.096  18.032  0.00  0.00    +0.000 C 
ATOM      6  C   UNL     1       2.442  10.278  17.687  0.00  0.00    +0.000 C 
ATOM      7  C   UNL     1       2.272  11.543  18.528  0.00  0.00    +0.000 C 
ATOM      8  C   UNL     1       0.808  11.849  18.813  0.00  0.00    +0.000 C 
ATOM      9  N   UNL     1       0.271  10.699  19.515  0.00  0.00    +0.000 N 
ATOM     10  C   UNL     1      -0.316  10.783  20.773  0.00  0.00    +0.000 A 
ATOM     11  N   UNL     1      -0.214   9.776  21.611  0.00  0.00    +0.000 NA
ATOM     12  C   UNL     1      -0.756   9.922  22.862  0.00  0.00    +0.000 A 
ATOM     13  C   UNL     1      -1.409  11.005  23.300  0.00  0.00    +0.000 A 
ATOM     14  N   UNL     1      -1.581  12.076  22.478  0.00  0.00    +0.000 N 
ATOM     15  C   UNL     1      -1.098  12.085  21.191  0.00  0.00    +0.000 A 
ATOM     16  O   UNL     1      -1.288  13.021  20.428  0.00  0.00    +0.000 OA
ATOM     17  C   UNL     1       0.165   9.486  18.701  0.00  0.00    +0.000 C 
ATOM     18  H   UNL     1      -2.097  12.895  22.774  0.00  0.00    +0.000 HD
ENDBRANCH   3   5
BRANCH   1  19
ATOM     19  C   UNL     1       3.498   5.769  18.559  0.00  0.00    +0.000 C 
ATOM     20  C   UNL     1       3.287   5.563  20.078  0.00  0.00    +0.000 C 
ATOM     21  C   UNL     1       1.842   5.309  20.506  0.00  0.00    +0.000 C 
ATOM     22  C   UNL     1       1.147   4.221  19.697  0.00  0.00    +0.000 C 
ATOM     23  C   UNL     1       1.337   4.376  18.198  0.00  0.00    +0.000 C 
ATOM     24  C   UNL     1       2.806   4.563  17.831  0.00  0.00    +0.000 C 
BRANCH  19  30
ATOM     25  C   UNL     1       7.798   8.323  17.536  0.00  0.00    +0.000 C 
ATOM     26  C   UNL     1       7.121   7.003  17.768  0.00  0.00    +0.000 A 
ATOM     27  C   UNL     1       7.797   5.793  17.614  0.00  0.00    +0.000 A 
ATOM     28  C   UNL     1       7.119   4.594  17.801  0.00  0.00    +0.000 A 
ATOM     29  C   UNL     1       5.754   4.584  18.123  0.00  0.00    +0.000 A 
ATOM     30  C   UNL     1       5.036   5.783  18.284  0.00  0.00    +0.000 A 
ATOM     31  C   UNL     1       5.760   6.982  18.121  0.00  0.00    +0.000 A 
ENDBRANCH  19  30
ENDBRANCH   1  19
TORSDOF 3
ENDMDL
MODEL 8
REMARK VINA RESULT:      -7.4      5.593     10.301
REMARK  Name = 
REMARK  4 active torsions:
REMARK  status: ('A' for Active; 'I' for Inactive)
REMARK    1  A    between atoms: C_1  and  C_2
REMARK    2  A    between atoms: C_6  and  C_7
REMARK    3  A    between atoms: C_7  and  C_8
REMARK    4  A    between atoms: N_10  and  C_11
REMARK                            x       y       z     vdW  Elec       q    Type
REMARK                         _______ _______ _______ _____ _____    ______ ____
ROOT
ATOM      1  C   UNL     1      -4.917  13.098  22.530  0.00  0.00    +0.000 C 
ATOM      2  O   UNL     1      -4.548  12.474  23.539  0.00  0.00    +0.000 OA
ATOM      3  N   UNL     1      -4.014  13.929  21.879  0.00  0.00    +0.000 N 
ATOM      4  H   UNL     1      -4.166  14.147  20.907  0.00  0.00    +0.000 HD
ENDROOT
BRANCH   3   5
ATOM      5  C   UNL     1      -2.613  13.900  22.359  0.00  0.00    +0.000 C 
ATOM      6  C   UNL     1      -1.825  15.199  22.087  0.00  0.00    +0.000 C 
ATOM      7  C   UNL     1      -0.775  15.137  20.979  0.00  0.00    +0.000 C 
ATOM      8  C   UNL     1      -0.003  13.824  20.994  0.00  0.00    +0.000 C 
ATOM      9  N   UNL     1      -0.979  12.765  20.827  0.00  0.00    +0.000 N 
ATOM     10  C   UNL     1      -0.923  11.836  19.793  0.00  0.00    +0.000 A 
ATOM     11  N   UNL     1      -2.035  11.343  19.297  0.00  0.00    +0.000 NA
ATOM     12  C   UNL     1      -1.939  10.476  18.238  0.00  0.00    +0.000 A 
ATOM     13  C   UNL     1      -0.796  10.067  17.676  0.00  0.00    +0.000 A 
ATOM     14  N   UNL     1       0.398  10.511  18.156  0.00  0.00    +0.000 N 
ATOM     15  C   UNL     1       0.472  11.384  19.216  0.00  0.00    +0.000 A 
ATOM     16  O   UNL     1       1.538  11.752  19.686  0.00  0.00    +0.000 OA
ATOM     17  C   UNL     1      -1.883  12.587  21.966  0.00  0.00    +0.000 C 
ATOM     18  H   UNL     1       1.277  10.194  17.769  0.00  0.00    +0.000 HD
ENDBRANCH   3   5
BRANCH   1  19
ATOM     19  C   UNL     1      -6.399  12.968  22.045  0.00  0.00    +0.000 C 
ATOM     20  C   UNL     1      -7.425  12.506  23.108  0.00  0.00    +0.000 C 
ATOM     21  C   UNL     1      -7.645  13.479  24.267  0.00  0.00    +0.000 C 
ATOM     22  C   UNL     1      -7.915  14.910  23.820  0.00  0.00    +0.000 C 
ATOM     23  C   UNL     1      -6.937  15.403  22.767  0.00  0.00    +0.000 C 
ATOM     24  C   UNL     1      -6.810  14.418  21.608  0.00  0.00    +0.000 C 
BRANCH  19  30
ATOM     25  C   UNL     1      -5.284  11.769  17.210  0.00  0.00    +0.000 C 
ATOM     26  C   UNL     1      -5.961  11.391  18.496  0.00  0.00    +0.000 A 
ATOM     27  C   UNL     1      -6.759  10.253  18.600  0.00  0.00    +0.000 A 
ATOM     28  C   UNL     1      -7.398   9.964  19.800  0.00  0.00    +0.000 A 
ATOM     29  C   UNL     1      -7.268  10.817  20.906  0.00  0.00    +0.000 A 
ATOM     30  C   UNL     1      -6.474  11.976  20.841  0.00  0.00    +0.000 A 
ATOM     31  C   UNL     1      -5.813  12.223  19.620  0.00  0.00    +0.000 A 
ENDBRANCH  19  30
ENDBRANCH   1  19
TORSDOF 3
ENDMDL
MODEL 9
REMARK VINA RESULT:      -7.3      4.750      7.818
REMARK  Name = 
REMARK  4 active torsions:
REMARK  status: ('A' for Active; 'I' for Inactive)
REMARK    1  A    between atoms: C_1  and  C_2
REMARK    2  A    between atoms: C_6  and  C_7
REMARK    3  A    between atoms: C_7  and  C_8
REMARK    4  A    between atoms: N_10  and  C_11
REMARK                            x       y       z     vdW  Elec       q    Type
REMARK                         _______ _______ _______ _____ _____    ______ ____
ROOT
ATOM      1  C   UNL     1      -0.739  12.107  19.619  0.00  0.00    +0.000 C 
ATOM      2  O   UNL     1       0.162  12.860  19.213  0.00  0.00    +0.000 OA
ATOM      3  N   UNL     1      -1.519  12.505  20.698  0.00  0.00    +0.000 N 
ATOM      4  H   UNL     1      -2.438  12.105  20.808  0.00  0.00    +0.000 HD
ENDROOT
BRANCH   3   5
ATOM      5  C   UNL     1      -1.310  13.882  21.202  0.00  0.00    +0.000 C 
ATOM      6  C   UNL     1      -0.404  13.968  22.449  0.00  0.00    +0.000 C 
ATOM      7  C   UNL     1      -1.100  14.271  23.775  0.00  0.00    +0.000 C 
ATOM      8  C   UNL     1      -2.199  15.313  23.619  0.00  0.00    +0.000 C 
ATOM      9  N   UNL     1      -3.147  14.779  22.660  0.00  0.00    +0.000 N 
ATOM     10  C   UNL     1      -4.496  14.594  22.946  0.00  0.00    +0.000 A 
ATOM     11  N   UNL     1      -5.154  13.607  22.383  0.00  0.00    +0.000 NA
ATOM     12  C   UNL     1      -6.466  13.423  22.738  0.00  0.00    +0.000 A 
ATOM     13  C   UNL     1      -7.148  14.187  23.599  0.00  0.00    +0.000 A 
ATOM     14  N   UNL     1      -6.541  15.247  24.199  0.00  0.00    +0.000 N 
ATOM     15  C   UNL     1      -5.228  15.566  23.947  0.00  0.00    +0.000 A 
ATOM     16  O   UNL     1      -4.686  16.544  24.442  0.00  0.00    +0.000 OA
ATOM     17  C   UNL     1      -2.636  14.684  21.290  0.00  0.00    +0.000 C 
ATOM     18  H   UNL     1      -7.042  15.859  24.830  0.00  0.00    +0.000 HD
ENDBRANCH   3   5
BRANCH   1  19
ATOM     19  C   UNL     1      -0.943  10.714  18.937  0.00  0.00    +0.000 C 
ATOM     20  C   UNL     1       0.269  10.157  18.151  0.00  0.00    +0.000 C 
ATOM     21  C   UNL     1       1.496   9.822  18.999  0.00  0.00    +0.000 C 
ATOM     22  C   UNL     1       1.182   8.963  20.217  0.00  0.00    +0.000 C 
ATOM     23  C   UNL     1      -0.010   9.467  21.014  0.00  0.00    +0.000 C 
ATOM     24  C   UNL     1      -1.220   9.721  20.120  0.00  0.00    +0.000 C 
BRANCH  19  30
ATOM     25  C   UNL     1      -2.976   9.912  14.324  0.00  0.00    +0.000 C 
ATOM     26  C   UNL     1      -3.153  10.416  15.727  0.00  0.00    +0.000 A 
ATOM     27  C   UNL     1      -4.321  11.056  16.138  0.00  0.00    +0.000 A 
ATOM     28  C   UNL     1      -4.425  11.541  17.436  0.00  0.00    +0.000 A 
ATOM     29  C   UNL     1      -3.357  11.414  18.337  0.00  0.00    +0.000 A 
ATOM     30  C   UNL     1      -2.160  10.778  17.961  0.00  0.00    +0.000 A 
ATOM     31  C   UNL     1      -2.100  10.268  16.647  0.00  0.00    +0.000 A 
ENDBRANCH  19  30
ENDBRANCH   1  19
TORSDOF 3
ENDMDL
