MODEL 1
REMARK VINA RESULT:      -8.6      0.000      0.000
REMARK  Name = 
REMARK  2 active torsions:
REMARK  status: ('A' for Active; 'I' for Inactive)
REMARK    1  A    between atoms: C_2  and  C_3
REMARK    2  A    between atoms: C_17  and  C_18
REMARK                            x       y       z     vdW  Elec       q    Type
REMARK                         _______ _______ _______ _____ _____    ______ ____
ROOT
ATOM      1  O   UNL     1       1.228  10.543  21.296  0.00  0.00    +0.000 OA
ATOM      2  C   UNL     1       0.559  10.270  20.305  0.00  0.00    +0.000 C 
ATOM      3  N   UNL     1      -0.714  10.735  20.093  0.00  0.00    +0.000 N 
ATOM      4  C   UNL     1      -1.326  11.680  21.062  0.00  0.00    +0.000 C 
ATOM      5  C   UNL     1      -1.682  12.873  20.155  0.00  0.00    +0.000 C 
ATOM      6  C   UNL     1      -2.336  11.955  19.115  0.00  0.00    +0.000 A 
ATOM      7  C   UNL     1      -3.640  11.921  18.648  0.00  0.00    +0.000 A 
ATOM      8  C   UNL     1      -4.036  10.815  17.884  0.00  0.00    +0.000 A 
ATOM      9  C   UNL     1      -3.105   9.845  17.486  0.00  0.00    +0.000 A 
ATOM     10  C   UNL     1      -1.803   9.872  17.976  0.00  0.00    +0.000 A 
ATOM     11  C   UNL     1      -1.525  10.820  18.940  0.00  0.00    +0.000 A 
ENDROOT
BRANCH   2  12
ATOM     12  C   UNL     1       1.167   9.330  19.384  0.00  0.00    +0.000 A 
ATOM     13  C   UNL     1       1.696   9.736  18.169  0.00  0.00    +0.000 A 
ATOM     14  N   UNL     1       2.556   8.969  17.447  0.00  0.00    +0.000 NA
ATOM     15  C   UNL     1       2.900   7.779  17.992  0.00  0.00    +0.000 A 
ATOM     16  N   UNL     1       3.936   7.080  17.411  0.00  0.00    +0.000 N 
ATOM     17  C   UNL     1       4.476   5.953  17.958  0.00  0.00    +0.000 A 
ATOM     18  O   UNL     1       5.494   5.439  17.513  0.00  0.00    +0.000 OA
ATOM     19  N   UNL     1       3.832   5.424  19.038  0.00  0.00    +0.000 N 
ATOM     20  C   UNL     1       2.769   5.998  19.693  0.00  0.00    +0.000 A 
ATOM     21  O   UNL     1       2.216   5.482  20.649  0.00  0.00    +0.000 OA
ATOM     22  C   UNL     1       2.351   7.293  19.174  0.00  0.00    +0.000 A 
ATOM     23  C   UNL     1       1.500   8.090  19.900  0.00  0.00    +0.000 A 
ATOM     24  H   UNL     1       4.419   7.518  16.636  0.00  0.00    +0.000 HD
ATOM     25  H   UNL     1       4.201   4.578  19.438  0.00  0.00    +0.000 HD
ENDBRANCH   2  12
BRANCH   5  26
ATOM     26  C   UNL     1      -0.305  13.510  19.777  0.00  0.00    +0.000 A 
ATOM     27  C   UNL     1       0.238  13.417  18.484  0.00  0.00    +0.000 A 
ATOM     28  C   UNL     1       1.628  13.465  18.296  0.00  0.00    +0.000 A 
ATOM     29  C   UNL     1       2.486  13.632  19.383  0.00  0.00    +0.000 A 
ATOM     30  C   UNL     1       1.955  13.873  20.642  0.00  0.00    +0.000 A 
ATOM     31  C   UNL     1       0.570  13.881  20.824  0.00  0.00    +0.000 A 
ENDBRANCH   5  26
TORSDOF 2
ENDMDL
MODEL 2
REMARK VINA RESULT:      -8.2      4.912      7.863
REMARK  Name = 
REMARK  2 active torsions:
REMARK  status: ('A' for Active; 'I' for Inactive)
REMARK    1  A    between atoms: C_2  and  C_3
REMARK    2  A    between atoms: C_17  and  C_18
REMARK                            x       y       z     vdW  Elec       q    Type
REMARK                         _______ _______ _______ _____ _____    ______ ____
ROOT
ATOM      1  O   UNL     1       3.304   3.293  16.459  0.00  0.00    +0.000 OA
ATOM      2  C   UNL     1       3.440   4.282  17.171  0.00  0.00    +0.000 C 
ATOM      3  N   UNL     1       2.473   4.745  18.026  0.00  0.00    +0.000 N 
ATOM      4  C   UNL     1       1.201   3.993  18.178  0.00  0.00    +0.000 C 
ATOM      5  C   UNL     1       1.174   3.725  19.695  0.00  0.00    +0.000 C 
ATOM      6  C   UNL     1       1.507   5.189  20.012  0.00  0.00    +0.000 A 
ATOM      7  C   UNL     1       0.788   6.134  20.726  0.00  0.00    +0.000 A 
ATOM      8  C   UNL     1       1.201   7.471  20.649  0.00  0.00    +0.000 A 
ATOM      9  C   UNL     1       2.388   7.820  19.987  0.00  0.00    +0.000 A 
ATOM     10  C   UNL     1       3.094   6.870  19.254  0.00  0.00    +0.000 A 
ATOM     11  C   UNL     1       2.509   5.626  19.129  0.00  0.00    +0.000 A 
ENDROOT
BRANCH   2  12
ATOM     12  C   UNL     1       4.680   5.012  16.990  0.00  0.00    +0.000 A 
ATOM     13  C   UNL     1       4.842   5.935  15.970  0.00  0.00    +0.000 A 
ATOM     14  N   UNL     1       5.834   6.864  15.968  0.00  0.00    +0.000 NA
ATOM     15  C   UNL     1       6.658   6.865  17.043  0.00  0.00    +0.000 A 
ATOM     16  N   UNL     1       7.524   7.926  17.190  0.00  0.00    +0.000 N 
ATOM     17  C   UNL     1       8.286   8.119  18.305  0.00  0.00    +0.000 A 
ATOM     18  O   UNL     1       8.928   9.146  18.483  0.00  0.00    +0.000 OA
ATOM     19  N   UNL     1       8.297   7.112  19.225  0.00  0.00    +0.000 N 
ATOM     20  C   UNL     1       7.510   5.986  19.183  0.00  0.00    +0.000 A 
ATOM     21  O   UNL     1       7.562   5.104  20.024  0.00  0.00    +0.000 OA
ATOM     22  C   UNL     1       6.583   5.922  18.062  0.00  0.00    +0.000 A 
ATOM     23  C   UNL     1       5.561   5.003  18.058  0.00  0.00    +0.000 A 
ATOM     24  H   UNL     1       7.465   8.676  16.512  0.00  0.00    +0.000 HD
ATOM     25  H   UNL     1       8.874   7.226  20.040  0.00  0.00    +0.000 HD
ENDBRANCH   2  12
BRANCH   5  26
ATOM     26  C   UNL     1       2.304   2.671  19.933  0.00  0.00    +0.000 A 
ATOM     27  C   UNL     1       3.399   2.918  20.779  0.00  0.00    +0.000 A 
ATOM     28  C   UNL     1       4.623   2.267  20.557  0.00  0.00    +0.000 A 
ATOM     29  C   UNL     1       4.761   1.350  19.517  0.00  0.00    +0.000 A 
ATOM     30  C   UNL     1       3.648   0.989  18.771  0.00  0.00    +0.000 A 
ATOM     31  C   UNL     1       2.414   1.594  19.023  0.00  0.00    +0.000 A 
ENDBRANCH   5  26
TORSDOF 2
ENDMDL
MODEL 3
REMARK VINA RESULT:      -8.2      0.653      1.086
REMARK  Name = 
REMARK  2 active torsions:
REMARK  status: ('A' for Active; 'I' for Inactive)
REMARK    1  A    between atoms: C_2  and  C_3
REMARK    2  A    between atoms: C_17  and  C_18
REMARK                            x       y       z     vdW  Elec       q    Type
REMARK                         _______ _______ _______ _____ _____    ______ ____
ROOT
ATOM      1  O   UNL     1       1.202  10.430  21.540  0.00  0.00    +0.000 OA
ATOM      2  C   UNL     1       0.533  10.252  20.527  0.00  0.00    +0.000 C 
ATOM      3  N   UNL     1      -0.725  10.768  20.344  0.00  0.00    +0.000 N 
ATOM      4  C   UNL     1      -1.317  11.655  21.378  0.00  0.00    +0.000 C 
ATOM      5  C   UNL     1      -1.631  12.923  20.562  0.00  0.00    +0.000 C 
ATOM      6  C   UNL     1      -2.303  12.105  19.452  0.00  0.00    +0.000 A 
ATOM      7  C   UNL     1      -3.604  12.145  18.976  0.00  0.00    +0.000 A 
ATOM      8  C   UNL     1      -4.026  11.111  18.129  0.00  0.00    +0.000 A 
ATOM      9  C   UNL     1      -3.120  10.147  17.664  0.00  0.00    +0.000 A 
ATOM     10  C   UNL     1      -1.821  10.099  18.162  0.00  0.00    +0.000 A 
ATOM     11  C   UNL     1      -1.524  10.964  19.196  0.00  0.00    +0.000 A 
ENDROOT
BRANCH   2  12
ATOM     12  C   UNL     1       1.121   9.367  19.541  0.00  0.00    +0.000 A 
ATOM     13  C   UNL     1       1.605   9.839  18.332  0.00  0.00    +0.000 A 
ATOM     14  N   UNL     1       2.449   9.120  17.546  0.00  0.00    +0.000 NA
ATOM     15  C   UNL     1       2.825   7.909  18.019  0.00  0.00    +0.000 A 
ATOM     16  N   UNL     1       3.849   7.253  17.371  0.00  0.00    +0.000 N 
ATOM     17  C   UNL     1       4.419   6.107  17.844  0.00  0.00    +0.000 A 
ATOM     18  O   UNL     1       5.427   5.628  17.341  0.00  0.00    +0.000 OA
ATOM     19  N   UNL     1       3.817   5.517  18.915  0.00  0.00    +0.000 N 
ATOM     20  C   UNL     1       2.769   6.044  19.632  0.00  0.00    +0.000 A 
ATOM     21  O   UNL     1       2.253   5.474  20.578  0.00  0.00    +0.000 OA
ATOM     22  C   UNL     1       2.320   7.357  19.192  0.00  0.00    +0.000 A 
ATOM     23  C   UNL     1       1.484   8.107  19.984  0.00  0.00    +0.000 A 
ATOM     24  H   UNL     1       4.301   7.735  16.603  0.00  0.00    +0.000 HD
ATOM     25  H   UNL     1       4.207   4.657  19.261  0.00  0.00    +0.000 HD
ENDBRANCH   2  12
BRANCH   5  26
ATOM     26  C   UNL     1      -0.234  13.546  20.240  0.00  0.00    +0.000 A 
ATOM     27  C   UNL     1       0.701  13.857  21.242  0.00  0.00    +0.000 A 
ATOM     28  C   UNL     1       1.640  14.879  21.038  0.00  0.00    +0.000 A 
ATOM     29  C   UNL     1       1.677  15.581  19.833  0.00  0.00    +0.000 A 
ATOM     30  C   UNL     1       0.859  15.182  18.786  0.00  0.00    +0.000 A 
ATOM     31  C   UNL     1      -0.041  14.129  18.966  0.00  0.00    +0.000 A 
ENDBRANCH   5  26
TORSDOF 2
ENDMDL
MODEL 4
REMARK VINA RESULT:      -8.1      0.952      1.321
REMARK  Name = 
REMARK  2 active torsions:
REMARK  status: ('A' for Active; 'I' for Inactive)
REMARK    1  A    between atoms: C_2  and  C_3
REMARK    2  A    between atoms: C_17  and  C_18
REMARK                            x       y       z     vdW  Elec       q    Type
REMARK                         _______ _______ _______ _____ _____    ______ ____
ROOT
ATOM      1  O   UNL     1       1.400   9.771  21.475  0.00  0.00    +0.000 OA
ATOM      2  C   UNL     1       0.877   9.612  20.376  0.00  0.00    +0.000 C 
ATOM      3  N   UNL     1      -0.243  10.286  19.961  0.00  0.00    +0.000 N 
ATOM      4  C   UNL     1      -0.845  11.327  20.834  0.00  0.00    +0.000 C 
ATOM      5  C   UNL     1      -0.830  12.559  19.909  0.00  0.00    +0.000 C 
ATOM      6  C   UNL     1      -1.440  11.761  18.750  0.00  0.00    +0.000 A 
ATOM      7  C   UNL     1      -2.630  11.949  18.065  0.00  0.00    +0.000 A 
ATOM      8  C   UNL     1      -3.070  10.923  17.217  0.00  0.00    +0.000 A 
ATOM      9  C   UNL     1      -2.262   9.806  16.961  0.00  0.00    +0.000 A 
ATOM     10  C   UNL     1      -1.079   9.611  17.668  0.00  0.00    +0.000 A 
ATOM     11  C   UNL     1      -0.816  10.503  18.689  0.00  0.00    +0.000 A 
ENDROOT
BRANCH   2  12
ATOM     12  C   UNL     1       1.467   8.577  19.550  0.00  0.00    +0.000 A 
ATOM     13  C   UNL     1       2.098   8.870  18.352  0.00  0.00    +0.000 A 
ATOM     14  N   UNL     1       2.940   8.001  17.732  0.00  0.00    +0.000 NA
ATOM     15  C   UNL     1       3.160   6.824  18.362  0.00  0.00    +0.000 A 
ATOM     16  N   UNL     1       4.173   6.019  17.890  0.00  0.00    +0.000 N 
ATOM     17  C   UNL     1       4.591   4.891  18.533  0.00  0.00    +0.000 A 
ATOM     18  O   UNL     1       5.593   4.278  18.184  0.00  0.00    +0.000 OA
ATOM     19  N   UNL     1       3.845   4.474  19.595  0.00  0.00    +0.000 N 
ATOM     20  C   UNL     1       2.790   5.162  20.147  0.00  0.00    +0.000 A 
ATOM     21  O   UNL     1       2.141   4.745  21.092  0.00  0.00    +0.000 OA
ATOM     22  C   UNL     1       2.503   6.450  19.531  0.00  0.00    +0.000 A 
ATOM     23  C   UNL     1       1.672   7.349  20.155  0.00  0.00    +0.000 A 
ATOM     24  H   UNL     1       4.734   6.374  17.125  0.00  0.00    +0.000 HD
ATOM     25  H   UNL     1       4.123   3.630  20.065  0.00  0.00    +0.000 HD
ENDBRANCH   2  12
BRANCH   5  26
ATOM     26  C   UNL     1       0.679  12.948  19.788  0.00  0.00    +0.000 A 
ATOM     27  C   UNL     1       1.465  13.275  20.907  0.00  0.00    +0.000 A 
ATOM     28  C   UNL     1       2.568  14.131  20.768  0.00  0.00    +0.000 A 
ATOM     29  C   UNL     1       2.915  14.647  19.520  0.00  0.00    +0.000 A 
ATOM     30  C   UNL     1       2.237  14.214  18.389  0.00  0.00    +0.000 A 
ATOM     31  C   UNL     1       1.173  13.319  18.515  0.00  0.00    +0.000 A 
ENDBRANCH   5  26
TORSDOF 2
ENDMDL
MODEL 5
REMARK VINA RESULT:      -8.1      2.553      7.853
REMARK  Name = 
REMARK  2 active torsions:
REMARK  status: ('A' for Active; 'I' for Inactive)
REMARK    1  A    between atoms: C_2  and  C_3
REMARK    2  A    between atoms: C_17  and  C_18
REMARK                            x       y       z     vdW  Elec       q    Type
REMARK                         _______ _______ _______ _____ _____    ______ ____
ROOT
ATOM      1  O   UNL     1       3.286   7.921  16.955  0.00  0.00    +0.000 OA
ATOM      2  C   UNL     1       2.841   7.119  17.770  0.00  0.00    +0.000 C 
ATOM      3  N   UNL     1       3.017   5.762  17.677  0.00  0.00    +0.000 N 
ATOM      4  C   UNL     1       3.845   5.198  16.581  0.00  0.00    +0.000 C 
ATOM      5  C   UNL     1       4.902   4.398  17.366  0.00  0.00    +0.000 C 
ATOM      6  C   UNL     1       3.828   3.737  18.240  0.00  0.00    +0.000 A 
ATOM      7  C   UNL     1       3.502   2.400  18.396  0.00  0.00    +0.000 A 
ATOM      8  C   UNL     1       2.309   2.087  19.063  0.00  0.00    +0.000 A 
ATOM      9  C   UNL     1       1.545   3.090  19.677  0.00  0.00    +0.000 A 
ATOM     10  C   UNL     1       1.865   4.433  19.498  0.00  0.00    +0.000 A 
ATOM     11  C   UNL     1       2.886   4.711  18.611  0.00  0.00    +0.000 A 
ENDROOT
BRANCH   2  12
ATOM     12  C   UNL     1       2.018   7.690  18.818  0.00  0.00    +0.000 A 
ATOM     13  C   UNL     1       2.257   7.430  20.158  0.00  0.00    +0.000 A 
ATOM     14  N   UNL     1       1.742   8.190  21.159  0.00  0.00    +0.000 NA
ATOM     15  C   UNL     1       0.991   9.251  20.781  0.00  0.00    +0.000 A 
ATOM     16  N   UNL     1       0.644  10.172  21.746  0.00  0.00    +0.000 N 
ATOM     17  C   UNL     1       0.029  11.356  21.461  0.00  0.00    +0.000 A 
ATOM     18  O   UNL     1      -0.127  12.226  22.308  0.00  0.00    +0.000 OA
ATOM     19  N   UNL     1      -0.402  11.533  20.180  0.00  0.00    +0.000 N 
ATOM     20  C   UNL     1      -0.156  10.680  19.130  0.00  0.00    +0.000 A 
ATOM     21  O   UNL     1      -0.572  10.874  18.000  0.00  0.00    +0.000 OA
ATOM     22  C   UNL     1       0.664   9.521  19.456  0.00  0.00    +0.000 A 
ATOM     23  C   UNL     1       1.211   8.754  18.456  0.00  0.00    +0.000 A 
ATOM     24  H   UNL     1       1.012  10.032  22.679  0.00  0.00    +0.000 HD
ATOM     25  H   UNL     1      -0.882  12.389  19.958  0.00  0.00    +0.000 HD
ENDBRANCH   2  12
BRANCH   5  26
ATOM     26  C   UNL     1       5.801   5.482  18.042  0.00  0.00    +0.000 A 
ATOM     27  C   UNL     1       6.327   6.575  17.332  0.00  0.00    +0.000 A 
ATOM     28  C   UNL     1       7.522   7.181  17.751  0.00  0.00    +0.000 A 
ATOM     29  C   UNL     1       8.188   6.727  18.889  0.00  0.00    +0.000 A 
ATOM     30  C   UNL     1       7.601   5.748  19.679  0.00  0.00    +0.000 A 
ATOM     31  C   UNL     1       6.384   5.180  19.296  0.00  0.00    +0.000 A 
ENDBRANCH   5  26
TORSDOF 2
ENDMDL
MODEL 6
REMARK VINA RESULT:      -8.0      2.354      8.285
REMARK  Name = 
REMARK  2 active torsions:
REMARK  status: ('A' for Active; 'I' for Inactive)
REMARK    1  A    between atoms: C_2  and  C_3
REMARK    2  A    between atoms: C_17  and  C_18
REMARK                            x       y       z     vdW  Elec       q    Type
REMARK                         _______ _______ _______ _____ _____    ______ ____
ROOT
ATOM      1  O   UNL     1       2.384   5.561  20.811  0.00  0.00    +0.000 OA
ATOM      2  C   UNL     1       3.028   6.057  19.891  0.00  0.00    +0.000 C 
ATOM      3  N   UNL     1       4.199   5.529  19.409  0.00  0.00    +0.000 N 
ATOM      4  C   UNL     1       4.713   4.249  19.959  0.00  0.00    +0.000 C 
ATOM      5  C   UNL     1       4.825   3.384  18.689  0.00  0.00    +0.000 C 
ATOM      6  C   UNL     1       5.550   4.501  17.929  0.00  0.00    +0.000 A 
ATOM      7  C   UNL     1       6.814   4.520  17.360  0.00  0.00    +0.000 A 
ATOM      8  C   UNL     1       7.331   5.756  16.947  0.00  0.00    +0.000 A 
ATOM      9  C   UNL     1       6.539   6.913  16.977  0.00  0.00    +0.000 A 
ATOM     10  C   UNL     1       5.279   6.893  17.570  0.00  0.00    +0.000 A 
ATOM     11  C   UNL     1       4.917   5.724  18.208  0.00  0.00    +0.000 A 
ENDROOT
BRANCH   2  12
ATOM     12  C   UNL     1       2.518   7.316  19.384  0.00  0.00    +0.000 A 
ATOM     13  C   UNL     1       2.427   7.574  18.026  0.00  0.00    +0.000 A 
ATOM     14  N   UNL     1       1.662   8.575  17.516  0.00  0.00    +0.000 NA
ATOM     15  C   UNL     1       0.956   9.306  18.410  0.00  0.00    +0.000 A 
ATOM     16  N   UNL     1      -0.000  10.170  17.924  0.00  0.00    +0.000 N 
ATOM     17  C   UNL     1      -0.878  10.840  18.725  0.00  0.00    +0.000 A 
ATOM     18  O   UNL     1      -1.818  11.477  18.268  0.00  0.00    +0.000 OA
ATOM     19  N   UNL     1      -0.667  10.761  20.070  0.00  0.00    +0.000 N 
ATOM     20  C   UNL     1       0.272   9.966  20.685  0.00  0.00    +0.000 A 
ATOM     21  O   UNL     1       0.434   9.937  21.893  0.00  0.00    +0.000 OA
ATOM     22  C   UNL     1       1.060   9.135  19.787  0.00  0.00    +0.000 A 
ATOM     23  C   UNL     1       1.822   8.105  20.283  0.00  0.00    +0.000 A 
ATOM     24  H   UNL     1      -0.160  10.177  16.924  0.00  0.00    +0.000 HD
ATOM     25  H   UNL     1      -1.288  11.270  20.675  0.00  0.00    +0.000 HD
ENDBRANCH   2  12
BRANCH   5  26
ATOM     26  C   UNL     1       3.347   3.088  18.278  0.00  0.00    +0.000 A 
ATOM     27  C   UNL     1       2.669   3.844  17.306  0.00  0.00    +0.000 A 
ATOM     28  C   UNL     1       1.270   3.959  17.350  0.00  0.00    +0.000 A 
ATOM     29  C   UNL     1       0.534   3.305  18.337  0.00  0.00    +0.000 A 
ATOM     30  C   UNL     1       1.179   2.439  19.209  0.00  0.00    +0.000 A 
ATOM     31  C   UNL     1       2.564   2.279  19.135  0.00  0.00    +0.000 A 
ENDBRANCH   5  26
TORSDOF 2
ENDMDL
MODEL 7
REMARK VINA RESULT:      -7.8      2.535      8.320
REMARK  Name = 
REMARK  2 active torsions:
REMARK  status: ('A' for Active; 'I' for Inactive)
REMARK    1  A    between atoms: C_2  and  C_3
REMARK    2  A    between atoms: C_17  and  C_18
REMARK                            x       y       z     vdW  Elec       q    Type
REMARK                         _______ _______ _______ _____ _____    ______ ____
ROOT
ATOM      1  O   UNL     1       3.323   5.318  20.539  0.00  0.00    +0.000 OA
ATOM      2  C   UNL     1       3.588   5.747  19.420  0.00  0.00    +0.000 C 
ATOM      3  N   UNL     1       4.430   5.115  18.541  0.00  0.00    +0.000 N 
ATOM      4  C   UNL     1       5.020   3.801  18.900  0.00  0.00    +0.000 C 
ATOM      5  C   UNL     1       4.556   2.918  17.726  0.00  0.00    +0.000 C 
ATOM      6  C   UNL     1       5.006   3.960  16.695  0.00  0.00    +0.000 A 
ATOM      7  C   UNL     1       5.941   3.864  15.677  0.00  0.00    +0.000 A 
ATOM      8  C   UNL     1       6.346   5.046  15.042  0.00  0.00    +0.000 A 
ATOM      9  C   UNL     1       5.721   6.268  15.330  0.00  0.00    +0.000 A 
ATOM     10  C   UNL     1       4.800   6.363  16.369  0.00  0.00    +0.000 A 
ATOM     11  C   UNL     1       4.630   5.236  17.149  0.00  0.00    +0.000 A 
ENDROOT
BRANCH   2  12
ATOM     12  C   UNL     1       3.018   7.042  19.100  0.00  0.00    +0.000 A 
ATOM     13  C   UNL     1       3.048   7.555  17.814  0.00  0.00    +0.000 A 
ATOM     14  N   UNL     1       2.249   8.578  17.411  0.00  0.00    +0.000 NA
ATOM     15  C   UNL     1       1.386   9.066  18.333  0.00  0.00    +0.000 A 
ATOM     16  N   UNL     1       0.409   9.937  17.904  0.00  0.00    +0.000 N 
ATOM     17  C   UNL     1      -0.608  10.370  18.703  0.00  0.00    +0.000 A 
ATOM     18  O   UNL     1      -1.551  11.015  18.262  0.00  0.00    +0.000 OA
ATOM     19  N   UNL     1      -0.534  10.043  20.025  0.00  0.00    +0.000 N 
ATOM     20  C   UNL     1       0.404   9.213  20.590  0.00  0.00    +0.000 A 
ATOM     21  O   UNL     1       0.439   8.957  21.782  0.00  0.00    +0.000 OA
ATOM     22  C   UNL     1       1.359   8.634  19.655  0.00  0.00    +0.000 A 
ATOM     23  C   UNL     1       2.158   7.585  20.040  0.00  0.00    +0.000 A 
ATOM     24  H   UNL     1       0.357  10.129  16.911  0.00  0.00    +0.000 HD
ATOM     25  H   UNL     1      -1.262  10.376  20.634  0.00  0.00    +0.000 HD
ENDBRANCH   2  12
BRANCH   5  26
ATOM     26  C   UNL     1       3.017   2.747  17.940  0.00  0.00    +0.000 A 
ATOM     27  C   UNL     1       2.071   3.547  17.276  0.00  0.00    +0.000 A 
ATOM     28  C   UNL     1       0.816   3.786  17.858  0.00  0.00    +0.000 A 
ATOM     29  C   UNL     1       0.480   3.213  19.084  0.00  0.00    +0.000 A 
ATOM     30  C   UNL     1       1.348   2.305  19.674  0.00  0.00    +0.000 A 
ATOM     31  C   UNL     1       2.576   2.022  19.071  0.00  0.00    +0.000 A 
ENDBRANCH   5  26
TORSDOF 2
ENDMDL
MODEL 8
REMARK VINA RESULT:      -7.6      1.895      3.898
REMARK  Name = 
REMARK  2 active torsions:
REMARK  status: ('A' for Active; 'I' for Inactive)
REMARK    1  A    between atoms: C_2  and  C_3
REMARK    2  A    between atoms: C_17  and  C_18
REMARK                            x       y       z     vdW  Elec       q    Type
REMARK                         _______ _______ _______ _____ _____    ______ ____
ROOT
ATOM      1  O   UNL     1      -1.554  10.108  19.042  0.00  0.00    +0.000 OA
ATOM      2  C   UNL     1      -0.445  10.615  19.181  0.00  0.00    +0.000 C 
ATOM      3  N   UNL     1      -0.167  11.928  18.901  0.00  0.00    +0.000 N 
ATOM      4  C   UNL     1      -1.258  12.839  18.470  0.00  0.00    +0.000 C 
ATOM      5  C   UNL     1      -1.168  13.957  19.525  0.00  0.00    +0.000 C 
ATOM      6  C   UNL     1       0.350  14.075  19.348  0.00  0.00    +0.000 A 
ATOM      7  C   UNL     1       1.122  15.152  18.944  0.00  0.00    +0.000 A 
ATOM      8  C   UNL     1       2.465  14.915  18.621  0.00  0.00    +0.000 A 
ATOM      9  C   UNL     1       3.045  13.656  18.837  0.00  0.00    +0.000 A 
ATOM     10  C   UNL     1       2.261  12.572  19.222  0.00  0.00    +0.000 A 
ATOM     11  C   UNL     1       0.897  12.782  19.266  0.00  0.00    +0.000 A 
ENDROOT
BRANCH   2  12
ATOM     12  C   UNL     1       0.609   9.703  19.581  0.00  0.00    +0.000 A 
ATOM     13  C   UNL     1       0.626   9.111  20.834  0.00  0.00    +0.000 A 
ATOM     14  N   UNL     1       1.382   8.020  21.123  0.00  0.00    +0.000 NA
ATOM     15  C   UNL     1       2.113   7.509  20.104  0.00  0.00    +0.000 A 
ATOM     16  N   UNL     1       2.708   6.281  20.290  0.00  0.00    +0.000 N 
ATOM     17  C   UNL     1       3.334   5.595  19.290  0.00  0.00    +0.000 A 
ATOM     18  O   UNL     1       3.716   4.441  19.435  0.00  0.00    +0.000 OA
ATOM     19  N   UNL     1       3.510   6.253  18.109  0.00  0.00    +0.000 N 
ATOM     20  C   UNL     1       3.000   7.493  17.803  0.00  0.00    +0.000 A 
ATOM     21  O   UNL     1       3.193   8.050  16.735  0.00  0.00    +0.000 OA
ATOM     22  C   UNL     1       2.185   8.100  18.847  0.00  0.00    +0.000 A 
ATOM     23  C   UNL     1       1.398   9.190  18.566  0.00  0.00    +0.000 A 
ATOM     24  H   UNL     1       2.526   5.800  21.163  0.00  0.00    +0.000 HD
ATOM     25  H   UNL     1       3.993   5.773  17.370  0.00  0.00    +0.000 HD
ENDBRANCH   2  12
BRANCH   5  26
ATOM     26  C   UNL     1      -1.682  13.300  20.847  0.00  0.00    +0.000 A 
ATOM     27  C   UNL     1      -2.982  12.783  20.975  0.00  0.00    +0.000 A 
ATOM     28  C   UNL     1      -3.601  12.732  22.234  0.00  0.00    +0.000 A 
ATOM     29  C   UNL     1      -2.928  13.167  23.375  0.00  0.00    +0.000 A 
ATOM     30  C   UNL     1      -1.594  13.540  23.280  0.00  0.00    +0.000 A 
ATOM     31  C   UNL     1      -0.957  13.540  22.038  0.00  0.00    +0.000 A 
ENDBRANCH   5  26
TORSDOF 2
ENDMDL
MODEL 9
REMARK VINA RESULT:      -7.5      4.198      8.230
REMARK  Name = 
REMARK  2 active torsions:
REMARK  status: ('A' for Active; 'I' for Inactive)
REMARK    1  A    between atoms: C_2  and  C_3
REMARK    2  A    between atoms: C_17  and  C_18
REMARK                            x       y       z     vdW  Elec       q    Type
REMARK                         _______ _______ _______ _____ _____    ______ ____
ROOT
ATOM      1  O   UNL     1       0.013  11.837  22.281  0.00  0.00    +0.000 OA
ATOM      2  C   UNL     1      -0.627  12.839  21.981  0.00  0.00    +0.000 C 
ATOM      3  N   UNL     1      -0.234  13.736  21.020  0.00  0.00    +0.000 N 
ATOM      4  C   UNL     1       0.996  13.477  20.228  0.00  0.00    +0.000 C 
ATOM      5  C   UNL     1       0.453  13.508  18.786  0.00  0.00    +0.000 C 
ATOM      6  C   UNL     1      -0.305  14.816  19.044  0.00  0.00    +0.000 A 
ATOM      7  C   UNL     1      -0.182  16.055  18.436  0.00  0.00    +0.000 A 
ATOM      8  C   UNL     1      -0.819  17.149  19.037  0.00  0.00    +0.000 A 
ATOM      9  C   UNL     1      -1.671  16.970  20.136  0.00  0.00    +0.000 A 
ATOM     10  C   UNL     1      -1.774  15.728  20.757  0.00  0.00    +0.000 A 
ATOM     11  C   UNL     1      -0.923  14.740  20.305  0.00  0.00    +0.000 A 
ENDROOT
BRANCH   2  12
ATOM     12  C   UNL     1      -1.812  13.083  22.781  0.00  0.00    +0.000 A 
ATOM     13  C   UNL     1      -1.792  13.935  23.873  0.00  0.00    +0.000 A 
ATOM     14  N   UNL     1      -2.923  14.444  24.430  0.00  0.00    +0.000 NA
ATOM     15  C   UNL     1      -4.091  14.098  23.841  0.00  0.00    +0.000 A 
ATOM     16  N   UNL     1      -5.231  14.768  24.225  0.00  0.00    +0.000 N 
ATOM     17  C   UNL     1      -6.433  14.620  23.597  0.00  0.00    +0.000 A 
ATOM     18  O   UNL     1      -7.391  15.339  23.851  0.00  0.00    +0.000 OA
ATOM     19  N   UNL     1      -6.520  13.634  22.660  0.00  0.00    +0.000 N 
ATOM     20  C   UNL     1      -5.471  12.869  22.208  0.00  0.00    +0.000 A 
ATOM     21  O   UNL     1      -5.597  11.988  21.374  0.00  0.00    +0.000 OA
ATOM     22  C   UNL     1      -4.175  13.196  22.785  0.00  0.00    +0.000 A 
ATOM     23  C   UNL     1      -3.021  12.707  22.221  0.00  0.00    +0.000 A 
ATOM     24  H   UNL     1      -5.127  15.522  24.895  0.00  0.00    +0.000 HD
ATOM     25  H   UNL     1      -7.405  13.493  22.205  0.00  0.00    +0.000 HD
ENDBRANCH   2  12
BRANCH   5  26
ATOM     26  C   UNL     1      -0.401  12.205  18.654  0.00  0.00    +0.000 A 
ATOM     27  C   UNL     1       0.156  10.922  18.793  0.00  0.00    +0.000 A 
ATOM     28  C   UNL     1      -0.429   9.824  18.143  0.00  0.00    +0.000 A 
ATOM     29  C   UNL     1      -1.582   9.985  17.375  0.00  0.00    +0.000 A 
ATOM     30  C   UNL     1      -2.222  11.216  17.353  0.00  0.00    +0.000 A 
ATOM     31  C   UNL     1      -1.673  12.299  18.043  0.00  0.00    +0.000 A 
ENDBRANCH   5  26
TORSDOF 2
ENDMDL
