MODEL 1
REMARK VINA RESULT:      -9.7      0.000      0.000
REMARK  Name = 
REMARK  7 active torsions:
REMARK  status: ('A' for Active; 'I' for Inactive)
REMARK    1  A    between atoms: C_1  and  C_2
REMARK    2  A    between atoms: C_2  and  C_3
REMARK    3  A    between atoms: C_2  and  C_10
REMARK    4  A    between atoms: C_3  and  C_4
REMARK    5  A    between atoms: N_8  and  C_9
REMARK    6  A    between atoms: C_14  and  N_15
REMARK    7  A    between atoms: C_16  and  C_18
REMARK                            x       y       z     vdW  Elec       q    Type
REMARK                         _______ _______ _______ _____ _____    ______ ____
ROOT
ATOM      1  C   UNL     1       4.681   4.929  17.063  0.00  0.00    +0.000 A 
ATOM      2  C   UNL     1       3.935   3.748  16.935  0.00  0.00    +0.000 A 
ATOM      3  C   UNL     1       2.618   3.696  17.375  0.00  0.00    +0.000 A 
ATOM      4  C   UNL     1       2.042   4.812  17.981  0.00  0.00    +0.000 A 
ATOM      5  C   UNL     1       2.772   5.987  18.171  0.00  0.00    +0.000 A 
ATOM      6  C   UNL     1       4.081   6.048  17.679  0.00  0.00    +0.000 A 
ENDROOT
BRANCH   5   7
ATOM      7  N   UNL     1       2.254   7.102  18.871  0.00  0.00    +0.000 N 
ATOM      8  C   UNL     1       2.074   8.360  18.319  0.00  0.00    +0.000 C 
ATOM      9  O   UNL     1       2.353   8.678  17.160  0.00  0.00    +0.000 OA
ATOM     10  H   UNL     1       1.855   6.968  19.794  0.00  0.00    +0.000 HD
BRANCH   8  11
ATOM     11  C   UNL     1       1.462   9.400  19.192  0.00  0.00    +0.000 A 
ATOM     12  C   UNL     1       0.944   8.982  20.414  0.00  0.00    +0.000 A 
ATOM     13  C   UNL     1       0.274   9.900  21.210  0.00  0.00    +0.000 A 
ATOM     14  C   UNL     1       0.137  11.213  20.759  0.00  0.00    +0.000 A 
ATOM     15  C   UNL     1       0.717  11.544  19.531  0.00  0.00    +0.000 A 
ATOM     16  N   UNL     1       1.392  10.678  18.734  0.00  0.00    +0.000 NA
ATOM     17  C   UNL     1      -0.635  12.233  21.550  0.00  0.00    +0.000 C 
ATOM     18  C   UNL     1      -1.196  11.759  22.905  0.00  0.00    +0.000 C 
ATOM     19  C   UNL     1      -0.963  10.321  23.260  0.00  0.00    +0.000 C 
ATOM     20  C   UNL     1      -0.290   9.466  22.484  0.00  0.00    +0.000 C 
ENDBRANCH   8  11
ENDBRANCH   5   7
BRANCH   1  22
ATOM     21  C   UNL     1       7.116   4.635  17.724  0.00  0.00    +0.000 C 
ATOM     22  C   UNL     1       6.129   4.924  16.585  0.00  0.00    +0.000 C 
BRANCH  22  23
ATOM     23  C   UNL     1       6.280   3.944  15.401  0.00  0.00    +0.000 C 
BRANCH  23  24
ATOM     24  C   UNL     1       6.953   4.572  14.228  0.00  0.00    +0.000 A 
ATOM     25  N   UNL     1       7.875   5.514  14.269  0.00  0.00    +0.000 NA
ATOM     26  N   UNL     1       8.269   5.788  12.982  0.00  0.00    +0.000 NA
ATOM     27  C   UNL     1       7.575   5.016  12.181  0.00  0.00    +0.000 A 
ATOM     28  N   UNL     1       6.730   4.243  12.915  0.00  0.00    +0.000 N 
ATOM     29  C   UNL     1       5.809   3.270  12.397  0.00  0.00    +0.000 C 
ENDBRANCH  23  24
ENDBRANCH  22  23
ENDBRANCH   1  22
TORSDOF 5
ENDMDL
MODEL 2
REMARK VINA RESULT:      -8.9      2.155      3.127
REMARK  Name = 
REMARK  7 active torsions:
REMARK  status: ('A' for Active; 'I' for Inactive)
REMARK    1  A    between atoms: C_1  and  C_2
REMARK    2  A    between atoms: C_2  and  C_3
REMARK    3  A    between atoms: C_2  and  C_10
REMARK    4  A    between atoms: C_3  and  C_4
REMARK    5  A    between atoms: N_8  and  C_9
REMARK    6  A    between atoms: C_14  and  N_15
REMARK    7  A    between atoms: C_16  and  C_18
REMARK                            x       y       z     vdW  Elec       q    Type
REMARK                         _______ _______ _______ _____ _____    ______ ____
ROOT
ATOM      1  C   UNL     1       4.671   4.220  16.688  0.00  0.00    +0.000 A 
ATOM      2  C   UNL     1       4.099   2.979  17.005  0.00  0.00    +0.000 A 
ATOM      3  C   UNL     1       2.899   2.915  17.702  0.00  0.00    +0.000 A 
ATOM      4  C   UNL     1       2.274   4.088  18.123  0.00  0.00    +0.000 A 
ATOM      5  C   UNL     1       2.842   5.339  17.870  0.00  0.00    +0.000 A 
ATOM      6  C   UNL     1       4.023   5.397  17.122  0.00  0.00    +0.000 A 
ENDROOT
BRANCH   5   7
ATOM      7  N   UNL     1       2.290   6.542  18.368  0.00  0.00    +0.000 N 
ATOM      8  C   UNL     1       2.048   6.799  19.707  0.00  0.00    +0.000 C 
ATOM      9  O   UNL     1       2.266   6.016  20.636  0.00  0.00    +0.000 OA
ATOM     10  H   UNL     1       2.180   7.334  17.743  0.00  0.00    +0.000 HD
BRANCH   8  11
ATOM     11  C   UNL     1       1.513   8.146  20.052  0.00  0.00    +0.000 A 
ATOM     12  C   UNL     1       0.899   8.288  21.293  0.00  0.00    +0.000 A 
ATOM     13  C   UNL     1       0.297   9.497  21.610  0.00  0.00    +0.000 A 
ATOM     14  C   UNL     1       0.323  10.532  20.674  0.00  0.00    +0.000 A 
ATOM     15  C   UNL     1       0.989  10.302  19.467  0.00  0.00    +0.000 A 
ATOM     16  N   UNL     1       1.602   9.140  19.129  0.00  0.00    +0.000 NA
ATOM     17  C   UNL     1      -0.370  11.840  20.938  0.00  0.00    +0.000 C 
ATOM     18  C   UNL     1      -1.040  11.988  22.318  0.00  0.00    +0.000 C 
ATOM     19  C   UNL     1      -0.979  10.794  23.223  0.00  0.00    +0.000 C 
ATOM     20  C   UNL     1      -0.367   9.651  22.900  0.00  0.00    +0.000 C 
ENDBRANCH   8  11
ENDBRANCH   5   7
BRANCH   1  22
ATOM     21  C   UNL     1       5.828   3.928  14.447  0.00  0.00    +0.000 C 
ATOM     22  C   UNL     1       6.000   4.234  15.941  0.00  0.00    +0.000 C 
BRANCH  22  23
ATOM     23  C   UNL     1       6.725   5.573  16.197  0.00  0.00    +0.000 C 
BRANCH  23  24
ATOM     24  C   UNL     1       7.303   5.649  17.570  0.00  0.00    +0.000 A 
ATOM     25  N   UNL     1       7.503   4.636  18.390  0.00  0.00    +0.000 NA
ATOM     26  N   UNL     1       8.092   5.118  19.534  0.00  0.00    +0.000 NA
ATOM     27  C   UNL     1       8.230   6.414  19.394  0.00  0.00    +0.000 A 
ATOM     28  N   UNL     1       7.743   6.795  18.183  0.00  0.00    +0.000 N 
ATOM     29  C   UNL     1       7.718   8.135  17.664  0.00  0.00    +0.000 C 
ENDBRANCH  23  24
ENDBRANCH  22  23
ENDBRANCH   1  22
TORSDOF 5
ENDMDL
MODEL 3
REMARK VINA RESULT:      -8.7      0.856      1.716
REMARK  Name = 
REMARK  7 active torsions:
REMARK  status: ('A' for Active; 'I' for Inactive)
REMARK    1  A    between atoms: C_1  and  C_2
REMARK    2  A    between atoms: C_2  and  C_3
REMARK    3  A    between atoms: C_2  and  C_10
REMARK    4  A    between atoms: C_3  and  C_4
REMARK    5  A    between atoms: N_8  and  C_9
REMARK    6  A    between atoms: C_14  and  N_15
REMARK    7  A    between atoms: C_16  and  C_18
REMARK                            x       y       z     vdW  Elec       q    Type
REMARK                         _______ _______ _______ _____ _____    ______ ____
ROOT
ATOM      1  C   UNL     1       4.632   5.061  17.148  0.00  0.00    +0.000 A 
ATOM      2  C   UNL     1       3.924   3.859  16.991  0.00  0.00    +0.000 A 
ATOM      3  C   UNL     1       2.602   3.762  17.408  0.00  0.00    +0.000 A 
ATOM      4  C   UNL     1       1.982   4.851  18.020  0.00  0.00    +0.000 A 
ATOM      5  C   UNL     1       2.674   6.045  18.239  0.00  0.00    +0.000 A 
ATOM      6  C   UNL     1       3.988   6.152  17.769  0.00  0.00    +0.000 A 
ENDROOT
BRANCH   5   7
ATOM      7  N   UNL     1       2.111   7.133  18.946  0.00  0.00    +0.000 N 
ATOM      8  C   UNL     1       1.937   8.403  18.421  0.00  0.00    +0.000 C 
ATOM      9  O   UNL     1       2.261   8.757  17.284  0.00  0.00    +0.000 OA
ATOM     10  H   UNL     1       1.674   6.968  19.847  0.00  0.00    +0.000 HD
BRANCH   8  11
ATOM     11  C   UNL     1       1.274   9.411  19.295  0.00  0.00    +0.000 A 
ATOM     12  C   UNL     1       0.966  10.643  18.725  0.00  0.00    +0.000 A 
ATOM     13  C   UNL     1       0.443  11.644  19.530  0.00  0.00    +0.000 A 
ATOM     14  C   UNL     1       0.245  11.387  20.887  0.00  0.00    +0.000 A 
ATOM     15  C   UNL     1       0.559  10.110  21.360  0.00  0.00    +0.000 A 
ATOM     16  N   UNL     1       1.057   9.102  20.600  0.00  0.00    +0.000 NA
ATOM     17  C   UNL     1      -0.257  12.455  21.819  0.00  0.00    +0.000 C 
ATOM     18  C   UNL     1      -0.602  13.812  21.174  0.00  0.00    +0.000 C 
ATOM     19  C   UNL     1      -0.345  13.938  19.703  0.00  0.00    +0.000 C 
ATOM     20  C   UNL     1       0.134  12.946  18.946  0.00  0.00    +0.000 C 
ENDBRANCH   8  11
ENDBRANCH   5   7
BRANCH   1  22
ATOM     21  C   UNL     1       7.065   4.939  17.864  0.00  0.00    +0.000 C 
ATOM     22  C   UNL     1       6.087   5.106  16.693  0.00  0.00    +0.000 C 
BRANCH  22  23
ATOM     23  C   UNL     1       6.312   4.068  15.573  0.00  0.00    +0.000 C 
BRANCH  23  24
ATOM     24  C   UNL     1       7.008   4.652  14.391  0.00  0.00    +0.000 A 
ATOM     25  N   UNL     1       7.984   5.538  14.419  0.00  0.00    +0.000 NA
ATOM     26  N   UNL     1       8.380   5.785  13.127  0.00  0.00    +0.000 NA
ATOM     27  C   UNL     1       7.633   5.053  12.336  0.00  0.00    +0.000 A 
ATOM     28  N   UNL     1       6.752   4.333  13.082  0.00  0.00    +0.000 N 
ATOM     29  C   UNL     1       5.770   3.415  12.576  0.00  0.00    +0.000 C 
ENDBRANCH  23  24
ENDBRANCH  22  23
ENDBRANCH   1  22
TORSDOF 5
ENDMDL
MODEL 4
REMARK VINA RESULT:      -8.5      5.411      7.757
REMARK  Name = 
REMARK  7 active torsions:
REMARK  status: ('A' for Active; 'I' for Inactive)
REMARK    1  A    between atoms: C_1  and  C_2
REMARK    2  A    between atoms: C_2  and  C_3
REMARK    3  A    between atoms: C_2  and  C_10
REMARK    4  A    between atoms: C_3  and  C_4
REMARK    5  A    between atoms: N_8  and  C_9
REMARK    6  A    between atoms: C_14  and  N_15
REMARK    7  A    between atoms: C_16  and  C_18
REMARK                            x       y       z     vdW  Elec       q    Type
REMARK                         _______ _______ _______ _____ _____    ______ ____
ROOT
ATOM      1  C   UNL     1       4.370   5.344  17.180  0.00  0.00    +0.000 A 
ATOM      2  C   UNL     1       4.961   4.427  16.298  0.00  0.00    +0.000 A 
ATOM      3  C   UNL     1       6.205   4.691  15.738  0.00  0.00    +0.000 A 
ATOM      4  C   UNL     1       6.857   5.890  16.023  0.00  0.00    +0.000 A 
ATOM      5  C   UNL     1       6.274   6.848  16.856  0.00  0.00    +0.000 A 
ATOM      6  C   UNL     1       5.045   6.552  17.457  0.00  0.00    +0.000 A 
ENDROOT
BRANCH   5   7
ATOM      7  N   UNL     1       6.859   8.115  17.087  0.00  0.00    +0.000 N 
ATOM      8  C   UNL     1       7.889   8.352  17.981  0.00  0.00    +0.000 C 
ATOM      9  O   UNL     1       8.420   7.502  18.702  0.00  0.00    +0.000 OA
ATOM     10  H   UNL     1       6.622   8.891  16.476  0.00  0.00    +0.000 HD
BRANCH   8  11
ATOM     11  C   UNL     1       8.419   9.743  18.051  0.00  0.00    +0.000 A 
ATOM     12  C   UNL     1       9.519   9.965  18.873  0.00  0.00    +0.000 A 
ATOM     13  C   UNL     1       9.978  11.263  19.047  0.00  0.00    +0.000 A 
ATOM     14  C   UNL     1       9.320  12.305  18.394  0.00  0.00    +0.000 A 
ATOM     15  C   UNL     1       8.242  11.979  17.567  0.00  0.00    +0.000 A 
ATOM     16  N   UNL     1       7.775  10.722  17.361  0.00  0.00    +0.000 NA
ATOM     17  C   UNL     1       9.733  13.737  18.598  0.00  0.00    +0.000 C 
ATOM     18  C   UNL     1      10.958  13.969  19.504  0.00  0.00    +0.000 C 
ATOM     19  C   UNL     1      11.567  12.750  20.130  0.00  0.00    +0.000 C 
ATOM     20  C   UNL     1      11.119  11.508  19.922  0.00  0.00    +0.000 C 
ENDBRANCH   8  11
ENDBRANCH   5   7
BRANCH   1  22
ATOM     21  C   UNL     1       2.438   3.696  17.196  0.00  0.00    +0.000 C 
ATOM     22  C   UNL     1       2.993   5.016  17.748  0.00  0.00    +0.000 C 
BRANCH  22  23
ATOM     23  C   UNL     1       3.051   5.041  19.291  0.00  0.00    +0.000 C 
BRANCH  23  24
ATOM     24  C   UNL     1       3.585   3.770  19.859  0.00  0.00    +0.000 A 
ATOM     25  N   UNL     1       4.775   3.251  19.627  0.00  0.00    +0.000 NA
ATOM     26  N   UNL     1       4.897   2.102  20.370  0.00  0.00    +0.000 NA
ATOM     27  C   UNL     1       3.777   1.938  21.033  0.00  0.00    +0.000 A 
ATOM     28  N   UNL     1       2.921   2.953  20.738  0.00  0.00    +0.000 N 
ATOM     29  C   UNL     1       1.596   3.123  21.267  0.00  0.00    +0.000 C 
ENDBRANCH  23  24
ENDBRANCH  22  23
ENDBRANCH   1  22
TORSDOF 5
ENDMDL
MODEL 5
REMARK VINA RESULT:      -8.4      1.358      1.885
REMARK  Name = 
REMARK  7 active torsions:
REMARK  status: ('A' for Active; 'I' for Inactive)
REMARK    1  A    between atoms: C_1  and  C_2
REMARK    2  A    between atoms: C_2  and  C_3
REMARK    3  A    between atoms: C_2  and  C_10
REMARK    4  A    between atoms: C_3  and  C_4
REMARK    5  A    between atoms: N_8  and  C_9
REMARK    6  A    between atoms: C_14  and  N_15
REMARK    7  A    between atoms: C_16  and  C_18
REMARK                            x       y       z     vdW  Elec       q    Type
REMARK                         _______ _______ _______ _____ _____    ______ ____
ROOT
ATOM      1  C   UNL     1       4.194   4.857  17.384  0.00  0.00    +0.000 A 
ATOM      2  C   UNL     1       4.560   3.649  17.996  0.00  0.00    +0.000 A 
ATOM      3  C   UNL     1       4.098   3.337  19.269  0.00  0.00    +0.000 A 
ATOM      4  C   UNL     1       3.294   4.243  19.960  0.00  0.00    +0.000 A 
ATOM      5  C   UNL     1       2.953   5.477  19.401  0.00  0.00    +0.000 A 
ATOM      6  C   UNL     1       3.379   5.761  18.098  0.00  0.00    +0.000 A 
ENDROOT
BRANCH   5   7
ATOM      7  N   UNL     1       2.224   6.460  20.110  0.00  0.00    +0.000 N 
ATOM      8  C   UNL     1       2.008   7.752  19.661  0.00  0.00    +0.000 C 
ATOM      9  O   UNL     1       2.430   8.220  18.600  0.00  0.00    +0.000 OA
ATOM     10  H   UNL     1       1.702   6.190  20.938  0.00  0.00    +0.000 HD
BRANCH   8  11
ATOM     11  C   UNL     1       1.168   8.634  20.519  0.00  0.00    +0.000 A 
ATOM     12  C   UNL     1       0.337   9.545  19.873  0.00  0.00    +0.000 A 
ATOM     13  C   UNL     1      -0.383  10.455  20.635  0.00  0.00    +0.000 A 
ATOM     14  C   UNL     1      -0.250  10.430  22.023  0.00  0.00    +0.000 A 
ATOM     15  C   UNL     1       0.587   9.459  22.580  0.00  0.00    +0.000 A 
ATOM     16  N   UNL     1       1.294   8.545  21.869  0.00  0.00    +0.000 NA
ATOM     17  C   UNL     1      -0.955  11.434  22.892  0.00  0.00    +0.000 C 
ATOM     18  C   UNL     1      -1.879  12.432  22.166  0.00  0.00    +0.000 C 
ATOM     19  C   UNL     1      -1.928  12.332  20.672  0.00  0.00    +0.000 C 
ATOM     20  C   UNL     1      -1.243  11.427  19.966  0.00  0.00    +0.000 C 
ENDBRANCH   8  11
ENDBRANCH   5   7
BRANCH   1  22
ATOM     21  C   UNL     1       5.088   6.646  15.819  0.00  0.00    +0.000 C 
ATOM     22  C   UNL     1       4.747   5.160  15.995  0.00  0.00    +0.000 C 
BRANCH  22  23
ATOM     23  C   UNL     1       5.947   4.232  15.703  0.00  0.00    +0.000 C 
BRANCH  23  24
ATOM     24  C   UNL     1       6.773   4.718  14.560  0.00  0.00    +0.000 A 
ATOM     25  N   UNL     1       7.797   5.545  14.633  0.00  0.00    +0.000 NA
ATOM     26  N   UNL     1       8.312   5.706  13.370  0.00  0.00    +0.000 NA
ATOM     27  C   UNL     1       7.587   4.983  12.550  0.00  0.00    +0.000 A 
ATOM     28  N   UNL     1       6.605   4.353  13.249  0.00  0.00    +0.000 N 
ATOM     29  C   UNL     1       5.610   3.472  12.701  0.00  0.00    +0.000 C 
ENDBRANCH  23  24
ENDBRANCH  22  23
ENDBRANCH   1  22
TORSDOF 5
ENDMDL
MODEL 6
REMARK VINA RESULT:      -8.3      3.052      9.688
REMARK  Name = 
REMARK  7 active torsions:
REMARK  status: ('A' for Active; 'I' for Inactive)
REMARK    1  A    between atoms: C_1  and  C_2
REMARK    2  A    between atoms: C_2  and  C_3
REMARK    3  A    between atoms: C_2  and  C_10
REMARK    4  A    between atoms: C_3  and  C_4
REMARK    5  A    between atoms: N_8  and  C_9
REMARK    6  A    between atoms: C_14  and  N_15
REMARK    7  A    between atoms: C_16  and  C_18
REMARK                            x       y       z     vdW  Elec       q    Type
REMARK                         _______ _______ _______ _____ _____    ______ ____
ROOT
ATOM      1  C   UNL     1      -0.353  10.672  20.359  0.00  0.00    +0.000 A 
ATOM      2  C   UNL     1      -0.630  10.467  21.719  0.00  0.00    +0.000 A 
ATOM      3  C   UNL     1       0.030   9.471  22.429  0.00  0.00    +0.000 A 
ATOM      4  C   UNL     1       0.947   8.644  21.781  0.00  0.00    +0.000 A 
ATOM      5  C   UNL     1       1.207   8.787  20.416  0.00  0.00    +0.000 A 
ATOM      6  C   UNL     1       0.578   9.825  19.720  0.00  0.00    +0.000 A 
ENDROOT
BRANCH   5   7
ATOM      7  N   UNL     1       2.053   7.903  19.705  0.00  0.00    +0.000 N 
ATOM      8  C   UNL     1       2.142   6.542  19.942  0.00  0.00    +0.000 C 
ATOM      9  O   UNL     1       1.514   5.924  20.806  0.00  0.00    +0.000 OA
ATOM     10  H   UNL     1       2.535   8.237  18.876  0.00  0.00    +0.000 HD
BRANCH   8  11
ATOM     11  C   UNL     1       3.048   5.758  19.055  0.00  0.00    +0.000 A 
ATOM     12  C   UNL     1       3.658   6.440  18.007  0.00  0.00    +0.000 A 
ATOM     13  C   UNL     1       4.426   5.727  17.098  0.00  0.00    +0.000 A 
ATOM     14  C   UNL     1       4.560   4.348  17.261  0.00  0.00    +0.000 A 
ATOM     15  C   UNL     1       3.932   3.758  18.361  0.00  0.00    +0.000 A 
ATOM     16  N   UNL     1       3.187   4.425  19.278  0.00  0.00    +0.000 NA
ATOM     17  C   UNL     1       5.326   3.516  16.269  0.00  0.00    +0.000 C 
ATOM     18  C   UNL     1       6.004   4.284  15.118  0.00  0.00    +0.000 C 
ATOM     19  C   UNL     1       5.779   5.765  15.078  0.00  0.00    +0.000 C 
ATOM     20  C   UNL     1       5.055   6.430  15.984  0.00  0.00    +0.000 C 
ENDBRANCH   8  11
ENDBRANCH   5   7
BRANCH   1  22
ATOM     21  C   UNL     1      -0.349  13.089  19.578  0.00  0.00    +0.000 C 
ATOM     22  C   UNL     1      -1.122  11.764  19.622  0.00  0.00    +0.000 C 
BRANCH  22  23
ATOM     23  C   UNL     1      -1.521  11.258  18.218  0.00  0.00    +0.000 C 
BRANCH  23  24
ATOM     24  C   UNL     1      -2.974  11.447  17.941  0.00  0.00    +0.000 A 
ATOM     25  N   UNL     1      -3.884  11.865  18.799  0.00  0.00    +0.000 NA
ATOM     26  N   UNL     1      -5.089  11.946  18.143  0.00  0.00    +0.000 NA
ATOM     27  C   UNL     1      -4.893  11.567  16.903  0.00  0.00    +0.000 A 
ATOM     28  N   UNL     1      -3.585  11.236  16.731  0.00  0.00    +0.000 N 
ATOM     29  C   UNL     1      -2.983  10.775  15.511  0.00  0.00    +0.000 C 
ENDBRANCH  23  24
ENDBRANCH  22  23
ENDBRANCH   1  22
TORSDOF 5
ENDMDL
MODEL 7
REMARK VINA RESULT:      -8.3      5.313      7.955
REMARK  Name = 
REMARK  7 active torsions:
REMARK  status: ('A' for Active; 'I' for Inactive)
REMARK    1  A    between atoms: C_1  and  C_2
REMARK    2  A    between atoms: C_2  and  C_3
REMARK    3  A    between atoms: C_2  and  C_10
REMARK    4  A    between atoms: C_3  and  C_4
REMARK    5  A    between atoms: N_8  and  C_9
REMARK    6  A    between atoms: C_14  and  N_15
REMARK    7  A    between atoms: C_16  and  C_18
REMARK                            x       y       z     vdW  Elec       q    Type
REMARK                         _______ _______ _______ _____ _____    ______ ____
ROOT
ATOM      1  C   UNL     1       4.172   5.472  17.292  0.00  0.00    +0.000 A 
ATOM      2  C   UNL     1       4.778   4.477  16.510  0.00  0.00    +0.000 A 
ATOM      3  C   UNL     1       6.067   4.652  16.025  0.00  0.00    +0.000 A 
ATOM      4  C   UNL     1       6.755   5.836  16.283  0.00  0.00    +0.000 A 
ATOM      5  C   UNL     1       6.163   6.869  17.014  0.00  0.00    +0.000 A 
ATOM      6  C   UNL     1       4.884   6.665  17.544  0.00  0.00    +0.000 A 
ENDROOT
BRANCH   5   7
ATOM      7  N   UNL     1       6.791   8.122  17.210  0.00  0.00    +0.000 N 
ATOM      8  C   UNL     1       7.884   8.331  18.034  0.00  0.00    +0.000 C 
ATOM      9  O   UNL     1       8.442   7.467  18.714  0.00  0.00    +0.000 OA
ATOM     10  H   UNL     1       6.531   8.905  16.618  0.00  0.00    +0.000 HD
BRANCH   8  11
ATOM     11  C   UNL     1       8.447   9.710  18.073  0.00  0.00    +0.000 A 
ATOM     12  C   UNL     1       9.532   9.931  18.916  0.00  0.00    +0.000 A 
ATOM     13  C   UNL     1      10.020  11.221  19.060  0.00  0.00    +0.000 A 
ATOM     14  C   UNL     1       9.407  12.258  18.357  0.00  0.00    +0.000 A 
ATOM     15  C   UNL     1       8.342  11.933  17.513  0.00  0.00    +0.000 A 
ATOM     16  N   UNL     1       7.848  10.682  17.335  0.00  0.00    +0.000 NA
ATOM     17  C   UNL     1       9.852  13.685  18.525  0.00  0.00    +0.000 C 
ATOM     18  C   UNL     1      11.060  13.915  19.455  0.00  0.00    +0.000 C 
ATOM     19  C   UNL     1      11.620  12.703  20.135  0.00  0.00    +0.000 C 
ATOM     20  C   UNL     1      11.145  11.466  19.957  0.00  0.00    +0.000 C 
ENDBRANCH   8  11
ENDBRANCH   5   7
BRANCH   1  22
ATOM     21  C   UNL     1       2.223   3.849  17.399  0.00  0.00    +0.000 C 
ATOM     22  C   UNL     1       2.747   5.239  17.781  0.00  0.00    +0.000 C 
BRANCH  22  23
ATOM     23  C   UNL     1       2.669   5.511  19.300  0.00  0.00    +0.000 C 
BRANCH  23  24
ATOM     24  C   UNL     1       2.242   4.307  20.069  0.00  0.00    +0.000 A 
ATOM     25  N   UNL     1       1.037   4.078  20.554  0.00  0.00    +0.000 NA
ATOM     26  N   UNL     1       1.043   2.843  21.156  0.00  0.00    +0.000 NA
ATOM     27  C   UNL     1       2.251   2.348  21.034  0.00  0.00    +0.000 A 
ATOM     28  N   UNL     1       3.040   3.233  20.369  0.00  0.00    +0.000 N 
ATOM     29  C   UNL     1       4.427   3.050  20.041  0.00  0.00    +0.000 C 
ENDBRANCH  23  24
ENDBRANCH  22  23
ENDBRANCH   1  22
TORSDOF 5
ENDMDL
MODEL 8
REMARK VINA RESULT:      -8.2      6.123      8.177
REMARK  Name = 
REMARK  7 active torsions:
REMARK  status: ('A' for Active; 'I' for Inactive)
REMARK    1  A    between atoms: C_1  and  C_2
REMARK    2  A    between atoms: C_2  and  C_3
REMARK    3  A    between atoms: C_2  and  C_10
REMARK    4  A    between atoms: C_3  and  C_4
REMARK    5  A    between atoms: N_8  and  C_9
REMARK    6  A    between atoms: C_14  and  N_15
REMARK    7  A    between atoms: C_16  and  C_18
REMARK                            x       y       z     vdW  Elec       q    Type
REMARK                         _______ _______ _______ _____ _____    ______ ____
ROOT
ATOM      1  C   UNL     1       6.202   5.851  17.158  0.00  0.00    +0.000 A 
ATOM      2  C   UNL     1       6.931   5.036  18.037  0.00  0.00    +0.000 A 
ATOM      3  C   UNL     1       7.929   5.579  18.835  0.00  0.00    +0.000 A 
ATOM      4  C   UNL     1       8.237   6.935  18.741  0.00  0.00    +0.000 A 
ATOM      5  C   UNL     1       7.567   7.766  17.839  0.00  0.00    +0.000 A 
ATOM      6  C   UNL     1       6.527   7.222  17.076  0.00  0.00    +0.000 A 
ENDROOT
BRANCH   5   7
ATOM      7  N   UNL     1       7.920   9.122  17.644  0.00  0.00    +0.000 N 
ATOM      8  C   UNL     1       8.722   9.854  18.503  0.00  0.00    +0.000 C 
ATOM      9  O   UNL     1       9.220   9.433  19.551  0.00  0.00    +0.000 OA
ATOM     10  H   UNL     1       7.698   9.570  16.761  0.00  0.00    +0.000 HD
BRANCH   8  11
ATOM     11  C   UNL     1       9.034  11.256  18.106  0.00  0.00    +0.000 A 
ATOM     12  C   UNL     1      10.342  11.695  18.293  0.00  0.00    +0.000 A 
ATOM     13  C   UNL     1      10.649  13.023  18.034  0.00  0.00    +0.000 A 
ATOM     14  C   UNL     1       9.637  13.878  17.597  0.00  0.00    +0.000 A 
ATOM     15  C   UNL     1       8.362  13.337  17.411  0.00  0.00    +0.000 A 
ATOM     16  N   UNL     1       8.028  12.042  17.639  0.00  0.00    +0.000 NA
ATOM     17  C   UNL     1       9.899  15.341  17.363  0.00  0.00    +0.000 C 
ATOM     18  C   UNL     1      11.352  15.812  17.566  0.00  0.00    +0.000 C 
ATOM     19  C   UNL     1      12.332  14.777  18.030  0.00  0.00    +0.000 C 
ATOM     20  C   UNL     1      12.013  13.497  18.245  0.00  0.00    +0.000 C 
ENDBRANCH   8  11
ENDBRANCH   5   7
BRANCH   1  22
ATOM     21  C   UNL     1       5.582   5.055  14.828  0.00  0.00    +0.000 C 
ATOM     22  C   UNL     1       5.132   5.200  16.287  0.00  0.00    +0.000 C 
BRANCH  22  23
ATOM     23  C   UNL     1       4.700   3.857  16.917  0.00  0.00    +0.000 C 
BRANCH  23  24
ATOM     24  C   UNL     1       3.299   3.897  17.428  0.00  0.00    +0.000 A 
ATOM     25  N   UNL     1       2.211   3.604  16.744  0.00  0.00    +0.000 NA
ATOM     26  N   UNL     1       1.130   3.721  17.585  0.00  0.00    +0.000 NA
ATOM     27  C   UNL     1       1.579   4.091  18.760  0.00  0.00    +0.000 A 
ATOM     28  N   UNL     1       2.932   4.223  18.708  0.00  0.00    +0.000 N 
ATOM     29  C   UNL     1       3.786   4.611  19.797  0.00  0.00    +0.000 C 
ENDBRANCH  23  24
ENDBRANCH  22  23
ENDBRANCH   1  22
TORSDOF 5
ENDMDL
MODEL 9
REMARK VINA RESULT:      -8.1      3.807      5.448
REMARK  Name = 
REMARK  7 active torsions:
REMARK  status: ('A' for Active; 'I' for Inactive)
REMARK    1  A    between atoms: C_1  and  C_2
REMARK    2  A    between atoms: C_2  and  C_3
REMARK    3  A    between atoms: C_2  and  C_10
REMARK    4  A    between atoms: C_3  and  C_4
REMARK    5  A    between atoms: N_8  and  C_9
REMARK    6  A    between atoms: C_14  and  N_15
REMARK    7  A    between atoms: C_16  and  C_18
REMARK                            x       y       z     vdW  Elec       q    Type
REMARK                         _______ _______ _______ _____ _____    ______ ____
ROOT
ATOM      1  C   UNL     1       2.156   7.393  19.677  0.00  0.00    +0.000 A 
ATOM      2  C   UNL     1       2.425   7.712  18.338  0.00  0.00    +0.000 A 
ATOM      3  C   UNL     1       1.967   8.905  17.794  0.00  0.00    +0.000 A 
ATOM      4  C   UNL     1       1.205   9.778  18.569  0.00  0.00    +0.000 A 
ATOM      5  C   UNL     1       0.874   9.467  19.890  0.00  0.00    +0.000 A 
ATOM      6  C   UNL     1       1.383   8.288  20.447  0.00  0.00    +0.000 A 
ENDROOT
BRANCH   5   7
ATOM      7  N   UNL     1       0.020  10.279  20.674  0.00  0.00    +0.000 N 
ATOM      8  C   UNL     1       0.381  11.500  21.217  0.00  0.00    +0.000 C 
ATOM      9  O   UNL     1       1.489  12.033  21.107  0.00  0.00    +0.000 OA
ATOM     10  H   UNL     1      -0.964  10.041  20.744  0.00  0.00    +0.000 HD
BRANCH   8  11
ATOM     11  C   UNL     1      -0.670  12.243  21.969  0.00  0.00    +0.000 A 
ATOM     12  C   UNL     1      -1.988  12.074  21.556  0.00  0.00    +0.000 A 
ATOM     13  C   UNL     1      -2.984  12.826  22.161  0.00  0.00    +0.000 A 
ATOM     14  C   UNL     1      -2.633  13.731  23.163  0.00  0.00    +0.000 A 
ATOM     15  C   UNL     1      -1.287  13.809  23.528  0.00  0.00    +0.000 A 
ATOM     16  N   UNL     1      -0.288  13.079  22.970  0.00  0.00    +0.000 NA
ATOM     17  C   UNL     1      -3.662  14.618  23.808  0.00  0.00    +0.000 C 
ATOM     18  C   UNL     1      -5.119  14.415  23.347  0.00  0.00    +0.000 C 
ATOM     19  C   UNL     1      -5.344  13.399  22.268  0.00  0.00    +0.000 C 
ATOM     20  C   UNL     1      -4.367  12.670  21.722  0.00  0.00    +0.000 C 
ENDBRANCH   8  11
ENDBRANCH   5   7
BRANCH   1  22
ATOM     21  C   UNL     1       1.516   5.094  20.546  0.00  0.00    +0.000 C 
ATOM     22  C   UNL     1       2.662   6.059  20.218  0.00  0.00    +0.000 C 
BRANCH  22  23
ATOM     23  C   UNL     1       3.688   5.457  19.232  0.00  0.00    +0.000 C 
BRANCH  23  24
ATOM     24  C   UNL     1       3.172   4.231  18.558  0.00  0.00    +0.000 A 
ATOM     25  N   UNL     1       2.359   4.196  17.521  0.00  0.00    +0.000 NA
ATOM     26  N   UNL     1       2.159   2.881  17.175  0.00  0.00    +0.000 NA
ATOM     27  C   UNL     1       2.847   2.142  18.012  0.00  0.00    +0.000 A 
ATOM     28  N   UNL     1       3.490   2.943  18.902  0.00  0.00    +0.000 N 
ATOM     29  C   UNL     1       4.343   2.504  19.973  0.00  0.00    +0.000 C 
ENDBRANCH  23  24
ENDBRANCH  22  23
ENDBRANCH   1  22
TORSDOF 5
ENDMDL
