MODEL 1
REMARK VINA RESULT:      -9.4      0.000      0.000
REMARK  Name = 
REMARK  3 active torsions:
REMARK  status: ('A' for Active; 'I' for Inactive)
REMARK    1  A    between atoms: C_2  and  C_10
REMARK    2  A    between atoms: C_14  and  N_15
REMARK    3  A    between atoms: C_16  and  C_18
REMARK                            x       y       z     vdW  Elec       q    Type
REMARK                         _______ _______ _______ _____ _____    ______ ____
ROOT
ATOM      1  C   UNL     1       4.110   5.754  17.279  0.00  0.00    +0.000 A 
ATOM      2  C   UNL     1       3.626   4.507  17.684  0.00  0.00    +0.000 A 
ATOM      3  C   UNL     1       2.669   4.435  18.677  0.00  0.00    +0.000 A 
ATOM      4  C   UNL     1       2.179   5.615  19.251  0.00  0.00    +0.000 A 
ATOM      5  C   UNL     1       2.633   6.876  18.852  0.00  0.00    +0.000 A 
ATOM      6  C   UNL     1       3.623   6.936  17.843  0.00  0.00    +0.000 A 
ENDROOT
BRANCH   1   8
ATOM      7  O   UNL     1       5.605   6.839  15.853  0.00  0.00    +0.000 OA
ATOM      8  C   UNL     1       5.105   5.769  16.166  0.00  0.00    +0.000 C 
ATOM      9  N   UNL     1       5.262   4.569  15.500  0.00  0.00    +0.000 N 
ATOM     10  C   UNL     1       5.994   4.426  14.314  0.00  0.00    +0.000 A 
ATOM     11  C   UNL     1       7.159   5.138  14.053  0.00  0.00    +0.000 A 
ATOM     12  C   UNL     1       7.804   4.949  12.832  0.00  0.00    +0.000 A 
ATOM     13  C   UNL     1       7.248   4.088  11.896  0.00  0.00    +0.000 A 
ATOM     14  C   UNL     1       6.092   3.413  12.245  0.00  0.00    +0.000 A 
ATOM     15  N   UNL     1       5.478   3.531  13.447  0.00  0.00    +0.000 NA
ATOM     16  H   UNL     1       4.544   3.867  15.606  0.00  0.00    +0.000 HD
ENDBRANCH   1   8
BRANCH   5  17
ATOM     17  N   UNL     1       2.131   8.079  19.414  0.00  0.00    +0.000 N 
ATOM     18  C   UNL     1       1.469   9.083  18.708  0.00  0.00    +0.000 C 
ATOM     19  O   UNL     1       1.193   9.036  17.517  0.00  0.00    +0.000 OA
ATOM     20  H   UNL     1       2.236   8.225  20.418  0.00  0.00    +0.000 HD
BRANCH  18  21
ATOM     21  C   UNL     1       0.947  10.267  19.457  0.00  0.00    +0.000 A 
ATOM     22  C   UNL     1       1.254  11.520  18.884  0.00  0.00    +0.000 A 
ATOM     23  C   UNL     1       0.592  12.655  19.302  0.00  0.00    +0.000 A 
ATOM     24  F   UNL     1       0.856  13.833  18.724  0.00  0.00    +0.000 F 
ATOM     25  C   UNL     1      -0.314  12.590  20.338  0.00  0.00    +0.000 A 
ATOM     26  C   UNL     1      -0.395  11.410  21.083  0.00  0.00    +0.000 A 
ATOM     27  C   UNL     1      -0.984  11.452  22.345  0.00  0.00    +0.000 A 
ATOM     28  C   UNL     1      -0.913  10.338  23.165  0.00  0.00    +0.000 A 
ATOM     29  C   UNL     1      -0.383   9.177  22.636  0.00  0.00    +0.000 A 
ATOM     30  N   UNL     1       0.118   9.072  21.382  0.00  0.00    +0.000 NA
ATOM     31  C   UNL     1       0.203  10.201  20.635  0.00  0.00    +0.000 A 
ENDBRANCH  18  21
ENDBRANCH   5  17
TORSDOF 3
ENDMDL
MODEL 2
REMARK VINA RESULT:      -8.9      3.768      9.913
REMARK  Name = 
REMARK  3 active torsions:
REMARK  status: ('A' for Active; 'I' for Inactive)
REMARK    1  A    between atoms: C_2  and  C_10
REMARK    2  A    between atoms: C_14  and  N_15
REMARK    3  A    between atoms: C_16  and  C_18
REMARK                            x       y       z     vdW  Elec       q    Type
REMARK                         _______ _______ _______ _____ _____    ______ ____
ROOT
ATOM      1  C   UNL     1      -0.430  11.596  19.087  0.00  0.00    +0.000 A 
ATOM      2  C   UNL     1       0.394  12.686  18.798  0.00  0.00    +0.000 A 
ATOM      3  C   UNL     1       1.688  12.469  18.366  0.00  0.00    +0.000 A 
ATOM      4  C   UNL     1       2.150  11.158  18.200  0.00  0.00    +0.000 A 
ATOM      5  C   UNL     1       1.341  10.049  18.464  0.00  0.00    +0.000 A 
ATOM      6  C   UNL     1       0.021  10.284  18.919  0.00  0.00    +0.000 A 
ENDROOT
BRANCH   1   8
ATOM      7  O   UNL     1      -2.061  12.071  20.687  0.00  0.00    +0.000 OA
ATOM      8  C   UNL     1      -1.834  11.894  19.500  0.00  0.00    +0.000 C 
ATOM      9  N   UNL     1      -2.776  11.805  18.494  0.00  0.00    +0.000 N 
ATOM     10  C   UNL     1      -4.158  11.855  18.714  0.00  0.00    +0.000 A 
ATOM     11  C   UNL     1      -4.742  12.664  19.682  0.00  0.00    +0.000 A 
ATOM     12  C   UNL     1      -6.125  12.626  19.846  0.00  0.00    +0.000 A 
ATOM     13  C   UNL     1      -6.878  11.757  19.069  0.00  0.00    +0.000 A 
ATOM     14  C   UNL     1      -6.215  10.997  18.122  0.00  0.00    +0.000 A 
ATOM     15  N   UNL     1      -4.880  11.059  17.899  0.00  0.00    +0.000 NA
ATOM     16  H   UNL     1      -2.529  11.303  17.653  0.00  0.00    +0.000 HD
ENDBRANCH   1   8
BRANCH   5  17
ATOM     17  N   UNL     1       1.792   8.715  18.283  0.00  0.00    +0.000 N 
ATOM     18  C   UNL     1       2.065   7.811  19.307  0.00  0.00    +0.000 C 
ATOM     19  O   UNL     1       1.908   8.035  20.500  0.00  0.00    +0.000 OA
ATOM     20  H   UNL     1       1.909   8.370  17.330  0.00  0.00    +0.000 HD
BRANCH  18  21
ATOM     21  C   UNL     1       2.479   6.419  18.949  0.00  0.00    +0.000 A 
ATOM     22  C   UNL     1       1.925   5.403  19.757  0.00  0.00    +0.000 A 
ATOM     23  C   UNL     1       1.987   4.086  19.355  0.00  0.00    +0.000 A 
ATOM     24  F   UNL     1       1.420   3.132  20.104  0.00  0.00    +0.000 F 
ATOM     25  C   UNL     1       2.660   3.741  18.204  0.00  0.00    +0.000 A 
ATOM     26  C   UNL     1       3.444   4.709  17.571  0.00  0.00    +0.000 A 
ATOM     27  C   UNL     1       4.426   4.297  16.673  0.00  0.00    +0.000 A 
ATOM     28  C   UNL     1       5.325   5.226  16.175  0.00  0.00    +0.000 A 
ATOM     29  C   UNL     1       5.118   6.557  16.482  0.00  0.00    +0.000 A 
ATOM     30  N   UNL     1       4.120   7.007  17.281  0.00  0.00    +0.000 NA
ATOM     31  C   UNL     1       3.341   6.088  17.902  0.00  0.00    +0.000 A 
ENDBRANCH  18  21
ENDBRANCH   5  17
TORSDOF 3
ENDMDL
MODEL 3
REMARK VINA RESULT:      -8.8      3.929     10.111
REMARK  Name = 
REMARK  3 active torsions:
REMARK  status: ('A' for Active; 'I' for Inactive)
REMARK    1  A    between atoms: C_2  and  C_10
REMARK    2  A    between atoms: C_14  and  N_15
REMARK    3  A    between atoms: C_16  and  C_18
REMARK                            x       y       z     vdW  Elec       q    Type
REMARK                         _______ _______ _______ _____ _____    ______ ____
ROOT
ATOM      1  C   UNL     1      -0.860  10.909  18.119  0.00  0.00    +0.000 A 
ATOM      2  C   UNL     1      -0.152  12.003  18.622  0.00  0.00    +0.000 A 
ATOM      3  C   UNL     1       1.201  11.886  18.870  0.00  0.00    +0.000 A 
ATOM      4  C   UNL     1       1.853  10.678  18.592  0.00  0.00    +0.000 A 
ATOM      5  C   UNL     1       1.172   9.574  18.071  0.00  0.00    +0.000 A 
ATOM      6  C   UNL     1      -0.217   9.701  17.833  0.00  0.00    +0.000 A 
ENDROOT
BRANCH   1   8
ATOM      7  O   UNL     1      -2.665  11.107  16.654  0.00  0.00    +0.000 OA
ATOM      8  C   UNL     1      -2.309  11.114  17.822  0.00  0.00    +0.000 C 
ATOM      9  N   UNL     1      -3.095  11.431  18.913  0.00  0.00    +0.000 N 
ATOM     10  C   UNL     1      -4.428  11.848  18.817  0.00  0.00    +0.000 A 
ATOM     11  C   UNL     1      -5.314  11.346  17.870  0.00  0.00    +0.000 A 
ATOM     12  C   UNL     1      -6.615  11.844  17.834  0.00  0.00    +0.000 A 
ATOM     13  C   UNL     1      -6.982  12.851  18.716  0.00  0.00    +0.000 A 
ATOM     14  C   UNL     1      -6.039  13.283  19.632  0.00  0.00    +0.000 A 
ATOM     15  N   UNL     1      -4.787  12.775  19.730  0.00  0.00    +0.000 NA
ATOM     16  H   UNL     1      -2.637  11.762  19.750  0.00  0.00    +0.000 HD
ENDBRANCH   1   8
BRANCH   5  17
ATOM     17  N   UNL     1       1.825   8.349  17.768  0.00  0.00    +0.000 N 
ATOM     18  C   UNL     1       2.248   7.409  18.705  0.00  0.00    +0.000 C 
ATOM     19  O   UNL     1       2.071   7.494  19.913  0.00  0.00    +0.000 OA
ATOM     20  H   UNL     1       1.983   8.116  16.788  0.00  0.00    +0.000 HD
BRANCH  18  21
ATOM     21  C   UNL     1       2.870   6.138  18.222  0.00  0.00    +0.000 A 
ATOM     22  C   UNL     1       2.148   4.965  18.523  0.00  0.00    +0.000 A 
ATOM     23  C   UNL     1       2.453   3.779  17.888  0.00  0.00    +0.000 A 
ATOM     24  F   UNL     1       1.735   2.679  18.146  0.00  0.00    +0.000 F 
ATOM     25  C   UNL     1       3.517   3.711  17.016  0.00  0.00    +0.000 A 
ATOM     26  C   UNL     1       4.395   4.796  16.945  0.00  0.00    +0.000 A 
ATOM     27  C   UNL     1       5.661   4.600  16.398  0.00  0.00    +0.000 A 
ATOM     28  C   UNL     1       6.602   5.614  16.483  0.00  0.00    +0.000 A 
ATOM     29  C   UNL     1       6.194   6.836  16.982  0.00  0.00    +0.000 A 
ATOM     30  N   UNL     1       4.946   7.091  17.442  0.00  0.00    +0.000 NA
ATOM     31  C   UNL     1       4.072   6.058  17.515  0.00  0.00    +0.000 A 
ENDBRANCH  18  21
ENDBRANCH   5  17
TORSDOF 3
ENDMDL
MODEL 4
REMARK VINA RESULT:      -8.7      4.080     10.159
REMARK  Name = 
REMARK  3 active torsions:
REMARK  status: ('A' for Active; 'I' for Inactive)
REMARK    1  A    between atoms: C_2  and  C_10
REMARK    2  A    between atoms: C_14  and  N_15
REMARK    3  A    between atoms: C_16  and  C_18
REMARK                            x       y       z     vdW  Elec       q    Type
REMARK                         _______ _______ _______ _____ _____    ______ ____
ROOT
ATOM      1  C   UNL     1      -1.326  11.455  18.257  0.00  0.00    +0.000 A 
ATOM      2  C   UNL     1      -0.613  12.642  18.440  0.00  0.00    +0.000 A 
ATOM      3  C   UNL     1       0.743  12.591  18.697  0.00  0.00    +0.000 A 
ATOM      4  C   UNL     1       1.391  11.351  18.748  0.00  0.00    +0.000 A 
ATOM      5  C   UNL     1       0.705  10.149  18.550  0.00  0.00    +0.000 A 
ATOM      6  C   UNL     1      -0.686  10.213  18.300  0.00  0.00    +0.000 A 
ENDROOT
BRANCH   1   8
ATOM      7  O   UNL     1      -3.120  11.450  16.765  0.00  0.00    +0.000 OA
ATOM      8  C   UNL     1      -2.778  11.577  17.930  0.00  0.00    +0.000 C 
ATOM      9  N   UNL     1      -3.588  11.961  18.981  0.00  0.00    +0.000 N 
ATOM     10  C   UNL     1      -4.934  12.318  18.836  0.00  0.00    +0.000 A 
ATOM     11  C   UNL     1      -5.789  11.698  17.932  0.00  0.00    +0.000 A 
ATOM     12  C   UNL     1      -7.107  12.141  17.839  0.00  0.00    +0.000 A 
ATOM     13  C   UNL     1      -7.522  13.210  18.622  0.00  0.00    +0.000 A 
ATOM     14  C   UNL     1      -6.607  13.759  19.503  0.00  0.00    +0.000 A 
ATOM     15  N   UNL     1      -5.338  13.309  19.657  0.00  0.00    +0.000 NA
ATOM     16  H   UNL     1      -3.153  12.384  19.788  0.00  0.00    +0.000 HD
ENDBRANCH   1   8
BRANCH   5  17
ATOM     17  N   UNL     1       1.355   8.887  18.581  0.00  0.00    +0.000 N 
ATOM     18  C   UNL     1       1.670   8.171  19.734  0.00  0.00    +0.000 C 
ATOM     19  O   UNL     1       1.386   8.518  20.873  0.00  0.00    +0.000 OA
ATOM     20  H   UNL     1       1.596   8.445  17.693  0.00  0.00    +0.000 HD
BRANCH  18  21
ATOM     21  C   UNL     1       2.304   6.824  19.597  0.00  0.00    +0.000 A 
ATOM     22  C   UNL     1       2.030   5.923  20.647  0.00  0.00    +0.000 A 
ATOM     23  C   UNL     1       2.302   4.580  20.498  0.00  0.00    +0.000 A 
ATOM     24  F   UNL     1       1.999   3.723  21.481  0.00  0.00    +0.000 F 
ATOM     25  C   UNL     1       2.918   4.117  19.356  0.00  0.00    +0.000 A 
ATOM     26  C   UNL     1       3.442   5.048  18.454  0.00  0.00    +0.000 A 
ATOM     27  C   UNL     1       4.396   4.625  17.531  0.00  0.00    +0.000 A 
ATOM     28  C   UNL     1       5.053   5.566  16.754  0.00  0.00    +0.000 A 
ATOM     29  C   UNL     1       4.627   6.878  16.827  0.00  0.00    +0.000 A 
ATOM     30  N   UNL     1       3.641   7.313  17.648  0.00  0.00    +0.000 NA
ATOM     31  C   UNL     1       3.111   6.429  18.528  0.00  0.00    +0.000 A 
ENDBRANCH  18  21
ENDBRANCH   5  17
TORSDOF 3
ENDMDL
MODEL 5
REMARK VINA RESULT:      -8.7      3.870      9.915
REMARK  Name = 
REMARK  3 active torsions:
REMARK  status: ('A' for Active; 'I' for Inactive)
REMARK    1  A    between atoms: C_2  and  C_10
REMARK    2  A    between atoms: C_14  and  N_15
REMARK    3  A    between atoms: C_16  and  C_18
REMARK                            x       y       z     vdW  Elec       q    Type
REMARK                         _______ _______ _______ _____ _____    ______ ____
ROOT
ATOM      1  C   UNL     1      -0.990  10.943  18.227  0.00  0.00    +0.000 A 
ATOM      2  C   UNL     1      -0.409  12.083  18.789  0.00  0.00    +0.000 A 
ATOM      3  C   UNL     1       0.953  12.118  19.010  0.00  0.00    +0.000 A 
ATOM      4  C   UNL     1       1.741  11.018  18.645  0.00  0.00    +0.000 A 
ATOM      5  C   UNL     1       1.189   9.873  18.065  0.00  0.00    +0.000 A 
ATOM      6  C   UNL     1      -0.211   9.843  17.855  0.00  0.00    +0.000 A 
ENDROOT
BRANCH   1   8
ATOM      7  O   UNL     1      -2.855  10.683  16.850  0.00  0.00    +0.000 OA
ATOM      8  C   UNL     1      -2.459  10.986  17.964  0.00  0.00    +0.000 C 
ATOM      9  N   UNL     1      -3.225  11.505  18.989  0.00  0.00    +0.000 N 
ATOM     10  C   UNL     1      -4.587  11.809  18.867  0.00  0.00    +0.000 A 
ATOM     11  C   UNL     1      -5.469  11.046  18.109  0.00  0.00    +0.000 A 
ATOM     12  C   UNL     1      -6.802  11.444  18.024  0.00  0.00    +0.000 A 
ATOM     13  C   UNL     1      -7.206  12.607  18.664  0.00  0.00    +0.000 A 
ATOM     14  C   UNL     1      -6.264  13.298  19.405  0.00  0.00    +0.000 A 
ATOM     15  N   UNL     1      -4.977  12.902  19.554  0.00  0.00    +0.000 NA
ATOM     16  H   UNL     1      -2.763  12.051  19.701  0.00  0.00    +0.000 HD
ENDBRANCH   1   8
BRANCH   5  17
ATOM     17  N   UNL     1       1.979   8.759  17.675  0.00  0.00    +0.000 N 
ATOM     18  C   UNL     1       2.453   7.768  18.532  0.00  0.00    +0.000 C 
ATOM     19  O   UNL     1       2.212   7.705  19.731  0.00  0.00    +0.000 OA
ATOM     20  H   UNL     1       2.206   8.650  16.687  0.00  0.00    +0.000 HD
BRANCH  18  21
ATOM     21  C   UNL     1       3.226   6.625  17.957  0.00  0.00    +0.000 A 
ATOM     22  C   UNL     1       4.393   6.986  17.251  0.00  0.00    +0.000 A 
ATOM     23  C   UNL     1       5.336   6.031  16.933  0.00  0.00    +0.000 A 
ATOM     24  F   UNL     1       6.461   6.387  16.303  0.00  0.00    +0.000 F 
ATOM     25  C   UNL     1       5.109   4.705  17.230  0.00  0.00    +0.000 A 
ATOM     26  C   UNL     1       3.836   4.324  17.664  0.00  0.00    +0.000 A 
ATOM     27  C   UNL     1       3.473   2.982  17.581  0.00  0.00    +0.000 A 
ATOM     28  C   UNL     1       2.161   2.616  17.838  0.00  0.00    +0.000 A 
ATOM     29  C   UNL     1       1.299   3.587  18.309  0.00  0.00    +0.000 A 
ATOM     30  N   UNL     1       1.640   4.886  18.488  0.00  0.00    +0.000 NA
ATOM     31  C   UNL     1       2.871   5.281  18.081  0.00  0.00    +0.000 A 
ENDBRANCH  18  21
ENDBRANCH   5  17
TORSDOF 3
ENDMDL
MODEL 6
REMARK VINA RESULT:      -8.7      1.427      2.469
REMARK  Name = 
REMARK  3 active torsions:
REMARK  status: ('A' for Active; 'I' for Inactive)
REMARK    1  A    between atoms: C_2  and  C_10
REMARK    2  A    between atoms: C_14  and  N_15
REMARK    3  A    between atoms: C_16  and  C_18
REMARK                            x       y       z     vdW  Elec       q    Type
REMARK                         _______ _______ _______ _____ _____    ______ ____
ROOT
ATOM      1  C   UNL     1       4.099   5.750  17.270  0.00  0.00    +0.000 A 
ATOM      2  C   UNL     1       3.596   4.504  17.651  0.00  0.00    +0.000 A 
ATOM      3  C   UNL     1       2.633   4.428  18.638  0.00  0.00    +0.000 A 
ATOM      4  C   UNL     1       2.156   5.605  19.229  0.00  0.00    +0.000 A 
ATOM      5  C   UNL     1       2.629   6.865  18.855  0.00  0.00    +0.000 A 
ATOM      6  C   UNL     1       3.625   6.930  17.851  0.00  0.00    +0.000 A 
ENDROOT
BRANCH   1   8
ATOM      7  O   UNL     1       5.600   6.842  15.856  0.00  0.00    +0.000 OA
ATOM      8  C   UNL     1       5.100   5.771  16.161  0.00  0.00    +0.000 C 
ATOM      9  N   UNL     1       5.260   4.574  15.491  0.00  0.00    +0.000 N 
ATOM     10  C   UNL     1       5.998   4.437  14.309  0.00  0.00    +0.000 A 
ATOM     11  C   UNL     1       7.165   5.150  14.056  0.00  0.00    +0.000 A 
ATOM     12  C   UNL     1       7.815   4.967  12.838  0.00  0.00    +0.000 A 
ATOM     13  C   UNL     1       7.265   4.110  11.895  0.00  0.00    +0.000 A 
ATOM     14  C   UNL     1       6.107   3.433  12.235  0.00  0.00    +0.000 A 
ATOM     15  N   UNL     1       5.487   3.546  13.435  0.00  0.00    +0.000 NA
ATOM     16  H   UNL     1       4.542   3.872  15.591  0.00  0.00    +0.000 HD
ENDBRANCH   1   8
BRANCH   5  17
ATOM     17  N   UNL     1       2.140   8.066  19.434  0.00  0.00    +0.000 N 
ATOM     18  C   UNL     1       1.429   9.056  18.758  0.00  0.00    +0.000 C 
ATOM     19  O   UNL     1       1.092   8.997  17.582  0.00  0.00    +0.000 OA
ATOM     20  H   UNL     1       2.295   8.220  20.430  0.00  0.00    +0.000 HD
BRANCH  18  21
ATOM     21  C   UNL     1       0.931  10.239  19.525  0.00  0.00    +0.000 A 
ATOM     22  C   UNL     1      -0.077   9.958  20.471  0.00  0.00    +0.000 A 
ATOM     23  C   UNL     1      -0.404  10.889  21.433  0.00  0.00    +0.000 A 
ATOM     24  F   UNL     1      -1.331  10.600  22.355  0.00  0.00    +0.000 F 
ATOM     25  C   UNL     1       0.192  12.131  21.431  0.00  0.00    +0.000 A 
ATOM     26  C   UNL     1       0.969  12.499  20.328  0.00  0.00    +0.000 A 
ATOM     27  C   UNL     1       1.237  13.849  20.116  0.00  0.00    +0.000 A 
ATOM     28  C   UNL     1       1.850  14.242  18.937  0.00  0.00    +0.000 A 
ATOM     29  C   UNL     1       2.303  13.256  18.082  0.00  0.00    +0.000 A 
ATOM     30  N   UNL     1       2.139  11.929  18.298  0.00  0.00    +0.000 NA
ATOM     31  C   UNL     1       1.395  11.545  19.364  0.00  0.00    +0.000 A 
ENDBRANCH  18  21
ENDBRANCH   5  17
TORSDOF 3
ENDMDL
MODEL 7
REMARK VINA RESULT:      -8.6      3.259     10.362
REMARK  Name = 
REMARK  3 active torsions:
REMARK  status: ('A' for Active; 'I' for Inactive)
REMARK    1  A    between atoms: C_2  and  C_10
REMARK    2  A    between atoms: C_14  and  N_15
REMARK    3  A    between atoms: C_16  and  C_18
REMARK                            x       y       z     vdW  Elec       q    Type
REMARK                         _______ _______ _______ _____ _____    ______ ____
ROOT
ATOM      1  C   UNL     1       0.287  10.945  20.299  0.00  0.00    +0.000 A 
ATOM      2  C   UNL     1       0.754  12.089  19.646  0.00  0.00    +0.000 A 
ATOM      3  C   UNL     1       1.640  11.961  18.594  0.00  0.00    +0.000 A 
ATOM      4  C   UNL     1       2.040  10.684  18.179  0.00  0.00    +0.000 A 
ATOM      5  C   UNL     1       1.574   9.524  18.803  0.00  0.00    +0.000 A 
ATOM      6  C   UNL     1       0.677   9.668  19.888  0.00  0.00    +0.000 A 
ENDROOT
BRANCH   1   8
ATOM      7  O   UNL     1      -0.764  10.310  22.282  0.00  0.00    +0.000 OA
ATOM      8  C   UNL     1      -0.709  11.146  21.394  0.00  0.00    +0.000 C 
ATOM      9  N   UNL     1      -1.574  12.208  21.216  0.00  0.00    +0.000 N 
ATOM     10  C   UNL     1      -2.693  12.444  22.024  0.00  0.00    +0.000 A 
ATOM     11  C   UNL     1      -2.707  12.194  23.392  0.00  0.00    +0.000 A 
ATOM     12  C   UNL     1      -3.878  12.434  24.108  0.00  0.00    +0.000 A 
ATOM     13  C   UNL     1      -5.007  12.878  23.436  0.00  0.00    +0.000 A 
ATOM     14  C   UNL     1      -4.900  13.111  22.076  0.00  0.00    +0.000 A 
ATOM     15  N   UNL     1      -3.758  12.944  21.366  0.00  0.00    +0.000 NA
ATOM     16  H   UNL     1      -1.669  12.595  20.289  0.00  0.00    +0.000 HD
ENDBRANCH   1   8
BRANCH   5  17
ATOM     17  N   UNL     1       1.959   8.224  18.380  0.00  0.00    +0.000 N 
ATOM     18  C   UNL     1       2.236   7.151  19.226  0.00  0.00    +0.000 C 
ATOM     19  O   UNL     1       2.139   7.177  20.446  0.00  0.00    +0.000 OA
ATOM     20  H   UNL     1       2.020   8.039  17.379  0.00  0.00    +0.000 HD
BRANCH  18  21
ATOM     21  C   UNL     1       2.573   5.825  18.622  0.00  0.00    +0.000 A 
ATOM     22  C   UNL     1       1.745   4.756  19.024  0.00  0.00    +0.000 A 
ATOM     23  C   UNL     1       1.759   3.566  18.328  0.00  0.00    +0.000 A 
ATOM     24  F   UNL     1       0.939   2.572  18.687  0.00  0.00    +0.000 F 
ATOM     25  C   UNL     1       2.640   3.382  17.285  0.00  0.00    +0.000 A 
ATOM     26  C   UNL     1       3.646   4.332  17.082  0.00  0.00    +0.000 A 
ATOM     27  C   UNL     1       4.759   3.979  16.323  0.00  0.00    +0.000 A 
ATOM     28  C   UNL     1       5.841   4.843  16.262  0.00  0.00    +0.000 A 
ATOM     29  C   UNL     1       5.709   6.089  16.843  0.00  0.00    +0.000 A 
ATOM     30  N   UNL     1       4.607   6.502  17.514  0.00  0.00    +0.000 NA
ATOM     31  C   UNL     1       3.613   5.602  17.719  0.00  0.00    +0.000 A 
ENDBRANCH  18  21
ENDBRANCH   5  17
TORSDOF 3
ENDMDL
MODEL 8
REMARK VINA RESULT:      -8.6      3.783     10.298
REMARK  Name = 
REMARK  3 active torsions:
REMARK  status: ('A' for Active; 'I' for Inactive)
REMARK    1  A    between atoms: C_2  and  C_10
REMARK    2  A    between atoms: C_14  and  N_15
REMARK    3  A    between atoms: C_16  and  C_18
REMARK                            x       y       z     vdW  Elec       q    Type
REMARK                         _______ _______ _______ _____ _____    ______ ____
ROOT
ATOM      1  C   UNL     1      -0.162  10.706  20.871  0.00  0.00    +0.000 A 
ATOM      2  C   UNL     1       0.007  11.632  19.839  0.00  0.00    +0.000 A 
ATOM      3  C   UNL     1       0.828  11.324  18.772  0.00  0.00    +0.000 A 
ATOM      4  C   UNL     1       1.463  10.076  18.727  0.00  0.00    +0.000 A 
ATOM      5  C   UNL     1       1.297   9.125  19.737  0.00  0.00    +0.000 A 
ATOM      6  C   UNL     1       0.464   9.457  20.832  0.00  0.00    +0.000 A 
ENDROOT
BRANCH   1   8
ATOM      7  O   UNL     1      -1.071  10.422  23.001  0.00  0.00    +0.000 OA
ATOM      8  C   UNL     1      -1.103  11.077  21.970  0.00  0.00    +0.000 C 
ATOM      9  N   UNL     1      -2.023  12.055  21.653  0.00  0.00    +0.000 N 
ATOM     10  C   UNL     1      -3.105  12.402  22.471  0.00  0.00    +0.000 A 
ATOM     11  C   UNL     1      -3.031  12.415  23.860  0.00  0.00    +0.000 A 
ATOM     12  C   UNL     1      -4.170  12.746  24.592  0.00  0.00    +0.000 A 
ATOM     13  C   UNL     1      -5.354  13.017  23.921  0.00  0.00    +0.000 A 
ATOM     14  C   UNL     1      -5.334  12.992  22.538  0.00  0.00    +0.000 A 
ATOM     15  N   UNL     1      -4.227  12.733  21.800  0.00  0.00    +0.000 NA
ATOM     16  H   UNL     1      -2.187  12.257  20.677  0.00  0.00    +0.000 HD
ENDBRANCH   1   8
BRANCH   5  17
ATOM     17  N   UNL     1       1.921   7.850  19.693  0.00  0.00    +0.000 N 
ATOM     18  C   UNL     1       2.629   7.336  18.609  0.00  0.00    +0.000 C 
ATOM     19  O   UNL     1       2.845   7.937  17.564  0.00  0.00    +0.000 OA
ATOM     20  H   UNL     1       1.875   7.260  20.524  0.00  0.00    +0.000 HD
BRANCH  18  21
ATOM     21  C   UNL     1       3.279   5.996  18.741  0.00  0.00    +0.000 A 
ATOM     22  C   UNL     1       4.444   5.817  17.967  0.00  0.00    +0.000 A 
ATOM     23  C   UNL     1       5.289   4.757  18.219  0.00  0.00    +0.000 A 
ATOM     24  F   UNL     1       6.416   4.617  17.511  0.00  0.00    +0.000 F 
ATOM     25  C   UNL     1       4.962   3.818  19.173  0.00  0.00    +0.000 A 
ATOM     26  C   UNL     1       3.679   3.846  19.727  0.00  0.00    +0.000 A 
ATOM     27  C   UNL     1       3.199   2.705  20.367  0.00  0.00    +0.000 A 
ATOM     28  C   UNL     1       1.871   2.655  20.761  0.00  0.00    +0.000 A 
ATOM     29  C   UNL     1       1.114   3.803  20.631  0.00  0.00    +0.000 A 
ATOM     30  N   UNL     1       1.571   4.960  20.095  0.00  0.00    +0.000 NA
ATOM     31  C   UNL     1       2.816   4.963  19.557  0.00  0.00    +0.000 A 
ENDBRANCH  18  21
ENDBRANCH   5  17
TORSDOF 3
ENDMDL
MODEL 9
REMARK VINA RESULT:      -8.6      1.796      2.365
REMARK  Name = 
REMARK  3 active torsions:
REMARK  status: ('A' for Active; 'I' for Inactive)
REMARK    1  A    between atoms: C_2  and  C_10
REMARK    2  A    between atoms: C_14  and  N_15
REMARK    3  A    between atoms: C_16  and  C_18
REMARK                            x       y       z     vdW  Elec       q    Type
REMARK                         _______ _______ _______ _____ _____    ______ ____
ROOT
ATOM      1  C   UNL     1       4.393   6.153  17.533  0.00  0.00    +0.000 A 
ATOM      2  C   UNL     1       4.376   5.088  18.437  0.00  0.00    +0.000 A 
ATOM      3  C   UNL     1       3.507   5.116  19.510  0.00  0.00    +0.000 A 
ATOM      4  C   UNL     1       2.636   6.203  19.665  0.00  0.00    +0.000 A 
ATOM      5  C   UNL     1       2.620   7.272  18.766  0.00  0.00    +0.000 A 
ATOM      6  C   UNL     1       3.524   7.239  17.678  0.00  0.00    +0.000 A 
ENDROOT
BRANCH   1   8
ATOM      7  O   UNL     1       5.898   7.047  15.991  0.00  0.00    +0.000 OA
ATOM      8  C   UNL     1       5.317   6.040  16.365  0.00  0.00    +0.000 C 
ATOM      9  N   UNL     1       5.318   4.814  15.731  0.00  0.00    +0.000 N 
ATOM     10  C   UNL     1       5.961   4.567  14.512  0.00  0.00    +0.000 A 
ATOM     11  C   UNL     1       7.173   5.153  14.163  0.00  0.00    +0.000 A 
ATOM     12  C   UNL     1       7.723   4.869  12.914  0.00  0.00    +0.000 A 
ATOM     13  C   UNL     1       7.033   4.042  12.040  0.00  0.00    +0.000 A 
ATOM     14  C   UNL     1       5.839   3.494  12.475  0.00  0.00    +0.000 A 
ATOM     15  N   UNL     1       5.311   3.704  13.705  0.00  0.00    +0.000 NA
ATOM     16  H   UNL     1       4.543   4.189  15.901  0.00  0.00    +0.000 HD
ENDBRANCH   1   8
BRANCH   5  17
ATOM     17  N   UNL     1       1.730   8.370  18.904  0.00  0.00    +0.000 N 
ATOM     18  C   UNL     1       1.219   8.847  20.109  0.00  0.00    +0.000 C 
ATOM     19  O   UNL     1       1.507   8.408  21.215  0.00  0.00    +0.000 OA
ATOM     20  H   UNL     1       1.451   8.875  18.062  0.00  0.00    +0.000 HD
BRANCH  18  21
ATOM     21  C   UNL     1       0.335  10.053  20.092  0.00  0.00    +0.000 A 
ATOM     22  C   UNL     1       0.337  10.814  21.279  0.00  0.00    +0.000 A 
ATOM     23  C   UNL     1      -0.192  12.087  21.289  0.00  0.00    +0.000 A 
ATOM     24  F   UNL     1      -0.147  12.821  22.408  0.00  0.00    +0.000 F 
ATOM     25  C   UNL     1      -0.799  12.597  20.162  0.00  0.00    +0.000 A 
ATOM     26  C   UNL     1      -1.050  11.736  19.090  0.00  0.00    +0.000 A 
ATOM     27  C   UNL     1      -1.996  12.108  18.137  0.00  0.00    +0.000 A 
ATOM     28  C   UNL     1      -2.384  11.193  17.171  0.00  0.00    +0.000 A 
ATOM     29  C   UNL     1      -1.706   9.991  17.108  0.00  0.00    +0.000 A 
ATOM     30  N   UNL     1      -0.719   9.629  17.963  0.00  0.00    +0.000 NA
ATOM     31  C   UNL     1      -0.450  10.449  19.008  0.00  0.00    +0.000 A 
ENDBRANCH  18  21
ENDBRANCH   5  17
TORSDOF 3
ENDMDL
