MODEL 1
REMARK VINA RESULT:      -8.3      0.000      0.000
REMARK  Name = 
REMARK  3 active torsions:
REMARK  status: ('A' for Active; 'I' for Inactive)
REMARK    1  A    between atoms: N_3  and  C_4
REMARK    2  A    between atoms: N_8  and  C_9
REMARK    3  A    between atoms: C_13  and  C_14
REMARK                            x       y       z     vdW  Elec       q    Type
REMARK                         _______ _______ _______ _____ _____    ______ ____
ROOT
ATOM      1  C   UNL     1       2.645   4.652  18.557  0.00  0.00    +0.000 C 
ATOM      2  C   UNL     1       3.723   4.127  19.493  0.00  0.00    +0.000 C 
ATOM      3  C   UNL     1       4.985   4.206  18.673  0.00  0.00    +0.000 C 
ATOM      4  O   UNL     1       6.098   4.088  19.165  0.00  0.00    +0.000 OA
ATOM      5  N   UNL     1       4.628   4.338  17.326  0.00  0.00    +0.000 N 
ATOM      6  C   UNL     1       3.190   4.284  17.171  0.00  0.00    +0.000 C 
ENDROOT
BRANCH   1   9
ATOM      7  O   UNL     1       1.691   5.805  20.856  0.00  0.00    +0.000 OA
ATOM      8  C   UNL     1       1.967   6.560  19.926  0.00  0.00    +0.000 C 
ATOM      9  N   UNL     1       2.434   6.092  18.724  0.00  0.00    +0.000 N 
ATOM     10  N   UNL     1       1.840   7.925  20.003  0.00  0.00    +0.000 N 
ATOM     11  C   UNL     1       1.398   8.552  21.238  0.00  0.00    +0.000 C 
ATOM     12  C   UNL     1       0.667   9.803  20.797  0.00  0.00    +0.000 C 
ATOM     13  C   UNL     1      -0.779   9.559  20.396  0.00  0.00    +0.000 C 
ATOM     14  N   UNL     1      -1.059  10.571  19.370  0.00  0.00    +0.000 NA
ATOM     15  C   UNL     1       0.219  10.919  18.729  0.00  0.00    +0.000 C 
ATOM     16  C   UNL     1       1.323  10.189  19.479  0.00  0.00    +0.000 C 
ATOM     17  C   UNL     1       1.724   8.840  18.871  0.00  0.00    +0.000 C 
ATOM     18  H   UNL     1       3.127   6.706  18.319  0.00  0.00    +0.000 HD
ATOM     19  H   UNL     1      -1.444  11.404  19.821  0.00  0.00    +0.000 HD
ENDBRANCH   1   9
BRANCH   5  20
ATOM     20  C   UNL     1       5.524   4.449  16.234  0.00  0.00    +0.000 A 
ATOM     21  C   UNL     1       6.763   5.085  16.381  0.00  0.00    +0.000 A 
ATOM     22  C   UNL     1       7.640   5.226  15.306  0.00  0.00    +0.000 A 
ATOM     23  C   UNL     1       7.300   4.716  14.057  0.00  0.00    +0.000 A 
ATOM     24  C   UNL     1       6.074   4.067  13.873  0.00  0.00    +0.000 A 
ATOM     25  C   UNL     1       5.188   3.950  14.965  0.00  0.00    +0.000 A 
BRANCH  24  26
ATOM     26  C   UNL     1       5.700   3.486  12.532  0.00  0.00    +0.000 C 
ATOM     27  F   UNL     1       5.884   2.138  12.450  0.00  0.00    +0.000 F 
ATOM     28  F   UNL     1       4.392   3.701  12.218  0.00  0.00    +0.000 F 
ATOM     29  F   UNL     1       6.423   4.023  11.511  0.00  0.00    +0.000 F 
ENDBRANCH  24  26
ENDBRANCH   5  20
TORSDOF 3
ENDMDL
MODEL 2
REMARK VINA RESULT:      -8.0      6.629     10.639
REMARK  Name = 
REMARK  3 active torsions:
REMARK  status: ('A' for Active; 'I' for Inactive)
REMARK    1  A    between atoms: N_3  and  C_4
REMARK    2  A    between atoms: N_8  and  C_9
REMARK    3  A    between atoms: C_13  and  C_14
REMARK                            x       y       z     vdW  Elec       q    Type
REMARK                         _______ _______ _______ _____ _____    ______ ____
ROOT
ATOM      1  C   UNL     1       0.913  10.467  18.623  0.00  0.00    +0.000 C 
ATOM      2  C   UNL     1       1.774  11.617  19.123  0.00  0.00    +0.000 C 
ATOM      3  C   UNL     1       1.021  12.139  20.320  0.00  0.00    +0.000 C 
ATOM      4  O   UNL     1       1.520  12.915  21.123  0.00  0.00    +0.000 OA
ATOM      5  N   UNL     1      -0.292  11.656  20.260  0.00  0.00    +0.000 N 
ATOM      6  C   UNL     1      -0.499  10.887  19.052  0.00  0.00    +0.000 C 
ENDROOT
BRANCH   1   9
ATOM      7  O   UNL     1       2.426   8.604  17.294  0.00  0.00    +0.000 OA
ATOM      8  C   UNL     1       2.098   8.337  18.449  0.00  0.00    +0.000 C 
ATOM      9  N   UNL     1       1.327   9.185  19.201  0.00  0.00    +0.000 N 
ATOM     10  N   UNL     1       2.472   7.180  19.087  0.00  0.00    +0.000 N 
ATOM     11  C   UNL     1       3.329   6.216  18.416  0.00  0.00    +0.000 C 
ATOM     12  C   UNL     1       2.924   4.873  18.988  0.00  0.00    +0.000 C 
ATOM     13  C   UNL     1       1.702   4.264  18.318  0.00  0.00    +0.000 C 
ATOM     14  N   UNL     1       1.049   3.478  19.373  0.00  0.00    +0.000 NA
ATOM     15  C   UNL     1       1.413   4.081  20.665  0.00  0.00    +0.000 C 
ATOM     16  C   UNL     1       2.419   5.187  20.390  0.00  0.00    +0.000 C 
ATOM     17  C   UNL     1       1.808   6.586  20.244  0.00  0.00    +0.000 C 
ATOM     18  H   UNL     1       1.602   9.189  20.174  0.00  0.00    +0.000 HD
ATOM     19  H   UNL     1       1.404   2.520  19.341  0.00  0.00    +0.000 HD
ENDBRANCH   1   9
BRANCH   5  20
ATOM     20  C   UNL     1      -1.317  11.914  21.203  0.00  0.00    +0.000 A 
ATOM     21  C   UNL     1      -1.188  11.508  22.538  0.00  0.00    +0.000 A 
ATOM     22  C   UNL     1      -2.203  11.731  23.467  0.00  0.00    +0.000 A 
ATOM     23  C   UNL     1      -3.370  12.385  23.082  0.00  0.00    +0.000 A 
ATOM     24  C   UNL     1      -3.531  12.813  21.760  0.00  0.00    +0.000 A 
ATOM     25  C   UNL     1      -2.505  12.561  20.826  0.00  0.00    +0.000 A 
BRANCH  24  26
ATOM     26  C   UNL     1      -4.779  13.545  21.332  0.00  0.00    +0.000 C 
ATOM     27  F   UNL     1      -5.351  14.279  22.327  0.00  0.00    +0.000 F 
ATOM     28  F   UNL     1      -4.546  14.420  20.313  0.00  0.00    +0.000 F 
ATOM     29  F   UNL     1      -5.751  12.703  20.885  0.00  0.00    +0.000 F 
ENDBRANCH  24  26
ENDBRANCH   5  20
TORSDOF 3
ENDMDL
MODEL 3
REMARK VINA RESULT:      -8.0      5.586      7.706
REMARK  Name = 
REMARK  3 active torsions:
REMARK  status: ('A' for Active; 'I' for Inactive)
REMARK    1  A    between atoms: N_3  and  C_4
REMARK    2  A    between atoms: N_8  and  C_9
REMARK    3  A    between atoms: C_13  and  C_14
REMARK                            x       y       z     vdW  Elec       q    Type
REMARK                         _______ _______ _______ _____ _____    ______ ____
ROOT
ATOM      1  C   UNL     1       7.827   5.906  18.394  0.00  0.00    +0.000 C 
ATOM      2  C   UNL     1       7.215   5.915  17.002  0.00  0.00    +0.000 C 
ATOM      3  C   UNL     1       5.730   5.955  17.258  0.00  0.00    +0.000 C 
ATOM      4  O   UNL     1       4.918   6.206  16.379  0.00  0.00    +0.000 OA
ATOM      5  N   UNL     1       5.502   5.582  18.588  0.00  0.00    +0.000 N 
ATOM      6  C   UNL     1       6.744   5.220  19.237  0.00  0.00    +0.000 C 
ENDROOT
BRANCH   1   9
ATOM      7  O   UNL     1       7.919   8.106  16.758  0.00  0.00    +0.000 OA
ATOM      8  C   UNL     1       8.140   8.290  17.953  0.00  0.00    +0.000 C 
ATOM      9  N   UNL     1       8.139   7.261  18.860  0.00  0.00    +0.000 N 
ATOM     10  N   UNL     1       8.402   9.527  18.487  0.00  0.00    +0.000 N 
ATOM     11  C   UNL     1       8.388  10.709  17.641  0.00  0.00    +0.000 C 
ATOM     12  C   UNL     1       9.390  11.652  18.274  0.00  0.00    +0.000 C 
ATOM     13  C   UNL     1      10.831  11.374  17.874  0.00  0.00    +0.000 C 
ATOM     14  N   UNL     1      11.628  11.785  19.036  0.00  0.00    +0.000 NA
ATOM     15  C   UNL     1      10.771  11.665  20.227  0.00  0.00    +0.000 C 
ATOM     16  C   UNL     1       9.375  11.293  19.753  0.00  0.00    +0.000 C 
ATOM     17  C   UNL     1       9.080   9.789  19.754  0.00  0.00    +0.000 C 
ATOM     18  H   UNL     1       7.753   7.538  19.752  0.00  0.00    +0.000 HD
ATOM     19  H   UNL     1      11.904  12.762  18.921  0.00  0.00    +0.000 HD
ENDBRANCH   1   9
BRANCH   5  20
ATOM     20  C   UNL     1       4.239   5.499  19.223  0.00  0.00    +0.000 A 
ATOM     21  C   UNL     1       3.415   6.626  19.338  0.00  0.00    +0.000 A 
ATOM     22  C   UNL     1       2.182   6.563  19.988  0.00  0.00    +0.000 A 
ATOM     23  C   UNL     1       1.738   5.358  20.525  0.00  0.00    +0.000 A 
ATOM     24  C   UNL     1       2.530   4.209  20.422  0.00  0.00    +0.000 A 
ATOM     25  C   UNL     1       3.783   4.294  19.781  0.00  0.00    +0.000 A 
BRANCH  24  26
ATOM     26  C   UNL     1       2.053   2.890  20.977  0.00  0.00    +0.000 C 
ATOM     27  F   UNL     1       0.838   2.962  21.591  0.00  0.00    +0.000 F 
ATOM     28  F   UNL     1       1.925   1.936  20.013  0.00  0.00    +0.000 F 
ATOM     29  F   UNL     1       2.908   2.373  21.903  0.00  0.00    +0.000 F 
ENDBRANCH  24  26
ENDBRANCH   5  20
TORSDOF 3
ENDMDL
MODEL 4
REMARK VINA RESULT:      -7.9      5.508      8.212
REMARK  Name = 
REMARK  3 active torsions:
REMARK  status: ('A' for Active; 'I' for Inactive)
REMARK    1  A    between atoms: N_3  and  C_4
REMARK    2  A    between atoms: N_8  and  C_9
REMARK    3  A    between atoms: C_13  and  C_14
REMARK                            x       y       z     vdW  Elec       q    Type
REMARK                         _______ _______ _______ _____ _____    ______ ____
ROOT
ATOM      1  C   UNL     1      -1.138  11.863  22.046  0.00  0.00    +0.000 C 
ATOM      2  C   UNL     1      -0.014  12.867  21.832  0.00  0.00    +0.000 C 
ATOM      3  C   UNL     1       0.847  12.226  20.774  0.00  0.00    +0.000 C 
ATOM      4  O   UNL     1       1.719  12.840  20.175  0.00  0.00    +0.000 OA
ATOM      5  N   UNL     1       0.521  10.866  20.704  0.00  0.00    +0.000 N 
ATOM      6  C   UNL     1      -0.469  10.525  21.703  0.00  0.00    +0.000 C 
ENDROOT
BRANCH   1   9
ATOM      7  O   UNL     1      -3.686  12.207  23.001  0.00  0.00    +0.000 OA
ATOM      8  C   UNL     1      -3.524  12.324  21.788  0.00  0.00    +0.000 C 
ATOM      9  N   UNL     1      -2.297  12.155  21.199  0.00  0.00    +0.000 N 
ATOM     10  N   UNL     1      -4.542  12.635  20.921  0.00  0.00    +0.000 N 
ATOM     11  C   UNL     1      -5.883  12.884  21.423  0.00  0.00    +0.000 C 
ATOM     12  C   UNL     1      -6.805  12.438  20.307  0.00  0.00    +0.000 C 
ATOM     13  C   UNL     1      -7.078  10.942  20.299  0.00  0.00    +0.000 C 
ATOM     14  N   UNL     1      -7.290  10.607  18.885  0.00  0.00    +0.000 NA
ATOM     15  C   UNL     1      -6.559  11.599  18.080  0.00  0.00    +0.000 C 
ATOM     16  C   UNL     1      -5.994  12.640  19.034  0.00  0.00    +0.000 C 
ATOM     17  C   UNL     1      -4.552  12.379  19.483  0.00  0.00    +0.000 C 
ATOM     18  H   UNL     1      -2.152  12.795  20.430  0.00  0.00    +0.000 HD
ATOM     19  H   UNL     1      -8.288  10.676  18.674  0.00  0.00    +0.000 HD
ENDBRANCH   1   9
BRANCH   5  20
ATOM     20  C   UNL     1       1.102   9.915  19.829  0.00  0.00    +0.000 A 
ATOM     21  C   UNL     1       1.385  10.241  18.496  0.00  0.00    +0.000 A 
ATOM     22  C   UNL     1       1.930   9.303  17.619  0.00  0.00    +0.000 A 
ATOM     23  C   UNL     1       2.221   8.018  18.065  0.00  0.00    +0.000 A 
ATOM     24  C   UNL     1       1.960   7.658  19.392  0.00  0.00    +0.000 A 
ATOM     25  C   UNL     1       1.389   8.611  20.262  0.00  0.00    +0.000 A 
BRANCH  24  26
ATOM     26  C   UNL     1       2.291   6.277  19.898  0.00  0.00    +0.000 C 
ATOM     27  F   UNL     1       1.798   6.016  21.142  0.00  0.00    +0.000 F 
ATOM     28  F   UNL     1       1.799   5.295  19.091  0.00  0.00    +0.000 F 
ATOM     29  F   UNL     1       3.633   6.057  19.976  0.00  0.00    +0.000 F 
ENDBRANCH  24  26
ENDBRANCH   5  20
TORSDOF 3
ENDMDL
MODEL 5
REMARK VINA RESULT:      -7.8      6.200     10.005
REMARK  Name = 
REMARK  3 active torsions:
REMARK  status: ('A' for Active; 'I' for Inactive)
REMARK    1  A    between atoms: N_3  and  C_4
REMARK    2  A    between atoms: N_8  and  C_9
REMARK    3  A    between atoms: C_13  and  C_14
REMARK                            x       y       z     vdW  Elec       q    Type
REMARK                         _______ _______ _______ _____ _____    ______ ____
ROOT
ATOM      1  C   UNL     1       1.363   9.339  17.776  0.00  0.00    +0.000 C 
ATOM      2  C   UNL     1       2.242  10.542  18.080  0.00  0.00    +0.000 C 
ATOM      3  C   UNL     1       1.396  11.387  18.998  0.00  0.00    +0.000 C 
ATOM      4  O   UNL     1       1.854  12.323  19.639  0.00  0.00    +0.000 OA
ATOM      5  N   UNL     1       0.067  10.960  18.889  0.00  0.00    +0.000 N 
ATOM      6  C   UNL     1      -0.055   9.915  17.896  0.00  0.00    +0.000 C 
ENDROOT
BRANCH   1   9
ATOM      7  O   UNL     1       3.358   7.484  17.457  0.00  0.00    +0.000 OA
ATOM      8  C   UNL     1       2.650   7.375  18.456  0.00  0.00    +0.000 C 
ATOM      9  N   UNL     1       1.610   8.234  18.707  0.00  0.00    +0.000 N 
ATOM     10  N   UNL     1       2.831   6.398  19.403  0.00  0.00    +0.000 N 
ATOM     11  C   UNL     1       3.926   5.450  19.278  0.00  0.00    +0.000 C 
ATOM     12  C   UNL     1       3.418   4.182  19.933  0.00  0.00    +0.000 C 
ATOM     13  C   UNL     1       2.560   3.321  19.018  0.00  0.00    +0.000 C 
ATOM     14  N   UNL     1       1.615   2.647  19.917  0.00  0.00    +0.000 NA
ATOM     15  C   UNL     1       1.448   3.499  21.106  0.00  0.00    +0.000 C 
ATOM     16  C   UNL     1       2.421   4.661  20.979  0.00  0.00    +0.000 C 
ATOM     17  C   UNL     1       1.827   5.927  20.353  0.00  0.00    +0.000 C 
ATOM     18  H   UNL     1       1.512   8.436  19.693  0.00  0.00    +0.000 HD
ATOM     19  H   UNL     1       2.011   1.750  20.203  0.00  0.00    +0.000 HD
ENDBRANCH   1   9
BRANCH   5  20
ATOM     20  C   UNL     1      -1.039  11.496  19.594  0.00  0.00    +0.000 A 
ATOM     21  C   UNL     1      -2.141  12.026  18.910  0.00  0.00    +0.000 A 
ATOM     22  C   UNL     1      -3.222  12.582  19.594  0.00  0.00    +0.000 A 
ATOM     23  C   UNL     1      -3.230  12.605  20.985  0.00  0.00    +0.000 A 
ATOM     24  C   UNL     1      -2.151  12.077  21.703  0.00  0.00    +0.000 A 
ATOM     25  C   UNL     1      -1.055  11.537  20.997  0.00  0.00    +0.000 A 
BRANCH  24  26
ATOM     26  C   UNL     1      -2.155  12.072  23.211  0.00  0.00    +0.000 C 
ATOM     27  F   UNL     1      -3.399  11.954  23.754  0.00  0.00    +0.000 F 
ATOM     28  F   UNL     1      -1.425  11.045  23.730  0.00  0.00    +0.000 F 
ATOM     29  F   UNL     1      -1.624  13.210  23.739  0.00  0.00    +0.000 F 
ENDBRANCH  24  26
ENDBRANCH   5  20
TORSDOF 3
ENDMDL
MODEL 6
REMARK VINA RESULT:      -7.6      4.163      5.928
REMARK  Name = 
REMARK  3 active torsions:
REMARK  status: ('A' for Active; 'I' for Inactive)
REMARK    1  A    between atoms: N_3  and  C_4
REMARK    2  A    between atoms: N_8  and  C_9
REMARK    3  A    between atoms: C_13  and  C_14
REMARK                            x       y       z     vdW  Elec       q    Type
REMARK                         _______ _______ _______ _____ _____    ______ ____
ROOT
ATOM      1  C   UNL     1       0.540  10.403  18.770  0.00  0.00    +0.000 C 
ATOM      2  C   UNL     1       0.391   9.694  20.108  0.00  0.00    +0.000 C 
ATOM      3  C   UNL     1       1.367   8.549  20.023  0.00  0.00    +0.000 C 
ATOM      4  O   UNL     1       1.698   7.894  21.000  0.00  0.00    +0.000 OA
ATOM      5  N   UNL     1       1.709   8.360  18.678  0.00  0.00    +0.000 N 
ATOM      6  C   UNL     1       0.966   9.267  17.830  0.00  0.00    +0.000 C 
ENDROOT
BRANCH   1   9
ATOM      7  O   UNL     1       0.189  12.700  20.227  0.00  0.00    +0.000 OA
ATOM      8  C   UNL     1       1.247  12.585  19.611  0.00  0.00    +0.000 C 
ATOM      9  N   UNL     1       1.522  11.488  18.835  0.00  0.00    +0.000 N 
ATOM     10  N   UNL     1       2.242  13.531  19.644  0.00  0.00    +0.000 N 
ATOM     11  C   UNL     1       2.095  14.722  20.465  0.00  0.00    +0.000 C 
ATOM     12  C   UNL     1       2.875  15.796  19.735  0.00  0.00    +0.000 C 
ATOM     13  C   UNL     1       2.096  16.464  18.613  0.00  0.00    +0.000 C 
ATOM     14  N   UNL     1       3.113  16.844  17.625  0.00  0.00    +0.000 NA
ATOM     15  C   UNL     1       4.249  15.921  17.781  0.00  0.00    +0.000 C 
ATOM     16  C   UNL     1       3.963  15.039  18.986  0.00  0.00    +0.000 C 
ATOM     17  C   UNL     1       3.301  13.697  18.653  0.00  0.00    +0.000 C 
ATOM     18  H   UNL     1       2.496  11.222  18.883  0.00  0.00    +0.000 HD
ATOM     19  H   UNL     1       3.428  17.796  17.822  0.00  0.00    +0.000 HD
ENDBRANCH   1   9
BRANCH   5  20
ATOM     20  C   UNL     1       2.606   7.385  18.177  0.00  0.00    +0.000 A 
ATOM     21  C   UNL     1       3.794   7.760  17.538  0.00  0.00    +0.000 A 
ATOM     22  C   UNL     1       4.671   6.809  17.015  0.00  0.00    +0.000 A 
ATOM     23  C   UNL     1       4.382   5.453  17.137  0.00  0.00    +0.000 A 
ATOM     24  C   UNL     1       3.208   5.040  17.778  0.00  0.00    +0.000 A 
ATOM     25  C   UNL     1       2.322   6.014  18.282  0.00  0.00    +0.000 A 
BRANCH  24  26
ATOM     26  C   UNL     1       2.893   3.574  17.941  0.00  0.00    +0.000 C 
ATOM     27  F   UNL     1       1.913   3.324  18.855  0.00  0.00    +0.000 F 
ATOM     28  F   UNL     1       2.471   3.000  16.780  0.00  0.00    +0.000 F 
ATOM     29  F   UNL     1       3.973   2.849  18.345  0.00  0.00    +0.000 F 
ENDBRANCH  24  26
ENDBRANCH   5  20
TORSDOF 3
ENDMDL
MODEL 7
REMARK VINA RESULT:      -7.5      7.367      9.999
REMARK  Name = 
REMARK  3 active torsions:
REMARK  status: ('A' for Active; 'I' for Inactive)
REMARK    1  A    between atoms: N_3  and  C_4
REMARK    2  A    between atoms: N_8  and  C_9
REMARK    3  A    between atoms: C_13  and  C_14
REMARK                            x       y       z     vdW  Elec       q    Type
REMARK                         _______ _______ _______ _____ _____    ______ ____
ROOT
ATOM      1  C   UNL     1      -1.385  13.191  23.115  0.00  0.00    +0.000 C 
ATOM      2  C   UNL     1      -0.361  14.157  22.538  0.00  0.00    +0.000 C 
ATOM      3  C   UNL     1      -0.051  13.586  21.177  0.00  0.00    +0.000 C 
ATOM      4  O   UNL     1       0.557  14.216  20.323  0.00  0.00    +0.000 OA
ATOM      5  N   UNL     1      -0.492  12.258  21.146  0.00  0.00    +0.000 N 
ATOM      6  C   UNL     1      -1.024  11.865  22.433  0.00  0.00    +0.000 C 
ENDROOT
BRANCH   1   9
ATOM      7  O   UNL     1      -3.617  11.907  24.060  0.00  0.00    +0.000 OA
ATOM      8  C   UNL     1      -3.799  12.912  23.375  0.00  0.00    +0.000 C 
ATOM      9  N   UNL     1      -2.758  13.622  22.834  0.00  0.00    +0.000 N 
ATOM     10  N   UNL     1      -5.046  13.413  23.093  0.00  0.00    +0.000 N 
ATOM     11  C   UNL     1      -6.233  12.779  23.643  0.00  0.00    +0.000 C 
ATOM     12  C   UNL     1      -7.318  13.029  22.615  0.00  0.00    +0.000 C 
ATOM     13  C   UNL     1      -7.312  12.035  21.464  0.00  0.00    +0.000 C 
ATOM     14  N   UNL     1      -7.821  12.791  20.313  0.00  0.00    +0.000 NA
ATOM     15  C   UNL     1      -7.513  14.212  20.545  0.00  0.00    +0.000 C 
ATOM     16  C   UNL     1      -6.915  14.331  21.938  0.00  0.00    +0.000 C 
ATOM     17  C   UNL     1      -5.383  14.298  21.981  0.00  0.00    +0.000 C 
ATOM     18  H   UNL     1      -2.934  14.617  22.834  0.00  0.00    +0.000 HD
ATOM     19  H   UNL     1      -8.834  12.674  20.261  0.00  0.00    +0.000 HD
ENDBRANCH   1   9
BRANCH   5  20
ATOM     20  C   UNL     1      -0.391  11.374  20.043  0.00  0.00    +0.000 A 
ATOM     21  C   UNL     1       0.800  10.686  19.778  0.00  0.00    +0.000 A 
ATOM     22  C   UNL     1       0.919   9.836  18.678  0.00  0.00    +0.000 A 
ATOM     23  C   UNL     1      -0.164   9.642  17.826  0.00  0.00    +0.000 A 
ATOM     24  C   UNL     1      -1.373  10.306  18.064  0.00  0.00    +0.000 A 
ATOM     25  C   UNL     1      -1.472  11.178  19.168  0.00  0.00    +0.000 A 
BRANCH  24  26
ATOM     26  C   UNL     1      -2.564  10.088  17.165  0.00  0.00    +0.000 C 
ATOM     27  F   UNL     1      -2.255   9.478  15.986  0.00  0.00    +0.000 F 
ATOM     28  F   UNL     1      -3.520   9.310  17.745  0.00  0.00    +0.000 F 
ATOM     29  F   UNL     1      -3.185  11.253  16.829  0.00  0.00    +0.000 F 
ENDBRANCH  24  26
ENDBRANCH   5  20
TORSDOF 3
ENDMDL
MODEL 8
REMARK VINA RESULT:      -7.5      4.968      8.328
REMARK  Name = 
REMARK  3 active torsions:
REMARK  status: ('A' for Active; 'I' for Inactive)
REMARK    1  A    between atoms: N_3  and  C_4
REMARK    2  A    between atoms: N_8  and  C_9
REMARK    3  A    between atoms: C_13  and  C_14
REMARK                            x       y       z     vdW  Elec       q    Type
REMARK                         _______ _______ _______ _____ _____    ______ ____
ROOT
ATOM      1  C   UNL     1      -1.142  12.925  18.999  0.00  0.00    +0.000 C 
ATOM      2  C   UNL     1      -1.556  12.184  17.736  0.00  0.00    +0.000 C 
ATOM      3  C   UNL     1      -1.070  10.776  17.967  0.00  0.00    +0.000 C 
ATOM      4  O   UNL     1      -1.425   9.836  17.270  0.00  0.00    +0.000 OA
ATOM      5  N   UNL     1      -0.132  10.798  19.006  0.00  0.00    +0.000 N 
ATOM      6  C   UNL     1       0.104  12.154  19.454  0.00  0.00    +0.000 C 
ENDROOT
BRANCH   1   9
ATOM      7  O   UNL     1      -1.829  15.116  20.500  0.00  0.00    +0.000 OA
ATOM      8  C   UNL     1      -2.478  14.088  20.684  0.00  0.00    +0.000 C 
ATOM      9  N   UNL     1      -2.210  12.927  20.003  0.00  0.00    +0.000 N 
ATOM     10  N   UNL     1      -3.520  14.006  21.573  0.00  0.00    +0.000 N 
ATOM     11  C   UNL     1      -3.936  15.178  22.326  0.00  0.00    +0.000 C 
ATOM     12  C   UNL     1      -4.474  14.630  23.632  0.00  0.00    +0.000 C 
ATOM     13  C   UNL     1      -3.397  14.339  24.665  0.00  0.00    +0.000 C 
ATOM     14  N   UNL     1      -3.923  13.215  25.449  0.00  0.00    +0.000 NA
ATOM     15  C   UNL     1      -4.854  12.469  24.586  0.00  0.00    +0.000 C 
ATOM     16  C   UNL     1      -4.991  13.241  23.283  0.00  0.00    +0.000 C 
ATOM     17  C   UNL     1      -4.049  12.780  22.164  0.00  0.00    +0.000 C 
ATOM     18  H   UNL     1      -3.051  12.415  19.777  0.00  0.00    +0.000 HD
ATOM     19  H   UNL     1      -4.436  13.582  26.253  0.00  0.00    +0.000 HD
ENDBRANCH   1   9
BRANCH   5  20
ATOM     20  C   UNL     1       0.555   9.675  19.530  0.00  0.00    +0.000 A 
ATOM     21  C   UNL     1       0.454   9.337  20.885  0.00  0.00    +0.000 A 
ATOM     22  C   UNL     1       1.149   8.251  21.417  0.00  0.00    +0.000 A 
ATOM     23  C   UNL     1       1.952   7.467  20.595  0.00  0.00    +0.000 A 
ATOM     24  C   UNL     1       2.072   7.769  19.234  0.00  0.00    +0.000 A 
ATOM     25  C   UNL     1       1.379   8.883  18.715  0.00  0.00    +0.000 A 
BRANCH  24  26
ATOM     26  C   UNL     1       2.918   6.915  18.324  0.00  0.00    +0.000 C 
ATOM     27  F   UNL     1       3.547   7.619  17.341  0.00  0.00    +0.000 F 
ATOM     28  F   UNL     1       3.904   6.256  18.996  0.00  0.00    +0.000 F 
ATOM     29  F   UNL     1       2.194   5.953  17.688  0.00  0.00    +0.000 F 
ENDBRANCH  24  26
ENDBRANCH   5  20
TORSDOF 3
ENDMDL
MODEL 9
REMARK VINA RESULT:      -7.5      4.536      6.765
REMARK  Name = 
REMARK  3 active torsions:
REMARK  status: ('A' for Active; 'I' for Inactive)
REMARK    1  A    between atoms: N_3  and  C_4
REMARK    2  A    between atoms: N_8  and  C_9
REMARK    3  A    between atoms: C_13  and  C_14
REMARK                            x       y       z     vdW  Elec       q    Type
REMARK                         _______ _______ _______ _____ _____    ______ ____
ROOT
ATOM      1  C   UNL     1       0.019  10.893  19.661  0.00  0.00    +0.000 C 
ATOM      2  C   UNL     1      -0.175  10.101  20.945  0.00  0.00    +0.000 C 
ATOM      3  C   UNL     1       0.822   8.976  20.832  0.00  0.00    +0.000 C 
ATOM      4  O   UNL     1       1.122   8.265  21.780  0.00  0.00    +0.000 OA
ATOM      5  N   UNL     1       1.222   8.875  19.494  0.00  0.00    +0.000 N 
ATOM      6  C   UNL     1       0.502   9.824  18.672  0.00  0.00    +0.000 C 
ENDROOT
BRANCH   1   9
ATOM      7  O   UNL     1      -0.156  13.308  18.372  0.00  0.00    +0.000 OA
ATOM      8  C   UNL     1       0.784  13.157  19.150  0.00  0.00    +0.000 C 
ATOM      9  N   UNL     1       0.981  11.985  19.835  0.00  0.00    +0.000 N 
ATOM     10  N   UNL     1       1.711  14.137  19.407  0.00  0.00    +0.000 N 
ATOM     11  C   UNL     1       1.591  15.443  18.781  0.00  0.00    +0.000 C 
ATOM     12  C   UNL     1       3.016  15.936  18.636  0.00  0.00    +0.000 C 
ATOM     13  C   UNL     1       3.727  15.403  17.403  0.00  0.00    +0.000 C 
ATOM     14  N   UNL     1       5.142  15.329  17.789  0.00  0.00    +0.000 NA
ATOM     15  C   UNL     1       5.195  15.164  19.251  0.00  0.00    +0.000 C 
ATOM     16  C   UNL     1       3.772  15.270  19.777  0.00  0.00    +0.000 C 
ATOM     17  C   UNL     1       3.051  13.928  19.948  0.00  0.00    +0.000 C 
ATOM     18  H   UNL     1       1.329  12.143  20.770  0.00  0.00    +0.000 HD
ATOM     19  H   UNL     1       5.601  16.205  17.536  0.00  0.00    +0.000 HD
ENDBRANCH   1   9
BRANCH   5  20
ATOM     20  C   UNL     1       2.154   7.944  18.972  0.00  0.00    +0.000 A 
ATOM     21  C   UNL     1       2.954   8.267  17.869  0.00  0.00    +0.000 A 
ATOM     22  C   UNL     1       3.855   7.348  17.330  0.00  0.00    +0.000 A 
ATOM     23  C   UNL     1       3.986   6.085  17.898  0.00  0.00    +0.000 A 
ATOM     24  C   UNL     1       3.210   5.729  19.007  0.00  0.00    +0.000 A 
ATOM     25  C   UNL     1       2.289   6.662  19.528  0.00  0.00    +0.000 A 
BRANCH  24  26
ATOM     26  C   UNL     1       3.357   4.373  19.650  0.00  0.00    +0.000 C 
ATOM     27  F   UNL     1       2.838   4.305  20.908  0.00  0.00    +0.000 F 
ATOM     28  F   UNL     1       2.738   3.389  18.940  0.00  0.00    +0.000 F 
ATOM     29  F   UNL     1       4.659   3.988  19.764  0.00  0.00    +0.000 F 
ENDBRANCH  24  26
ENDBRANCH   5  20
TORSDOF 3
ENDMDL
