MODEL 1
REMARK VINA RESULT:      -9.1      0.000      0.000
REMARK  Name = 
REMARK  4 active torsions:
REMARK  status: ('A' for Active; 'I' for Inactive)
REMARK    1  A    between atoms: C_6  and  N_7
REMARK    2  A    between atoms: C_8  and  C_10
REMARK    3  A    between atoms: C_15  and  O_16
REMARK    4  A    between atoms: O_16  and  C_17
REMARK                            x       y       z     vdW  Elec       q    Type
REMARK                         _______ _______ _______ _____ _____    ______ ____
ROOT
ATOM      1  N   UNL     1       2.352   6.703  19.526  0.00  0.00    +0.000 N 
ATOM      2  C   UNL     1       1.960   5.405  19.806  0.00  0.00    +0.000 C 
ATOM      3  O   UNL     1       1.003   5.104  20.517  0.00  0.00    +0.000 OA
ATOM      4  H   UNL     1       3.105   6.826  18.860  0.00  0.00    +0.000 HD
ENDROOT
BRANCH   1  10
ATOM      5  O   UNL     1      -1.181  11.702  23.433  0.00  0.00    +0.000 OA
ATOM      6  C   UNL     1      -0.581  10.968  22.663  0.00  0.00    +0.000 C 
ATOM      7  C   UNL     1      -0.040   9.567  22.970  0.00  0.00    +0.000 C 
ATOM      8  C   UNL     1       0.576   9.182  21.659  0.00  0.00    +0.000 A 
ATOM      9  C   UNL     1       1.225   8.014  21.302  0.00  0.00    +0.000 A 
ATOM     10  C   UNL     1       1.713   7.877  19.997  0.00  0.00    +0.000 A 
ATOM     11  C   UNL     1       1.557   8.948  19.088  0.00  0.00    +0.000 A 
ATOM     12  C   UNL     1       0.896  10.130  19.457  0.00  0.00    +0.000 A 
ATOM     13  C   UNL     1       0.417  10.215  20.744  0.00  0.00    +0.000 A 
ATOM     14  N   UNL     1      -0.267  11.259  21.343  0.00  0.00    +0.000 N 
ATOM     15  H   UNL     1      -0.520  12.130  20.902  0.00  0.00    +0.000 HD
ENDBRANCH   1  10
BRANCH   2  16
ATOM     16  C   UNL     1       2.691   4.277  19.140  0.00  0.00    +0.000 A 
ATOM     17  C   UNL     1       2.382   2.990  19.631  0.00  0.00    +0.000 A 
ATOM     18  C   UNL     1       2.907   1.836  19.051  0.00  0.00    +0.000 A 
ATOM     19  C   UNL     1       3.705   1.944  17.926  0.00  0.00    +0.000 A 
ATOM     20  C   UNL     1       4.022   3.205  17.423  0.00  0.00    +0.000 A 
ATOM     21  C   UNL     1       3.599   4.382  18.078  0.00  0.00    +0.000 A 
BRANCH  21  22
ATOM     22  O   UNL     1       4.074   5.625  17.681  0.00  0.00    +0.000 OA
BRANCH  22  23
ATOM     23  C   UNL     1       5.415   5.902  17.900  0.00  0.00    +0.000 A 
ATOM     24  C   UNL     1       6.015   5.318  19.016  0.00  0.00    +0.000 A 
ATOM     25  C   UNL     1       7.316   5.682  19.375  0.00  0.00    +0.000 A 
ATOM     26  C   UNL     1       8.015   6.626  18.621  0.00  0.00    +0.000 A 
ATOM     27  C   UNL     1       7.444   7.155  17.465  0.00  0.00    +0.000 A 
ATOM     28  C   UNL     1       6.162   6.759  17.081  0.00  0.00    +0.000 A 
ENDBRANCH  22  23
ENDBRANCH  21  22
ENDBRANCH   2  16
TORSDOF 4
ENDMDL
MODEL 2
REMARK VINA RESULT:      -8.8      1.821      3.795
REMARK  Name = 
REMARK  4 active torsions:
REMARK  status: ('A' for Active; 'I' for Inactive)
REMARK    1  A    between atoms: C_6  and  N_7
REMARK    2  A    between atoms: C_8  and  C_10
REMARK    3  A    between atoms: C_15  and  O_16
REMARK    4  A    between atoms: O_16  and  C_17
REMARK                            x       y       z     vdW  Elec       q    Type
REMARK                         _______ _______ _______ _____ _____    ______ ____
ROOT
ATOM      1  N   UNL     1       2.777   6.931  18.036  0.00  0.00    +0.000 N 
ATOM      2  C   UNL     1       4.083   7.010  17.583  0.00  0.00    +0.000 C 
ATOM      3  O   UNL     1       4.819   7.980  17.745  0.00  0.00    +0.000 OA
ATOM      4  H   UNL     1       2.296   6.048  17.914  0.00  0.00    +0.000 HD
ENDROOT
BRANCH   1  10
ATOM      5  O   UNL     1      -0.489  10.931  23.142  0.00  0.00    +0.000 OA
ATOM      6  C   UNL     1       0.025  10.373  22.185  0.00  0.00    +0.000 C 
ATOM      7  C   UNL     1       0.821   9.064  22.209  0.00  0.00    +0.000 C 
ATOM      8  C   UNL     1       1.179   8.895  20.763  0.00  0.00    +0.000 A 
ATOM      9  C   UNL     1       1.895   7.886  20.147  0.00  0.00    +0.000 A 
ATOM     10  C   UNL     1       2.094   7.939  18.762  0.00  0.00    +0.000 A 
ATOM     11  C   UNL     1       1.582   9.038  18.035  0.00  0.00    +0.000 A 
ATOM     12  C   UNL     1       0.854  10.058  18.667  0.00  0.00    +0.000 A 
ATOM     13  C   UNL     1       0.668   9.957  20.026  0.00  0.00    +0.000 A 
ATOM     14  N   UNL     1      -0.011  10.819  20.870  0.00  0.00    +0.000 N 
ATOM     15  H   UNL     1      -0.482  11.668  20.595  0.00  0.00    +0.000 HD
ENDBRANCH   1  10
BRANCH   2  16
ATOM     16  C   UNL     1       4.682   5.806  16.917  0.00  0.00    +0.000 A 
ATOM     17  C   UNL     1       4.954   5.957  15.540  0.00  0.00    +0.000 A 
ATOM     18  C   UNL     1       5.597   4.963  14.804  0.00  0.00    +0.000 A 
ATOM     19  C   UNL     1       6.039   3.820  15.447  0.00  0.00    +0.000 A 
ATOM     20  C   UNL     1       5.783   3.651  16.806  0.00  0.00    +0.000 A 
ATOM     21  C   UNL     1       5.022   4.594  17.532  0.00  0.00    +0.000 A 
BRANCH  21  22
ATOM     22  O   UNL     1       4.613   4.328  18.832  0.00  0.00    +0.000 OA
BRANCH  22  23
ATOM     23  C   UNL     1       3.300   3.925  19.023  0.00  0.00    +0.000 A 
ATOM     24  C   UNL     1       2.708   4.233  20.249  0.00  0.00    +0.000 A 
ATOM     25  C   UNL     1       1.446   3.719  20.559  0.00  0.00    +0.000 A 
ATOM     26  C   UNL     1       0.776   2.902  19.648  0.00  0.00    +0.000 A 
ATOM     27  C   UNL     1       1.333   2.654  18.395  0.00  0.00    +0.000 A 
ATOM     28  C   UNL     1       2.574   3.202  18.067  0.00  0.00    +0.000 A 
ENDBRANCH  22  23
ENDBRANCH  21  22
ENDBRANCH   2  16
TORSDOF 4
ENDMDL
MODEL 3
REMARK VINA RESULT:      -8.8      0.732      1.196
REMARK  Name = 
REMARK  4 active torsions:
REMARK  status: ('A' for Active; 'I' for Inactive)
REMARK    1  A    between atoms: C_6  and  N_7
REMARK    2  A    between atoms: C_8  and  C_10
REMARK    3  A    between atoms: C_15  and  O_16
REMARK    4  A    between atoms: O_16  and  C_17
REMARK                            x       y       z     vdW  Elec       q    Type
REMARK                         _______ _______ _______ _____ _____    ______ ____
ROOT
ATOM      1  N   UNL     1       2.285   6.489  19.899  0.00  0.00    +0.000 N 
ATOM      2  C   UNL     1       1.737   5.229  20.063  0.00  0.00    +0.000 C 
ATOM      3  O   UNL     1       0.638   5.007  20.569  0.00  0.00    +0.000 OA
ATOM      4  H   UNL     1       3.161   6.551  19.393  0.00  0.00    +0.000 HD
ENDROOT
BRANCH   1  10
ATOM      5  O   UNL     1      -1.195  11.847  23.352  0.00  0.00    +0.000 OA
ATOM      6  C   UNL     1      -0.598  11.044  22.651  0.00  0.00    +0.000 C 
ATOM      7  C   UNL     1      -0.106   9.654  23.070  0.00  0.00    +0.000 C 
ATOM      8  C   UNL     1       0.531   9.160  21.806  0.00  0.00    +0.000 A 
ATOM      9  C   UNL     1       1.154   7.953  21.548  0.00  0.00    +0.000 A 
ATOM     10  C   UNL     1       1.670   7.711  20.269  0.00  0.00    +0.000 A 
ATOM     11  C   UNL     1       1.568   8.719  19.284  0.00  0.00    +0.000 A 
ATOM     12  C   UNL     1       0.933   9.942  19.551  0.00  0.00    +0.000 A 
ATOM     13  C   UNL     1       0.425  10.130  20.817  0.00  0.00    +0.000 A 
ATOM     14  N   UNL     1      -0.243  11.233  21.322  0.00  0.00    +0.000 N 
ATOM     15  H   UNL     1      -0.459  12.077  20.815  0.00  0.00    +0.000 HD
ENDBRANCH   1  10
BRANCH   2  16
ATOM     16  C   UNL     1       2.484   4.047  19.520  0.00  0.00    +0.000 A 
ATOM     17  C   UNL     1       1.676   2.971  19.095  0.00  0.00    +0.000 A 
ATOM     18  C   UNL     1       2.217   1.842  18.480  0.00  0.00    +0.000 A 
ATOM     19  C   UNL     1       3.576   1.796  18.221  0.00  0.00    +0.000 A 
ATOM     20  C   UNL     1       4.392   2.847  18.631  0.00  0.00    +0.000 A 
ATOM     21  C   UNL     1       3.873   3.935  19.366  0.00  0.00    +0.000 A 
BRANCH  21  22
ATOM     22  O   UNL     1       4.719   4.880  19.931  0.00  0.00    +0.000 OA
BRANCH  22  23
ATOM     23  C   UNL     1       5.589   5.552  19.086  0.00  0.00    +0.000 A 
ATOM     24  C   UNL     1       5.044   6.147  17.948  0.00  0.00    +0.000 A 
ATOM     25  C   UNL     1       5.889   6.702  16.982  0.00  0.00    +0.000 A 
ATOM     26  C   UNL     1       7.274   6.663  17.154  0.00  0.00    +0.000 A 
ATOM     27  C   UNL     1       7.815   6.135  18.324  0.00  0.00    +0.000 A 
ATOM     28  C   UNL     1       6.971   5.620  19.308  0.00  0.00    +0.000 A 
ENDBRANCH  22  23
ENDBRANCH  21  22
ENDBRANCH   2  16
TORSDOF 4
ENDMDL
MODEL 4
REMARK VINA RESULT:      -8.8      1.871      3.862
REMARK  Name = 
REMARK  4 active torsions:
REMARK  status: ('A' for Active; 'I' for Inactive)
REMARK    1  A    between atoms: C_6  and  N_7
REMARK    2  A    between atoms: C_8  and  C_10
REMARK    3  A    between atoms: C_15  and  O_16
REMARK    4  A    between atoms: O_16  and  C_17
REMARK                            x       y       z     vdW  Elec       q    Type
REMARK                         _______ _______ _______ _____ _____    ______ ____
ROOT
ATOM      1  N   UNL     1       2.975   6.878  17.734  0.00  0.00    +0.000 N 
ATOM      2  C   UNL     1       4.334   6.859  17.469  0.00  0.00    +0.000 C 
ATOM      3  O   UNL     1       5.134   7.701  17.870  0.00  0.00    +0.000 OA
ATOM      4  H   UNL     1       2.430   6.085  17.418  0.00  0.00    +0.000 HD
ENDROOT
BRANCH   1  10
ATOM      5  O   UNL     1      -0.274  10.623  23.039  0.00  0.00    +0.000 OA
ATOM      6  C   UNL     1       0.240  10.115  22.055  0.00  0.00    +0.000 C 
ATOM      7  C   UNL     1       1.018   8.795  22.009  0.00  0.00    +0.000 C 
ATOM      8  C   UNL     1       1.384   8.704  20.558  0.00  0.00    +0.000 A 
ATOM      9  C   UNL     1       2.091   7.723  19.890  0.00  0.00    +0.000 A 
ATOM     10  C   UNL     1       2.301   7.852  18.511  0.00  0.00    +0.000 A 
ATOM     11  C   UNL     1       1.810   8.998  17.845  0.00  0.00    +0.000 A 
ATOM     12  C   UNL     1       1.091   9.990  18.530  0.00  0.00    +0.000 A 
ATOM     13  C   UNL     1       0.893   9.813  19.880  0.00  0.00    +0.000 A 
ATOM     14  N   UNL     1       0.219  10.635  20.768  0.00  0.00    +0.000 N 
ATOM     15  H   UNL     1      -0.238  11.505  20.539  0.00  0.00    +0.000 HD
ENDBRANCH   1  10
BRANCH   2  16
ATOM     16  C   UNL     1       4.898   5.694  16.709  0.00  0.00    +0.000 A 
ATOM     17  C   UNL     1       5.054   5.904  15.321  0.00  0.00    +0.000 A 
ATOM     18  C   UNL     1       5.652   4.952  14.497  0.00  0.00    +0.000 A 
ATOM     19  C   UNL     1       6.165   3.795  15.056  0.00  0.00    +0.000 A 
ATOM     20  C   UNL     1       6.024   3.569  16.424  0.00  0.00    +0.000 A 
ATOM     21  C   UNL     1       5.308   4.466  17.245  0.00  0.00    +0.000 A 
BRANCH  21  22
ATOM     22  O   UNL     1       5.011   4.142  18.562  0.00  0.00    +0.000 OA
BRANCH  22  23
ATOM     23  C   UNL     1       3.734   3.679  18.839  0.00  0.00    +0.000 A 
ATOM     24  C   UNL     1       3.200   2.721  17.977  0.00  0.00    +0.000 A 
ATOM     25  C   UNL     1       1.864   2.332  18.112  0.00  0.00    +0.000 A 
ATOM     26  C   UNL     1       1.064   2.899  19.106  0.00  0.00    +0.000 A 
ATOM     27  C   UNL     1       1.616   3.801  20.013  0.00  0.00    +0.000 A 
ATOM     28  C   UNL     1       2.962   4.157  19.906  0.00  0.00    +0.000 A 
ENDBRANCH  22  23
ENDBRANCH  21  22
ENDBRANCH   2  16
TORSDOF 4
ENDMDL
MODEL 5
REMARK VINA RESULT:      -8.7      1.654      3.611
REMARK  Name = 
REMARK  4 active torsions:
REMARK  status: ('A' for Active; 'I' for Inactive)
REMARK    1  A    between atoms: C_6  and  N_7
REMARK    2  A    between atoms: C_8  and  C_10
REMARK    3  A    between atoms: C_15  and  O_16
REMARK    4  A    between atoms: O_16  and  C_17
REMARK                            x       y       z     vdW  Elec       q    Type
REMARK                         _______ _______ _______ _____ _____    ______ ____
ROOT
ATOM      1  N   UNL     1       2.661   7.511  17.934  0.00  0.00    +0.000 N 
ATOM      2  C   UNL     1       3.495   6.509  18.399  0.00  0.00    +0.000 C 
ATOM      3  O   UNL     1       3.674   6.247  19.586  0.00  0.00    +0.000 OA
ATOM      4  H   UNL     1       2.531   7.578  16.932  0.00  0.00    +0.000 HD
ENDROOT
BRANCH   1  10
ATOM      5  O   UNL     1      -0.904  10.737  23.377  0.00  0.00    +0.000 OA
ATOM      6  C   UNL     1      -0.358  10.309  22.371  0.00  0.00    +0.000 C 
ATOM      7  C   UNL     1       0.602   9.117  22.289  0.00  0.00    +0.000 C 
ATOM      8  C   UNL     1       0.924   9.082  20.826  0.00  0.00    +0.000 A 
ATOM      9  C   UNL     1       1.742   8.215  20.126  0.00  0.00    +0.000 A 
ATOM     10  C   UNL     1       1.881   8.375  18.742  0.00  0.00    +0.000 A 
ATOM     11  C   UNL     1       1.204   9.438  18.101  0.00  0.00    +0.000 A 
ATOM     12  C   UNL     1       0.374  10.314  18.818  0.00  0.00    +0.000 A 
ATOM     13  C   UNL     1       0.253  10.109  20.173  0.00  0.00    +0.000 A 
ATOM     14  N   UNL     1      -0.501  10.823  21.089  0.00  0.00    +0.000 N 
ATOM     15  H   UNL     1      -1.087  11.617  20.883  0.00  0.00    +0.000 HD
ENDBRANCH   1  10
BRANCH   2  16
ATOM     16  C   UNL     1       4.171   5.619  17.398  0.00  0.00    +0.000 A 
ATOM     17  C   UNL     1       5.337   6.157  16.811  0.00  0.00    +0.000 A 
ATOM     18  C   UNL     1       6.128   5.415  15.934  0.00  0.00    +0.000 A 
ATOM     19  C   UNL     1       5.802   4.095  15.677  0.00  0.00    +0.000 A 
ATOM     20  C   UNL     1       4.656   3.544  16.247  0.00  0.00    +0.000 A 
ATOM     21  C   UNL     1       3.781   4.323  17.034  0.00  0.00    +0.000 A 
BRANCH  21  22
ATOM     22  O   UNL     1       2.552   3.821  17.440  0.00  0.00    +0.000 OA
BRANCH  22  23
ATOM     23  C   UNL     1       2.433   3.395  18.754  0.00  0.00    +0.000 A 
ATOM     24  C   UNL     1       1.248   3.705  19.423  0.00  0.00    +0.000 A 
ATOM     25  C   UNL     1       1.133   3.440  20.791  0.00  0.00    +0.000 A 
ATOM     26  C   UNL     1       2.198   2.866  21.487  0.00  0.00    +0.000 A 
ATOM     27  C   UNL     1       3.353   2.489  20.806  0.00  0.00    +0.000 A 
ATOM     28  C   UNL     1       3.452   2.713  19.432  0.00  0.00    +0.000 A 
ENDBRANCH  22  23
ENDBRANCH  21  22
ENDBRANCH   2  16
TORSDOF 4
ENDMDL
MODEL 6
REMARK VINA RESULT:      -8.7      1.536      3.852
REMARK  Name = 
REMARK  4 active torsions:
REMARK  status: ('A' for Active; 'I' for Inactive)
REMARK    1  A    between atoms: C_6  and  N_7
REMARK    2  A    between atoms: C_8  and  C_10
REMARK    3  A    between atoms: C_15  and  O_16
REMARK    4  A    between atoms: O_16  and  C_17
REMARK                            x       y       z     vdW  Elec       q    Type
REMARK                         _______ _______ _______ _____ _____    ______ ____
ROOT
ATOM      1  N   UNL     1       2.091   7.771  19.281  0.00  0.00    +0.000 N 
ATOM      2  C   UNL     1       2.721   7.828  18.049  0.00  0.00    +0.000 C 
ATOM      3  O   UNL     1       2.632   8.769  17.264  0.00  0.00    +0.000 OA
ATOM      4  H   UNL     1       2.307   6.979  19.876  0.00  0.00    +0.000 HD
ENDROOT
BRANCH   1  10
ATOM      5  O   UNL     1      -1.993  11.930  23.611  0.00  0.00    +0.000 OA
ATOM      6  C   UNL     1      -1.338  11.334  22.770  0.00  0.00    +0.000 C 
ATOM      7  C   UNL     1      -0.466  10.095  23.002  0.00  0.00    +0.000 C 
ATOM      8  C   UNL     1       0.066   9.832  21.626  0.00  0.00    +0.000 A 
ATOM      9  C   UNL     1       0.913   8.832  21.187  0.00  0.00    +0.000 A 
ATOM     10  C   UNL     1       1.266   8.782  19.832  0.00  0.00    +0.000 A 
ATOM     11  C   UNL     1       0.770   9.774  18.956  0.00  0.00    +0.000 A 
ATOM     12  C   UNL     1      -0.091  10.786  19.408  0.00  0.00    +0.000 A 
ATOM     13  C   UNL     1      -0.425  10.786  20.743  0.00  0.00    +0.000 A 
ATOM     14  N   UNL     1      -1.252  11.663  21.425  0.00  0.00    +0.000 N 
ATOM     15  H   UNL     1      -1.742  12.448  21.023  0.00  0.00    +0.000 HD
ENDBRANCH   1  10
BRANCH   2  16
ATOM     16  C   UNL     1       3.643   6.708  17.665  0.00  0.00    +0.000 A 
ATOM     17  C   UNL     1       4.935   7.109  17.262  0.00  0.00    +0.000 A 
ATOM     18  C   UNL     1       5.934   6.182  16.966  0.00  0.00    +0.000 A 
ATOM     19  C   UNL     1       5.677   4.832  17.129  0.00  0.00    +0.000 A 
ATOM     20  C   UNL     1       4.409   4.414  17.528  0.00  0.00    +0.000 A 
ATOM     21  C   UNL     1       3.356   5.337  17.707  0.00  0.00    +0.000 A 
BRANCH  21  22
ATOM     22  O   UNL     1       2.055   4.900  17.919  0.00  0.00    +0.000 OA
BRANCH  22  23
ATOM     23  C   UNL     1       1.812   4.124  19.043  0.00  0.00    +0.000 A 
ATOM     24  C   UNL     1       2.094   4.693  20.286  0.00  0.00    +0.000 A 
ATOM     25  C   UNL     1       2.017   3.910  21.441  0.00  0.00    +0.000 A 
ATOM     26  C   UNL     1       1.659   2.563  21.355  0.00  0.00    +0.000 A 
ATOM     27  C   UNL     1       1.307   2.014  20.123  0.00  0.00    +0.000 A 
ATOM     28  C   UNL     1       1.340   2.807  18.975  0.00  0.00    +0.000 A 
ENDBRANCH  22  23
ENDBRANCH  21  22
ENDBRANCH   2  16
TORSDOF 4
ENDMDL
MODEL 7
REMARK VINA RESULT:      -8.6      1.565      3.774
REMARK  Name = 
REMARK  4 active torsions:
REMARK  status: ('A' for Active; 'I' for Inactive)
REMARK    1  A    between atoms: C_6  and  N_7
REMARK    2  A    between atoms: C_8  and  C_10
REMARK    3  A    between atoms: C_15  and  O_16
REMARK    4  A    between atoms: O_16  and  C_17
REMARK                            x       y       z     vdW  Elec       q    Type
REMARK                         _______ _______ _______ _____ _____    ______ ____
ROOT
ATOM      1  N   UNL     1       2.600   7.375  19.145  0.00  0.00    +0.000 N 
ATOM      2  C   UNL     1       3.277   7.487  17.943  0.00  0.00    +0.000 C 
ATOM      3  O   UNL     1       3.194   8.450  17.184  0.00  0.00    +0.000 OA
ATOM      4  H   UNL     1       2.813   6.571  19.724  0.00  0.00    +0.000 HD
ENDROOT
BRANCH   1  10
ATOM      5  O   UNL     1      -1.718  11.323  23.447  0.00  0.00    +0.000 OA
ATOM      6  C   UNL     1      -1.026  10.762  22.612  0.00  0.00    +0.000 C 
ATOM      7  C   UNL     1      -0.107   9.557  22.846  0.00  0.00    +0.000 C 
ATOM      8  C   UNL     1       0.456   9.329  21.476  0.00  0.00    +0.000 A 
ATOM      9  C   UNL     1       1.350   8.369  21.041  0.00  0.00    +0.000 A 
ATOM     10  C   UNL     1       1.725   8.346  19.692  0.00  0.00    +0.000 A 
ATOM     11  C   UNL     1       1.203   9.325  18.817  0.00  0.00    +0.000 A 
ATOM     12  C   UNL     1       0.294  10.297  19.264  0.00  0.00    +0.000 A 
ATOM     13  C   UNL     1      -0.060  10.271  20.594  0.00  0.00    +0.000 A 
ATOM     14  N   UNL     1      -0.933  11.107  21.270  0.00  0.00    +0.000 N 
ATOM     15  H   UNL     1      -1.449  11.874  20.868  0.00  0.00    +0.000 HD
ENDBRANCH   1  10
BRANCH   2  16
ATOM     16  C   UNL     1       4.245   6.405  17.563  0.00  0.00    +0.000 A 
ATOM     17  C   UNL     1       4.798   6.524  16.270  0.00  0.00    +0.000 A 
ATOM     18  C   UNL     1       5.781   5.651  15.808  0.00  0.00    +0.000 A 
ATOM     19  C   UNL     1       6.279   4.677  16.657  0.00  0.00    +0.000 A 
ATOM     20  C   UNL     1       5.748   4.544  17.938  0.00  0.00    +0.000 A 
ATOM     21  C   UNL     1       4.665   5.340  18.370  0.00  0.00    +0.000 A 
BRANCH  21  22
ATOM     22  O   UNL     1       4.023   5.074  19.572  0.00  0.00    +0.000 OA
BRANCH  22  23
ATOM     23  C   UNL     1       2.887   4.280  19.533  0.00  0.00    +0.000 A 
ATOM     24  C   UNL     1       2.154   4.153  20.714  0.00  0.00    +0.000 A 
ATOM     25  C   UNL     1       1.092   3.245  20.778  0.00  0.00    +0.000 A 
ATOM     26  C   UNL     1       0.764   2.468  19.666  0.00  0.00    +0.000 A 
ATOM     27  C   UNL     1       1.448   2.647  18.465  0.00  0.00    +0.000 A 
ATOM     28  C   UNL     1       2.479   3.584  18.387  0.00  0.00    +0.000 A 
ENDBRANCH  22  23
ENDBRANCH  21  22
ENDBRANCH   2  16
TORSDOF 4
ENDMDL
MODEL 8
REMARK VINA RESULT:      -8.5      1.765      3.642
REMARK  Name = 
REMARK  4 active torsions:
REMARK  status: ('A' for Active; 'I' for Inactive)
REMARK    1  A    between atoms: C_6  and  N_7
REMARK    2  A    between atoms: C_8  and  C_10
REMARK    3  A    between atoms: C_15  and  O_16
REMARK    4  A    between atoms: O_16  and  C_17
REMARK                            x       y       z     vdW  Elec       q    Type
REMARK                         _______ _______ _______ _____ _____    ______ ____
ROOT
ATOM      1  N   UNL     1       2.639   6.974  17.940  0.00  0.00    +0.000 N 
ATOM      2  C   UNL     1       3.986   6.943  17.617  0.00  0.00    +0.000 C 
ATOM      3  O   UNL     1       4.800   7.803  17.944  0.00  0.00    +0.000 OA
ATOM      4  H   UNL     1       2.083   6.166  17.686  0.00  0.00    +0.000 HD
ENDROOT
BRANCH   1  10
ATOM      5  O   UNL     1      -0.457  10.928  23.186  0.00  0.00    +0.000 OA
ATOM      6  C   UNL     1       0.033  10.382  22.208  0.00  0.00    +0.000 C 
ATOM      7  C   UNL     1       0.780   9.044  22.188  0.00  0.00    +0.000 C 
ATOM      8  C   UNL     1       1.126   8.908  20.736  0.00  0.00    +0.000 A 
ATOM      9  C   UNL     1       1.802   7.893  20.085  0.00  0.00    +0.000 A 
ATOM     10  C   UNL     1       1.997   7.982  18.701  0.00  0.00    +0.000 A 
ATOM     11  C   UNL     1       1.523   9.121  18.011  0.00  0.00    +0.000 A 
ATOM     12  C   UNL     1       0.835  10.147  18.678  0.00  0.00    +0.000 A 
ATOM     13  C   UNL     1       0.651  10.010  20.035  0.00  0.00    +0.000 A 
ATOM     14  N   UNL     1       0.007  10.870  20.909  0.00  0.00    +0.000 N 
ATOM     15  H   UNL     1      -0.433  11.743  20.663  0.00  0.00    +0.000 HD
ENDBRANCH   1  10
BRANCH   2  16
ATOM     16  C   UNL     1       4.519   5.744  16.889  0.00  0.00    +0.000 A 
ATOM     17  C   UNL     1       5.707   5.967  16.160  0.00  0.00    +0.000 A 
ATOM     18  C   UNL     1       6.376   4.931  15.509  0.00  0.00    +0.000 A 
ATOM     19  C   UNL     1       5.901   3.636  15.628  0.00  0.00    +0.000 A 
ATOM     20  C   UNL     1       4.731   3.394  16.344  0.00  0.00    +0.000 A 
ATOM     21  C   UNL     1       3.979   4.451  16.899  0.00  0.00    +0.000 A 
BRANCH  21  22
ATOM     22  O   UNL     1       2.723   4.221  17.445  0.00  0.00    +0.000 OA
BRANCH  22  23
ATOM     23  C   UNL     1       2.659   3.844  18.778  0.00  0.00    +0.000 A 
ATOM     24  C   UNL     1       3.730   3.107  19.286  0.00  0.00    +0.000 A 
ATOM     25  C   UNL     1       3.652   2.568  20.574  0.00  0.00    +0.000 A 
ATOM     26  C   UNL     1       2.510   2.765  21.351  0.00  0.00    +0.000 A 
ATOM     27  C   UNL     1       1.472   3.562  20.872  0.00  0.00    +0.000 A 
ATOM     28  C   UNL     1       1.567   4.138  19.604  0.00  0.00    +0.000 A 
ENDBRANCH  22  23
ENDBRANCH  21  22
ENDBRANCH   2  16
TORSDOF 4
ENDMDL
MODEL 9
REMARK VINA RESULT:      -8.5      1.810      4.129
REMARK  Name = 
REMARK  4 active torsions:
REMARK  status: ('A' for Active; 'I' for Inactive)
REMARK    1  A    between atoms: C_6  and  N_7
REMARK    2  A    between atoms: C_8  and  C_10
REMARK    3  A    between atoms: C_15  and  O_16
REMARK    4  A    between atoms: O_16  and  C_17
REMARK                            x       y       z     vdW  Elec       q    Type
REMARK                         _______ _______ _______ _____ _____    ______ ____
ROOT
ATOM      1  N   UNL     1       1.924   7.816  19.548  0.00  0.00    +0.000 N 
ATOM      2  C   UNL     1       2.457   8.046  18.291  0.00  0.00    +0.000 C 
ATOM      3  O   UNL     1       2.332   9.095  17.663  0.00  0.00    +0.000 OA
ATOM      4  H   UNL     1       2.164   6.942  20.000  0.00  0.00    +0.000 HD
ENDROOT
BRANCH   1  10
ATOM      5  O   UNL     1      -2.302  13.279  21.792  0.00  0.00    +0.000 OA
ATOM      6  C   UNL     1      -1.574  12.324  21.565  0.00  0.00    +0.000 C 
ATOM      7  C   UNL     1      -1.205  11.764  20.187  0.00  0.00    +0.000 C 
ATOM      8  C   UNL     1      -0.301  10.625  20.551  0.00  0.00    +0.000 A 
ATOM      9  C   UNL     1       0.363   9.733  19.730  0.00  0.00    +0.000 A 
ATOM     10  C   UNL     1       1.172   8.746  20.307  0.00  0.00    +0.000 A 
ATOM     11  C   UNL     1       1.264   8.670  21.716  0.00  0.00    +0.000 A 
ATOM     12  C   UNL     1       0.589   9.580  22.543  0.00  0.00    +0.000 A 
ATOM     13  C   UNL     1      -0.181  10.544  21.933  0.00  0.00    +0.000 A 
ATOM     14  N   UNL     1      -0.931  11.549  22.520  0.00  0.00    +0.000 N 
ATOM     15  H   UNL     1      -1.017  11.721  23.510  0.00  0.00    +0.000 HD
ENDBRANCH   1  10
BRANCH   2  16
ATOM     16  C   UNL     1       3.315   6.982  17.672  0.00  0.00    +0.000 A 
ATOM     17  C   UNL     1       4.494   7.450  17.052  0.00  0.00    +0.000 A 
ATOM     18  C   UNL     1       5.439   6.577  16.517  0.00  0.00    +0.000 A 
ATOM     19  C   UNL     1       5.254   5.211  16.648  0.00  0.00    +0.000 A 
ATOM     20  C   UNL     1       4.099   4.728  17.258  0.00  0.00    +0.000 A 
ATOM     21  C   UNL     1       3.077   5.601  17.690  0.00  0.00    +0.000 A 
BRANCH  21  22
ATOM     22  O   UNL     1       1.854   5.106  18.122  0.00  0.00    +0.000 OA
BRANCH  22  23
ATOM     23  C   UNL     1       1.854   4.258  19.220  0.00  0.00    +0.000 A 
ATOM     24  C   UNL     1       1.263   3.004  19.060  0.00  0.00    +0.000 A 
ATOM     25  C   UNL     1       1.094   2.170  20.169  0.00  0.00    +0.000 A 
ATOM     26  C   UNL     1       1.516   2.587  21.433  0.00  0.00    +0.000 A 
ATOM     27  C   UNL     1       2.173   3.807  21.580  0.00  0.00    +0.000 A 
ATOM     28  C   UNL     1       2.381   4.621  20.466  0.00  0.00    +0.000 A 
ENDBRANCH  22  23
ENDBRANCH  21  22
ENDBRANCH   2  16
TORSDOF 4
ENDMDL
