MODEL 1
REMARK VINA RESULT:      -9.6      0.000      0.000
REMARK  Name = 
REMARK  4 active torsions:
REMARK  status: ('A' for Active; 'I' for Inactive)
REMARK    1  A    between atoms: C_6  and  C_7
REMARK    2  A    between atoms: C_7  and  C_8
REMARK    3  A    between atoms: C_11  and  C_12
REMARK    4  A    between atoms: C_12  and  N_13
REMARK                            x       y       z     vdW  Elec       q    Type
REMARK                         _______ _______ _______ _____ _____    ______ ____
ROOT
ATOM      1  C   UNL     1       6.501   6.320  17.151  0.00  0.00    +0.000 C 
ENDROOT
BRANCH   1   2
ATOM      2  N   UNL     1       6.736   4.890  17.510  0.00  0.00    +0.000 NA
ATOM      3  C   UNL     1       6.448   4.007  16.375  0.00  0.00    +0.000 C 
ATOM      4  C   UNL     1       4.957   3.909  15.978  0.00  0.00    +0.000 C 
ATOM      5  O   UNL     1       3.932   4.298  16.906  0.00  0.00    +0.000 OA
ATOM      6  C   UNL     1       4.259   4.631  18.267  0.00  0.00    +0.000 C 
ATOM      7  C   UNL     1       3.920   6.138  18.542  0.00  0.00    +0.000 C 
ATOM      8  C   UNL     1       2.685   6.290  19.409  0.00  0.00    +0.000 C 
ATOM      9  C   UNL     1       2.365   4.890  19.771  0.00  0.00    +0.000 A 
ATOM     10  C   UNL     1       1.267   4.538  20.548  0.00  0.00    +0.000 A 
ATOM     11  C   UNL     1       0.937   3.192  20.642  0.00  0.00    +0.000 A 
ATOM     12  C   UNL     1       1.719   2.241  19.976  0.00  0.00    +0.000 A 
ATOM     13  C   UNL     1       2.859   2.614  19.234  0.00  0.00    +0.000 A 
ATOM     14  C   UNL     1       3.203   3.960  19.140  0.00  0.00    +0.000 A 
ATOM     15  C   UNL     1       5.779   4.406  18.582  0.00  0.00    +0.000 C 
ENDBRANCH   1   2
BRANCH   1  19
ATOM     16  C   UNL     1       8.185   9.363  17.943  0.00  0.00    +0.000 A 
ATOM     17  N   UNL     1       8.781   8.573  18.852  0.00  0.00    +0.000 NA
ATOM     18  O   UNL     1       8.270   7.293  18.571  0.00  0.00    +0.000 OA
ATOM     19  C   UNL     1       7.464   7.431  17.478  0.00  0.00    +0.000 A 
ATOM     20  N   UNL     1       7.407   8.673  17.035  0.00  0.00    +0.000 NA
BRANCH  16  21
ATOM     21  C   UNL     1       8.467  10.820  17.802  0.00  0.00    +0.000 C 
BRANCH  21  27
ATOM     22  F   UNL     1      10.188  12.514  22.075  0.00  0.00    +0.000 F 
ATOM     23  C   UNL     1      10.433  12.105  20.823  0.00  0.00    +0.000 A 
ATOM     24  C   UNL     1      11.730  12.168  20.328  0.00  0.00    +0.000 A 
ATOM     25  C   UNL     1      11.981  11.755  19.022  0.00  0.00    +0.000 A 
ATOM     26  C   UNL     1      10.930  11.284  18.221  0.00  0.00    +0.000 A 
ATOM     27  C   UNL     1       9.612  11.218  18.713  0.00  0.00    +0.000 A 
ATOM     28  C   UNL     1       9.381  11.634  20.034  0.00  0.00    +0.000 A 
ENDBRANCH  21  27
ENDBRANCH  16  21
ENDBRANCH   1  19
TORSDOF 4
ENDMDL
MODEL 2
REMARK VINA RESULT:      -9.4      1.014      1.051
REMARK  Name = 
REMARK  4 active torsions:
REMARK  status: ('A' for Active; 'I' for Inactive)
REMARK    1  A    between atoms: C_6  and  C_7
REMARK    2  A    between atoms: C_7  and  C_8
REMARK    3  A    between atoms: C_11  and  C_12
REMARK    4  A    between atoms: C_12  and  N_13
REMARK                            x       y       z     vdW  Elec       q    Type
REMARK                         _______ _______ _______ _____ _____    ______ ____
ROOT
ATOM      1  C   UNL     1       6.792   6.657  17.494  0.00  0.00    +0.000 C 
ENDROOT
BRANCH   1   2
ATOM      2  N   UNL     1       7.134   5.261  17.900  0.00  0.00    +0.000 NA
ATOM      3  C   UNL     1       7.425   4.428  16.728  0.00  0.00    +0.000 C 
ATOM      4  C   UNL     1       6.211   4.120  15.822  0.00  0.00    +0.000 C 
ATOM      5  O   UNL     1       4.873   4.270  16.323  0.00  0.00    +0.000 OA
ATOM      6  C   UNL     1       4.637   4.552  17.714  0.00  0.00    +0.000 C 
ATOM      7  C   UNL     1       3.962   5.961  17.864  0.00  0.00    +0.000 C 
ATOM      8  C   UNL     1       2.495   5.849  18.231  0.00  0.00    +0.000 C 
ATOM      9  C   UNL     1       2.321   4.393  18.440  0.00  0.00    +0.000 A 
ATOM     10  C   UNL     1       1.100   3.813  18.767  0.00  0.00    +0.000 A 
ATOM     11  C   UNL     1       1.001   2.428  18.723  0.00  0.00    +0.000 A 
ATOM     12  C   UNL     1       2.121   1.666  18.373  0.00  0.00    +0.000 A 
ATOM     13  C   UNL     1       3.365   2.271  18.094  0.00  0.00    +0.000 A 
ATOM     14  C   UNL     1       3.477   3.658  18.143  0.00  0.00    +0.000 A 
ATOM     15  C   UNL     1       5.962   4.553  18.552  0.00  0.00    +0.000 C 
ENDBRANCH   1   2
BRANCH   1  19
ATOM     16  C   UNL     1       8.323   9.831  18.042  0.00  0.00    +0.000 A 
ATOM     17  N   UNL     1       8.986   9.136  18.981  0.00  0.00    +0.000 NA
ATOM     18  O   UNL     1       8.540   7.815  18.797  0.00  0.00    +0.000 OA
ATOM     19  C   UNL     1       7.700   7.837  17.722  0.00  0.00    +0.000 A 
ATOM     20  N   UNL     1       7.562   9.043  17.202  0.00  0.00    +0.000 NA
BRANCH  16  21
ATOM     21  C   UNL     1       8.519  11.289  17.800  0.00  0.00    +0.000 C 
BRANCH  21  27
ATOM     22  F   UNL     1      10.607  13.745  21.501  0.00  0.00    +0.000 F 
ATOM     23  C   UNL     1      10.747  13.045  20.368  0.00  0.00    +0.000 A 
ATOM     24  C   UNL     1      12.015  12.882  19.822  0.00  0.00    +0.000 A 
ATOM     25  C   UNL     1      12.158  12.164  18.636  0.00  0.00    +0.000 A 
ATOM     26  C   UNL     1      11.030  11.619  18.006  0.00  0.00    +0.000 A 
ATOM     27  C   UNL     1       9.742  11.780  18.550  0.00  0.00    +0.000 A 
ATOM     28  C   UNL     1       9.619  12.502  19.749  0.00  0.00    +0.000 A 
ENDBRANCH  21  27
ENDBRANCH  16  21
ENDBRANCH   1  19
TORSDOF 4
ENDMDL
MODEL 3
REMARK VINA RESULT:      -9.0      1.766      2.122
REMARK  Name = 
REMARK  4 active torsions:
REMARK  status: ('A' for Active; 'I' for Inactive)
REMARK    1  A    between atoms: C_6  and  C_7
REMARK    2  A    between atoms: C_7  and  C_8
REMARK    3  A    between atoms: C_11  and  C_12
REMARK    4  A    between atoms: C_12  and  N_13
REMARK                            x       y       z     vdW  Elec       q    Type
REMARK                         _______ _______ _______ _____ _____    ______ ____
ROOT
ATOM      1  C   UNL     1       6.912   6.639  17.058  0.00  0.00    +0.000 C 
ENDROOT
BRANCH   1   2
ATOM      2  N   UNL     1       7.261   5.283  17.578  0.00  0.00    +0.000 NA
ATOM      3  C   UNL     1       7.484   4.338  16.479  0.00  0.00    +0.000 C 
ATOM      4  C   UNL     1       6.222   3.962  15.668  0.00  0.00    +0.000 C 
ATOM      5  O   UNL     1       4.914   4.180  16.220  0.00  0.00    +0.000 OA
ATOM      6  C   UNL     1       4.751   4.596  17.587  0.00  0.00    +0.000 C 
ATOM      7  C   UNL     1       4.099   6.022  17.634  0.00  0.00    +0.000 C 
ATOM      8  C   UNL     1       2.651   5.967  18.083  0.00  0.00    +0.000 C 
ATOM      9  C   UNL     1       2.474   4.540  18.439  0.00  0.00    +0.000 A 
ATOM     10  C   UNL     1       1.266   4.012  18.882  0.00  0.00    +0.000 A 
ATOM     11  C   UNL     1       1.151   2.631  18.976  0.00  0.00    +0.000 A 
ATOM     12  C   UNL     1       2.245   1.823  18.645  0.00  0.00    +0.000 A 
ATOM     13  C   UNL     1       3.479   2.380  18.247  0.00  0.00    +0.000 A 
ATOM     14  C   UNL     1       3.606   3.764  18.157  0.00  0.00    +0.000 A 
ATOM     15  C   UNL     1       6.118   4.657  18.353  0.00  0.00    +0.000 C 
ENDBRANCH   1   2
BRANCH   1  19
ATOM     16  C   UNL     1       8.644   9.422  18.465  0.00  0.00    +0.000 A 
ATOM     17  N   UNL     1       7.758  10.105  17.722  0.00  0.00    +0.000 NA
ATOM     18  O   UNL     1       6.929   9.104  17.184  0.00  0.00    +0.000 OA
ATOM     19  C   UNL     1       7.362   7.921  17.708  0.00  0.00    +0.000 A 
ATOM     20  N   UNL     1       8.388   8.067  18.527  0.00  0.00    +0.000 NA
BRANCH  16  21
ATOM     21  C   UNL     1       9.701  10.068  19.295  0.00  0.00    +0.000 C 
BRANCH  21  27
ATOM     22  F   UNL     1      11.848  13.234  16.220  0.00  0.00    +0.000 F 
ATOM     23  C   UNL     1      11.073  13.026  17.293  0.00  0.00    +0.000 A 
ATOM     24  C   UNL     1      10.613  14.117  18.021  0.00  0.00    +0.000 A 
ATOM     25  C   UNL     1       9.818  13.899  19.145  0.00  0.00    +0.000 A 
ATOM     26  C   UNL     1       9.494  12.590  19.531  0.00  0.00    +0.000 A 
ATOM     27  C   UNL     1       9.958  11.479  18.801  0.00  0.00    +0.000 A 
ATOM     28  C   UNL     1      10.752  11.720  17.669  0.00  0.00    +0.000 A 
ENDBRANCH  21  27
ENDBRANCH  16  21
ENDBRANCH   1  19
TORSDOF 4
ENDMDL
MODEL 4
REMARK VINA RESULT:      -8.9      1.187      1.786
REMARK  Name = 
REMARK  4 active torsions:
REMARK  status: ('A' for Active; 'I' for Inactive)
REMARK    1  A    between atoms: C_6  and  C_7
REMARK    2  A    between atoms: C_7  and  C_8
REMARK    3  A    between atoms: C_11  and  C_12
REMARK    4  A    between atoms: C_12  and  N_13
REMARK                            x       y       z     vdW  Elec       q    Type
REMARK                         _______ _______ _______ _____ _____    ______ ____
ROOT
ATOM      1  C   UNL     1       6.843   5.698  17.131  0.00  0.00    +0.000 C 
ENDROOT
BRANCH   1   2
ATOM      2  N   UNL     1       5.719   5.725  16.147  0.00  0.00    +0.000 NA
ATOM      3  C   UNL     1       4.962   6.977  16.247  0.00  0.00    +0.000 C 
ATOM      4  C   UNL     1       4.142   7.149  17.547  0.00  0.00    +0.000 C 
ATOM      5  O   UNL     1       3.819   6.007  18.358  0.00  0.00    +0.000 OA
ATOM      6  C   UNL     1       4.108   4.675  17.900  0.00  0.00    +0.000 C 
ATOM      7  C   UNL     1       5.165   4.005  18.846  0.00  0.00    +0.000 C 
ATOM      8  C   UNL     1       4.539   2.945  19.733  0.00  0.00    +0.000 C 
ATOM      9  C   UNL     1       3.148   2.876  19.227  0.00  0.00    +0.000 A 
ATOM     10  C   UNL     1       2.180   2.043  19.777  0.00  0.00    +0.000 A 
ATOM     11  C   UNL     1       0.862   2.216  19.375  0.00  0.00    +0.000 A 
ATOM     12  C   UNL     1       0.553   3.200  18.428  0.00  0.00    +0.000 A 
ATOM     13  C   UNL     1       1.556   4.001  17.844  0.00  0.00    +0.000 A 
ATOM     14  C   UNL     1       2.882   3.830  18.235  0.00  0.00    +0.000 A 
ATOM     15  C   UNL     1       4.679   4.661  16.440  0.00  0.00    +0.000 C 
ENDBRANCH   1   2
BRANCH   1  19
ATOM     16  C   UNL     1       8.125   8.928  17.937  0.00  0.00    +0.000 A 
ATOM     17  N   UNL     1       8.663   8.249  18.963  0.00  0.00    +0.000 NA
ATOM     18  O   UNL     1       8.311   6.912  18.701  0.00  0.00    +0.000 OA
ATOM     19  C   UNL     1       7.650   6.913  17.508  0.00  0.00    +0.000 A 
ATOM     20  N   UNL     1       7.541   8.120  16.982  0.00  0.00    +0.000 NA
BRANCH  16  21
ATOM     21  C   UNL     1       8.289  10.396  17.740  0.00  0.00    +0.000 C 
BRANCH  21  27
ATOM     22  F   UNL     1      10.147  12.218  21.902  0.00  0.00    +0.000 F 
ATOM     23  C   UNL     1      10.337  11.850  20.628  0.00  0.00    +0.000 A 
ATOM     24  C   UNL     1      11.578  12.056  20.037  0.00  0.00    +0.000 A 
ATOM     25  C   UNL     1      11.769  11.685  18.708  0.00  0.00    +0.000 A 
ATOM     26  C   UNL     1      10.715  11.114  17.981  0.00  0.00    +0.000 A 
ATOM     27  C   UNL     1       9.453  10.904  18.569  0.00  0.00    +0.000 A 
ATOM     28  C   UNL     1       9.282  11.279  19.911  0.00  0.00    +0.000 A 
ENDBRANCH  21  27
ENDBRANCH  16  21
ENDBRANCH   1  19
TORSDOF 4
ENDMDL
MODEL 5
REMARK VINA RESULT:      -8.9      5.829      7.826
REMARK  Name = 
REMARK  4 active torsions:
REMARK  status: ('A' for Active; 'I' for Inactive)
REMARK    1  A    between atoms: C_6  and  C_7
REMARK    2  A    between atoms: C_7  and  C_8
REMARK    3  A    between atoms: C_11  and  C_12
REMARK    4  A    between atoms: C_12  and  N_13
REMARK                            x       y       z     vdW  Elec       q    Type
REMARK                         _______ _______ _______ _____ _____    ______ ____
ROOT
ATOM      1  C   UNL     1       4.422   3.811  17.739  0.00  0.00    +0.000 C 
ENDROOT
BRANCH   1   2
ATOM      2  N   UNL     1       4.551   3.965  19.220  0.00  0.00    +0.000 NA
ATOM      3  C   UNL     1       3.590   3.110  19.924  0.00  0.00    +0.000 C 
ATOM      4  C   UNL     1       2.107   3.520  19.771  0.00  0.00    +0.000 C 
ATOM      5  O   UNL     1       1.762   4.849  19.349  0.00  0.00    +0.000 OA
ATOM      6  C   UNL     1       2.772   5.864  19.216  0.00  0.00    +0.000 C 
ATOM      7  C   UNL     1       2.882   6.312  17.717  0.00  0.00    +0.000 C 
ATOM      8  C   UNL     1       2.285   7.689  17.492  0.00  0.00    +0.000 C 
ATOM      9  C   UNL     1       1.948   8.126  18.866  0.00  0.00    +0.000 A 
ATOM     10  C   UNL     1       1.336   9.343  19.147  0.00  0.00    +0.000 A 
ATOM     11  C   UNL     1       0.867   9.557  20.437  0.00  0.00    +0.000 A 
ATOM     12  C   UNL     1       1.037   8.563  21.408  0.00  0.00    +0.000 A 
ATOM     13  C   UNL     1       1.706   7.356  21.116  0.00  0.00    +0.000 A 
ATOM     14  C   UNL     1       2.187   7.135  19.828  0.00  0.00    +0.000 A 
ATOM     15  C   UNL     1       4.182   5.362  19.682  0.00  0.00    +0.000 C 
ENDBRANCH   1   2
BRANCH   1  19
ATOM     16  C   UNL     1       6.670   4.551  15.070  0.00  0.00    +0.000 A 
ATOM     17  N   UNL     1       7.466   4.904  16.092  0.00  0.00    +0.000 NA
ATOM     18  O   UNL     1       6.721   4.557  17.234  0.00  0.00    +0.000 OA
ATOM     19  C   UNL     1       5.575   3.970  16.783  0.00  0.00    +0.000 A 
ATOM     20  N   UNL     1       5.512   3.911  15.465  0.00  0.00    +0.000 NA
BRANCH  16  21
ATOM     21  C   UNL     1       7.062   4.668  13.637  0.00  0.00    +0.000 C 
BRANCH  21  27
ATOM     22  F   UNL     1       6.496   0.677  10.837  0.00  0.00    +0.000 F 
ATOM     23  C   UNL     1       5.969   1.789  11.365  0.00  0.00    +0.000 A 
ATOM     24  C   UNL     1       4.672   2.156  11.025  0.00  0.00    +0.000 A 
ATOM     25  C   UNL     1       4.129   3.320  11.565  0.00  0.00    +0.000 A 
ATOM     26  C   UNL     1       4.892   4.109  12.439  0.00  0.00    +0.000 A 
ATOM     27  C   UNL     1       6.207   3.748  12.788  0.00  0.00    +0.000 A 
ATOM     28  C   UNL     1       6.734   2.568  12.237  0.00  0.00    +0.000 A 
ENDBRANCH  21  27
ENDBRANCH  16  21
ENDBRANCH   1  19
TORSDOF 4
ENDMDL
MODEL 6
REMARK VINA RESULT:      -8.9      1.533      1.746
REMARK  Name = 
REMARK  4 active torsions:
REMARK  status: ('A' for Active; 'I' for Inactive)
REMARK    1  A    between atoms: C_6  and  C_7
REMARK    2  A    between atoms: C_7  and  C_8
REMARK    3  A    between atoms: C_11  and  C_12
REMARK    4  A    between atoms: C_12  and  N_13
REMARK                            x       y       z     vdW  Elec       q    Type
REMARK                         _______ _______ _______ _____ _____    ______ ____
ROOT
ATOM      1  C   UNL     1       6.973   6.642  16.987  0.00  0.00    +0.000 C 
ENDROOT
BRANCH   1   2
ATOM      2  N   UNL     1       7.300   5.280  17.507  0.00  0.00    +0.000 NA
ATOM      3  C   UNL     1       7.482   4.326  16.409  0.00  0.00    +0.000 C 
ATOM      4  C   UNL     1       6.199   3.975  15.622  0.00  0.00    +0.000 C 
ATOM      5  O   UNL     1       4.905   4.224  16.194  0.00  0.00    +0.000 OA
ATOM      6  C   UNL     1       4.776   4.651  17.561  0.00  0.00    +0.000 C 
ATOM      7  C   UNL     1       4.156   6.091  17.613  0.00  0.00    +0.000 C 
ATOM      8  C   UNL     1       2.715   6.070  18.086  0.00  0.00    +0.000 C 
ATOM      9  C   UNL     1       2.512   4.650  18.452  0.00  0.00    +0.000 A 
ATOM     10  C   UNL     1       1.300   4.151  18.917  0.00  0.00    +0.000 A 
ATOM     11  C   UNL     1       1.156   2.773  19.020  0.00  0.00    +0.000 A 
ATOM     12  C   UNL     1       2.226   1.939  18.675  0.00  0.00    +0.000 A 
ATOM     13  C   UNL     1       3.465   2.467  18.254  0.00  0.00    +0.000 A 
ATOM     14  C   UNL     1       3.622   3.847  18.155  0.00  0.00    +0.000 A 
ATOM     15  C   UNL     1       6.156   4.684  18.304  0.00  0.00    +0.000 C 
ENDBRANCH   1   2
BRANCH   1  19
ATOM     16  C   UNL     1       8.625   9.425  18.485  0.00  0.00    +0.000 A 
ATOM     17  N   UNL     1       7.736  10.108  17.744  0.00  0.00    +0.000 NA
ATOM     18  O   UNL     1       6.936   9.103  17.170  0.00  0.00    +0.000 OA
ATOM     19  C   UNL     1       7.385   7.917  17.673  0.00  0.00    +0.000 A 
ATOM     20  N   UNL     1       8.396   8.065  18.511  0.00  0.00    +0.000 NA
BRANCH  16  21
ATOM     21  C   UNL     1       9.655  10.073  19.346  0.00  0.00    +0.000 C 
BRANCH  21  27
ATOM     22  F   UNL     1       8.881  14.915  19.124  0.00  0.00    +0.000 F 
ATOM     23  C   UNL     1       9.549  13.841  18.683  0.00  0.00    +0.000 A 
ATOM     24  C   UNL     1      10.458  13.985  17.642  0.00  0.00    +0.000 A 
ATOM     25  C   UNL     1      11.142  12.864  17.175  0.00  0.00    +0.000 A 
ATOM     26  C   UNL     1      10.908  11.609  17.754  0.00  0.00    +0.000 A 
ATOM     27  C   UNL     1       9.988  11.452  18.808  0.00  0.00    +0.000 A 
ATOM     28  C   UNL     1       9.312  12.594  19.268  0.00  0.00    +0.000 A 
ENDBRANCH  21  27
ENDBRANCH  16  21
ENDBRANCH   1  19
TORSDOF 4
ENDMDL
MODEL 7
REMARK VINA RESULT:      -8.9      5.718      7.630
REMARK  Name = 
REMARK  4 active torsions:
REMARK  status: ('A' for Active; 'I' for Inactive)
REMARK    1  A    between atoms: C_6  and  C_7
REMARK    2  A    between atoms: C_7  and  C_8
REMARK    3  A    between atoms: C_11  and  C_12
REMARK    4  A    between atoms: C_12  and  N_13
REMARK                            x       y       z     vdW  Elec       q    Type
REMARK                         _______ _______ _______ _____ _____    ______ ____
ROOT
ATOM      1  C   UNL     1       4.636   3.878  17.203  0.00  0.00    +0.000 C 
ENDROOT
BRANCH   1   2
ATOM      2  N   UNL     1       4.698   3.832  18.695  0.00  0.00    +0.000 NA
ATOM      3  C   UNL     1       3.703   2.900  19.235  0.00  0.00    +0.000 C 
ATOM      4  C   UNL     1       2.230   3.341  19.073  0.00  0.00    +0.000 C 
ATOM      5  O   UNL     1       1.909   4.717  18.817  0.00  0.00    +0.000 OA
ATOM      6  C   UNL     1       2.927   5.732  18.866  0.00  0.00    +0.000 C 
ATOM      7  C   UNL     1       3.106   6.374  17.445  0.00  0.00    +0.000 C 
ATOM      8  C   UNL     1       2.526   7.774  17.380  0.00  0.00    +0.000 C 
ATOM      9  C   UNL     1       2.129   8.028  18.784  0.00  0.00    +0.000 A 
ATOM     10  C   UNL     1       1.509   9.202  19.197  0.00  0.00    +0.000 A 
ATOM     11  C   UNL     1       0.982   9.247  20.482  0.00  0.00    +0.000 A 
ATOM     12  C   UNL     1       1.105   8.131  21.318  0.00  0.00    +0.000 A 
ATOM     13  C   UNL     1       1.782   6.967  20.898  0.00  0.00    +0.000 A 
ATOM     14  C   UNL     1       2.320   6.915  19.614  0.00  0.00    +0.000 A 
ATOM     15  C   UNL     1       4.313   5.158  19.322  0.00  0.00    +0.000 C 
ENDBRANCH   1   2
BRANCH   1  19
ATOM     16  C   UNL     1       6.892   4.869  14.625  0.00  0.00    +0.000 A 
ATOM     17  N   UNL     1       7.340   5.685  15.593  0.00  0.00    +0.000 NA
ATOM     18  O   UNL     1       6.585   5.313  16.721  0.00  0.00    +0.000 OA
ATOM     19  C   UNL     1       5.802   4.265  16.332  0.00  0.00    +0.000 A 
ATOM     20  N   UNL     1       5.980   3.933  15.067  0.00  0.00    +0.000 NA
BRANCH  16  21
ATOM     21  C   UNL     1       7.448   4.844  13.242  0.00  0.00    +0.000 C 
BRANCH  21  27
ATOM     22  F   UNL     1       3.340   2.951  11.337  0.00  0.00    +0.000 F 
ATOM     23  C   UNL     1       4.664   2.863  11.519  0.00  0.00    +0.000 A 
ATOM     24  C   UNL     1       5.343   1.746  11.046  0.00  0.00    +0.000 A 
ATOM     25  C   UNL     1       6.718   1.650  11.248  0.00  0.00    +0.000 A 
ATOM     26  C   UNL     1       7.401   2.671  11.925  0.00  0.00    +0.000 A 
ATOM     27  C   UNL     1       6.722   3.805  12.409  0.00  0.00    +0.000 A 
ATOM     28  C   UNL     1       5.337   3.886  12.191  0.00  0.00    +0.000 A 
ENDBRANCH  21  27
ENDBRANCH  16  21
ENDBRANCH   1  19
TORSDOF 4
ENDMDL
MODEL 8
REMARK VINA RESULT:      -8.7      2.991      9.611
REMARK  Name = 
REMARK  4 active torsions:
REMARK  status: ('A' for Active; 'I' for Inactive)
REMARK    1  A    between atoms: C_6  and  C_7
REMARK    2  A    between atoms: C_7  and  C_8
REMARK    3  A    between atoms: C_11  and  C_12
REMARK    4  A    between atoms: C_12  and  N_13
REMARK                            x       y       z     vdW  Elec       q    Type
REMARK                         _______ _______ _______ _____ _____    ______ ____
ROOT
ATOM      1  C   UNL     1       8.958   9.937  18.887  0.00  0.00    +0.000 C 
ENDROOT
BRANCH   1   2
ATOM      2  N   UNL     1       9.281  11.194  18.148  0.00  0.00    +0.000 NA
ATOM      3  C   UNL     1      10.715  11.278  17.853  0.00  0.00    +0.000 C 
ATOM      4  C   UNL     1      11.630  11.485  19.082  0.00  0.00    +0.000 C 
ATOM      5  O   UNL     1      11.087  11.980  20.316  0.00  0.00    +0.000 OA
ATOM      6  C   UNL     1       9.727  12.443  20.388  0.00  0.00    +0.000 C 
ATOM      7  C   UNL     1       8.903  11.525  21.358  0.00  0.00    +0.000 C 
ATOM      8  C   UNL     1       8.601  12.219  22.673  0.00  0.00    +0.000 C 
ATOM      9  C   UNL     1       9.114  13.589  22.444  0.00  0.00    +0.000 A 
ATOM     10  C   UNL     1       9.077  14.586  23.413  0.00  0.00    +0.000 A 
ATOM     11  C   UNL     1       9.779  15.760  23.171  0.00  0.00    +0.000 A 
ATOM     12  C   UNL     1      10.477  15.911  21.968  0.00  0.00    +0.000 A 
ATOM     13  C   UNL     1      10.460  14.909  20.975  0.00  0.00    +0.000 A 
ATOM     14  C   UNL     1       9.754  13.732  21.205  0.00  0.00    +0.000 A 
ATOM     15  C   UNL     1       9.022  12.431  18.987  0.00  0.00    +0.000 C 
ENDBRANCH   1   2
BRANCH   1  19
ATOM     16  C   UNL     1       7.503   6.805  17.996  0.00  0.00    +0.000 A 
ATOM     17  N   UNL     1       6.890   7.567  17.076  0.00  0.00    +0.000 NA
ATOM     18  O   UNL     1       7.467   8.838  17.255  0.00  0.00    +0.000 OA
ATOM     19  C   UNL     1       8.417   8.697  18.225  0.00  0.00    +0.000 A 
ATOM     20  N   UNL     1       8.501   7.463  18.686  0.00  0.00    +0.000 NA
BRANCH  16  21
ATOM     21  C   UNL     1       7.265   5.341  18.149  0.00  0.00    +0.000 C 
BRANCH  21  27
ATOM     22  F   UNL     1       2.916   5.184  20.418  0.00  0.00    +0.000 F 
ATOM     23  C   UNL     1       3.644   4.943  19.320  0.00  0.00    +0.000 A 
ATOM     24  C   UNL     1       3.048   4.312  18.234  0.00  0.00    +0.000 A 
ATOM     25  C   UNL     1       3.810   4.050  17.097  0.00  0.00    +0.000 A 
ATOM     26  C   UNL     1       5.163   4.418  17.059  0.00  0.00    +0.000 A 
ATOM     27  C   UNL     1       5.776   5.055  18.155  0.00  0.00    +0.000 A 
ATOM     28  C   UNL     1       4.990   5.316  19.289  0.00  0.00    +0.000 A 
ENDBRANCH  21  27
ENDBRANCH  16  21
ENDBRANCH   1  19
TORSDOF 4
ENDMDL
MODEL 9
REMARK VINA RESULT:      -8.6      3.294      9.672
REMARK  Name = 
REMARK  4 active torsions:
REMARK  status: ('A' for Active; 'I' for Inactive)
REMARK    1  A    between atoms: C_6  and  C_7
REMARK    2  A    between atoms: C_7  and  C_8
REMARK    3  A    between atoms: C_11  and  C_12
REMARK    4  A    between atoms: C_12  and  N_13
REMARK                            x       y       z     vdW  Elec       q    Type
REMARK                         _______ _______ _______ _____ _____    ______ ____
ROOT
ATOM      1  C   UNL     1       8.913   9.887  18.908  0.00  0.00    +0.000 C 
ENDROOT
BRANCH   1   2
ATOM      2  N   UNL     1       9.228  11.149  18.175  0.00  0.00    +0.000 NA
ATOM      3  C   UNL     1      10.660  11.240  17.874  0.00  0.00    +0.000 C 
ATOM      4  C   UNL     1      11.579  11.444  19.101  0.00  0.00    +0.000 C 
ATOM      5  O   UNL     1      11.039  11.931  20.339  0.00  0.00    +0.000 OA
ATOM      6  C   UNL     1       9.677  12.388  20.419  0.00  0.00    +0.000 C 
ATOM      7  C   UNL     1       8.862  11.461  21.387  0.00  0.00    +0.000 C 
ATOM      8  C   UNL     1       8.562  12.147  22.707  0.00  0.00    +0.000 C 
ATOM      9  C   UNL     1       9.068  13.521  22.483  0.00  0.00    +0.000 A 
ATOM     10  C   UNL     1       9.031  14.512  23.458  0.00  0.00    +0.000 A 
ATOM     11  C   UNL     1       9.727  15.691  23.219  0.00  0.00    +0.000 A 
ATOM     12  C   UNL     1      10.420  15.851  22.014  0.00  0.00    +0.000 A 
ATOM     13  C   UNL     1      10.403  14.854  21.016  0.00  0.00    +0.000 A 
ATOM     14  C   UNL     1       9.702  13.673  21.242  0.00  0.00    +0.000 A 
ATOM     15  C   UNL     1       8.968  12.380  19.021  0.00  0.00    +0.000 C 
ENDBRANCH   1   2
BRANCH   1  19
ATOM     16  C   UNL     1       7.531   6.732  17.978  0.00  0.00    +0.000 A 
ATOM     17  N   UNL     1       6.996   7.472  16.993  0.00  0.00    +0.000 NA
ATOM     18  O   UNL     1       7.558   8.747  17.188  0.00  0.00    +0.000 OA
ATOM     19  C   UNL     1       8.426   8.631  18.234  0.00  0.00    +0.000 A 
ATOM     20  N   UNL     1       8.472   7.408  18.730  0.00  0.00    +0.000 NA
BRANCH  16  21
ATOM     21  C   UNL     1       7.281   5.272  18.146  0.00  0.00    +0.000 C 
BRANCH  21  27
ATOM     22  F   UNL     1       3.004   3.510  16.506  0.00  0.00    +0.000 F 
ATOM     23  C   UNL     1       3.681   4.176  17.450  0.00  0.00    +0.000 A 
ATOM     24  C   UNL     1       2.988   4.738  18.516  0.00  0.00    +0.000 A 
ATOM     25  C   UNL     1       3.692   5.443  19.490  0.00  0.00    +0.000 A 
ATOM     26  C   UNL     1       5.084   5.580  19.387  0.00  0.00    +0.000 A 
ATOM     27  C   UNL     1       5.795   5.017  18.310  0.00  0.00    +0.000 A 
ATOM     28  C   UNL     1       5.068   4.306  17.341  0.00  0.00    +0.000 A 
ENDBRANCH  21  27
ENDBRANCH  16  21
ENDBRANCH   1  19
TORSDOF 4
ENDMDL
