MODEL 1
REMARK VINA RESULT:      -8.3      0.000      0.000
REMARK  Name = 
REMARK  4 active torsions:
REMARK  status: ('A' for Active; 'I' for Inactive)
REMARK    1  A    between atoms: C_2  and  C_17
REMARK    2  A    between atoms: N_3  and  C_4
REMARK    3  A    between atoms: C_4  and  C_5
REMARK    4  A    between atoms: N_13  and  C_14
REMARK                            x       y       z     vdW  Elec       q    Type
REMARK                         _______ _______ _______ _____ _____    ______ ____
ROOT
ATOM      1  O   UNL     1       2.426  10.691  17.924  0.00  0.00    +0.000 OA
ATOM      2  C   UNL     1       1.620   9.887  18.374  0.00  0.00    +0.000 C 
ATOM      3  N   UNL     1       1.803   8.525  18.340  0.00  0.00    +0.000 N 
ATOM      4  H   UNL     1       1.166   7.904  18.841  0.00  0.00    +0.000 HD
ENDROOT
BRANCH   2   5
ATOM      5  C   UNL     1       0.410  10.353  19.124  0.00  0.00    +0.000 A 
ATOM      6  C   UNL     1      -0.521  11.115  18.433  0.00  0.00    +0.000 A 
ATOM      7  N   UNL     1      -1.474  11.872  19.032  0.00  0.00    +0.000 NA
ATOM      8  C   UNL     1      -1.533  11.804  20.382  0.00  0.00    +0.000 A 
ATOM      9  C   UNL     1      -0.778  10.929  21.161  0.00  0.00    +0.000 A 
ATOM     10  C   UNL     1      -1.003  10.789  22.541  0.00  0.00    +0.000 A 
ATOM     11  C   UNL     1      -0.255   9.896  23.292  0.00  0.00    +0.000 A 
ATOM     12  C   UNL     1       0.737   9.130  22.682  0.00  0.00    +0.000 A 
ATOM     13  C   UNL     1       0.957   9.253  21.306  0.00  0.00    +0.000 A 
ATOM     14  C   UNL     1       0.226  10.168  20.518  0.00  0.00    +0.000 A 
ENDBRANCH   2   5
BRANCH   3  15
ATOM     15  C   UNL     1       2.983   7.877  17.795  0.00  0.00    +0.000 C 
BRANCH  15  16
ATOM     16  C   UNL     1       2.885   6.391  18.022  0.00  0.00    +0.000 A 
ATOM     17  N   UNL     1       1.887   5.773  18.637  0.00  0.00    +0.000 NA
ATOM     18  C   UNL     1       2.188   4.431  18.589  0.00  0.00    +0.000 A 
ATOM     19  C   UNL     1       1.475   3.346  19.129  0.00  0.00    +0.000 A 
ATOM     20  C   UNL     1       1.984   2.049  18.988  0.00  0.00    +0.000 A 
ATOM     21  C   UNL     1       3.165   1.829  18.287  0.00  0.00    +0.000 A 
ATOM     22  C   UNL     1       3.869   2.894  17.712  0.00  0.00    +0.000 A 
ATOM     23  C   UNL     1       3.382   4.200  17.903  0.00  0.00    +0.000 A 
ATOM     24  N   UNL     1       3.829   5.469  17.593  0.00  0.00    +0.000 N 
BRANCH  24  25
ATOM     25  C   UNL     1       5.090   5.838  16.964  0.00  0.00    +0.000 C 
ATOM     26  C   UNL     1       5.127   6.450  15.576  0.00  0.00    +0.000 C 
ATOM     27  C   UNL     1       5.749   5.114  15.805  0.00  0.00    +0.000 C 
ENDBRANCH  24  25
ENDBRANCH  15  16
ENDBRANCH   3  15
TORSDOF 4
ENDMDL
MODEL 2
REMARK VINA RESULT:      -8.3      1.494      7.446
REMARK  Name = 
REMARK  4 active torsions:
REMARK  status: ('A' for Active; 'I' for Inactive)
REMARK    1  A    between atoms: C_2  and  C_17
REMARK    2  A    between atoms: N_3  and  C_4
REMARK    3  A    between atoms: C_4  and  C_5
REMARK    4  A    between atoms: N_13  and  C_14
REMARK                            x       y       z     vdW  Elec       q    Type
REMARK                         _______ _______ _______ _____ _____    ______ ____
ROOT
ATOM      1  O   UNL     1       4.478   7.325  17.494  0.00  0.00    +0.000 OA
ATOM      2  C   UNL     1       3.553   6.657  17.937  0.00  0.00    +0.000 C 
ATOM      3  N   UNL     1       2.319   7.178  18.250  0.00  0.00    +0.000 N 
ATOM      4  H   UNL     1       1.543   6.562  18.493  0.00  0.00    +0.000 HD
ENDROOT
BRANCH   2   5
ATOM      5  C   UNL     1       3.668   5.168  18.051  0.00  0.00    +0.000 A 
ATOM      6  C   UNL     1       4.513   4.519  17.165  0.00  0.00    +0.000 A 
ATOM      7  N   UNL     1       4.476   3.184  16.923  0.00  0.00    +0.000 NA
ATOM      8  C   UNL     1       3.595   2.466  17.657  0.00  0.00    +0.000 A 
ATOM      9  C   UNL     1       2.836   2.984  18.706  0.00  0.00    +0.000 A 
ATOM     10  C   UNL     1       2.064   2.155  19.536  0.00  0.00    +0.000 A 
ATOM     11  C   UNL     1       1.335   2.688  20.588  0.00  0.00    +0.000 A 
ATOM     12  C   UNL     1       1.358   4.061  20.827  0.00  0.00    +0.000 A 
ATOM     13  C   UNL     1       2.136   4.892  20.013  0.00  0.00    +0.000 A 
ATOM     14  C   UNL     1       2.873   4.381  18.923  0.00  0.00    +0.000 A 
ENDBRANCH   2   5
BRANCH   3  15
ATOM     15  C   UNL     1       1.956   8.572  18.066  0.00  0.00    +0.000 C 
BRANCH  15  16
ATOM     16  C   UNL     1       1.237   9.066  19.295  0.00  0.00    +0.000 A 
ATOM     17  N   UNL     1       1.474   8.665  20.536  0.00  0.00    +0.000 NA
ATOM     18  C   UNL     1       0.624   9.392  21.336  0.00  0.00    +0.000 A 
ATOM     19  C   UNL     1       0.448   9.324  22.730  0.00  0.00    +0.000 A 
ATOM     20  C   UNL     1      -0.506  10.144  23.344  0.00  0.00    +0.000 A 
ATOM     21  C   UNL     1      -1.247  11.048  22.590  0.00  0.00    +0.000 A 
ATOM     22  C   UNL     1      -1.060  11.155  21.207  0.00  0.00    +0.000 A 
ATOM     23  C   UNL     1      -0.139  10.290  20.587  0.00  0.00    +0.000 A 
ATOM     24  N   UNL     1       0.237  10.029  19.285  0.00  0.00    +0.000 N 
BRANCH  24  25
ATOM     25  C   UNL     1      -0.317  10.603  18.066  0.00  0.00    +0.000 C 
ATOM     26  C   UNL     1      -1.575  11.449  18.097  0.00  0.00    +0.000 C 
ATOM     27  C   UNL     1      -1.586  10.148  17.368  0.00  0.00    +0.000 C 
ENDBRANCH  24  25
ENDBRANCH  15  16
ENDBRANCH   3  15
TORSDOF 4
ENDMDL
MODEL 3
REMARK VINA RESULT:      -8.2      1.951      7.886
REMARK  Name = 
REMARK  4 active torsions:
REMARK  status: ('A' for Active; 'I' for Inactive)
REMARK    1  A    between atoms: C_2  and  C_17
REMARK    2  A    between atoms: N_3  and  C_4
REMARK    3  A    between atoms: C_4  and  C_5
REMARK    4  A    between atoms: N_13  and  C_14
REMARK                            x       y       z     vdW  Elec       q    Type
REMARK                         _______ _______ _______ _____ _____    ______ ____
ROOT
ATOM      1  O   UNL     1       1.814   7.387  20.861  0.00  0.00    +0.000 OA
ATOM      2  C   UNL     1       2.014   7.431  19.655  0.00  0.00    +0.000 C 
ATOM      3  N   UNL     1       1.770   8.541  18.881  0.00  0.00    +0.000 N 
ATOM      4  H   UNL     1       2.073   8.571  17.908  0.00  0.00    +0.000 HD
ENDROOT
BRANCH   2   5
ATOM      5  C   UNL     1       2.673   6.288  18.946  0.00  0.00    +0.000 A 
ATOM      6  C   UNL     1       3.739   6.579  18.107  0.00  0.00    +0.000 A 
ATOM      7  N   UNL     1       4.215   5.729  17.164  0.00  0.00    +0.000 NA
ATOM      8  C   UNL     1       3.635   4.507  17.111  0.00  0.00    +0.000 A 
ATOM      9  C   UNL     1       2.693   4.041  18.026  0.00  0.00    +0.000 A 
ATOM     10  C   UNL     1       2.252   2.708  18.016  0.00  0.00    +0.000 A 
ATOM     11  C   UNL     1       1.331   2.261  18.950  0.00  0.00    +0.000 A 
ATOM     12  C   UNL     1       0.827   3.138  19.909  0.00  0.00    +0.000 A 
ATOM     13  C   UNL     1       1.272   4.464  19.935  0.00  0.00    +0.000 A 
ATOM     14  C   UNL     1       2.194   4.954  18.985  0.00  0.00    +0.000 A 
ENDBRANCH   2   5
BRANCH   3  15
ATOM     15  C   UNL     1       1.275   9.803  19.405  0.00  0.00    +0.000 C 
BRANCH  15  16
ATOM     16  C   UNL     1      -0.041  10.132  18.749  0.00  0.00    +0.000 A 
ATOM     17  N   UNL     1      -0.476   9.623  17.605  0.00  0.00    +0.000 NA
ATOM     18  C   UNL     1      -1.724  10.167  17.402  0.00  0.00    +0.000 A 
ATOM     19  C   UNL     1      -2.601   9.985  16.317  0.00  0.00    +0.000 A 
ATOM     20  C   UNL     1      -3.824  10.667  16.299  0.00  0.00    +0.000 A 
ATOM     21  C   UNL     1      -4.188  11.487  17.362  0.00  0.00    +0.000 A 
ATOM     22  C   UNL     1      -3.343  11.651  18.466  0.00  0.00    +0.000 A 
ATOM     23  C   UNL     1      -2.092  11.007  18.454  0.00  0.00    +0.000 A 
ATOM     24  N   UNL     1      -0.983  11.004  19.276  0.00  0.00    +0.000 N 
BRANCH  24  25
ATOM     25  C   UNL     1      -0.765  11.795  20.480  0.00  0.00    +0.000 C 
ATOM     26  C   UNL     1      -0.813  11.161  21.857  0.00  0.00    +0.000 C 
ATOM     27  C   UNL     1      -1.830  12.188  21.487  0.00  0.00    +0.000 C 
ENDBRANCH  24  25
ENDBRANCH  15  16
ENDBRANCH   3  15
TORSDOF 4
ENDMDL
MODEL 4
REMARK VINA RESULT:      -8.2      1.858      3.835
REMARK  Name = 
REMARK  4 active torsions:
REMARK  status: ('A' for Active; 'I' for Inactive)
REMARK    1  A    between atoms: C_2  and  C_17
REMARK    2  A    between atoms: N_3  and  C_4
REMARK    3  A    between atoms: C_4  and  C_5
REMARK    4  A    between atoms: N_13  and  C_14
REMARK                            x       y       z     vdW  Elec       q    Type
REMARK                         _______ _______ _______ _____ _____    ______ ____
ROOT
ATOM      1  O   UNL     1      -0.410   7.947  21.570  0.00  0.00    +0.000 OA
ATOM      2  C   UNL     1       0.461   8.555  20.963  0.00  0.00    +0.000 C 
ATOM      3  N   UNL     1       1.584   7.958  20.440  0.00  0.00    +0.000 N 
ATOM      4  H   UNL     1       2.215   8.483  19.835  0.00  0.00    +0.000 HD
ENDROOT
BRANCH   2   5
ATOM      5  C   UNL     1       0.295  10.007  20.634  0.00  0.00    +0.000 A 
ATOM      6  C   UNL     1       0.851  10.932  21.505  0.00  0.00    +0.000 A 
ATOM      7  N   UNL     1       0.515  12.246  21.530  0.00  0.00    +0.000 NA
ATOM      8  C   UNL     1      -0.370  12.656  20.593  0.00  0.00    +0.000 A 
ATOM      9  C   UNL     1      -0.844  11.858  19.552  0.00  0.00    +0.000 A 
ATOM     10  C   UNL     1      -1.630  12.387  18.516  0.00  0.00    +0.000 A 
ATOM     11  C   UNL     1      -2.071  11.580  17.480  0.00  0.00    +0.000 A 
ATOM     12  C   UNL     1      -1.741  10.225  17.461  0.00  0.00    +0.000 A 
ATOM     13  C   UNL     1      -0.946   9.693  18.482  0.00  0.00    +0.000 A 
ATOM     14  C   UNL     1      -0.499  10.486  19.561  0.00  0.00    +0.000 A 
ENDBRANCH   2   5
BRANCH   3  15
ATOM     15  C   UNL     1       1.857   6.533  20.518  0.00  0.00    +0.000 C 
BRANCH  15  16
ATOM     16  C   UNL     1       2.694   6.122  19.334  0.00  0.00    +0.000 A 
ATOM     17  N   UNL     1       3.315   6.951  18.508  0.00  0.00    +0.000 NA
ATOM     18  C   UNL     1       3.981   6.155  17.605  0.00  0.00    +0.000 A 
ATOM     19  C   UNL     1       4.762   6.536  16.499  0.00  0.00    +0.000 A 
ATOM     20  C   UNL     1       5.330   5.548  15.685  0.00  0.00    +0.000 A 
ATOM     21  C   UNL     1       5.158   4.201  15.988  0.00  0.00    +0.000 A 
ATOM     22  C   UNL     1       4.414   3.805  17.106  0.00  0.00    +0.000 A 
ATOM     23  C   UNL     1       3.801   4.800  17.889  0.00  0.00    +0.000 A 
ATOM     24  N   UNL     1       2.938   4.806  18.967  0.00  0.00    +0.000 N 
BRANCH  24  25
ATOM     25  C   UNL     1       2.323   3.658  19.621  0.00  0.00    +0.000 C 
ATOM     26  C   UNL     1       1.990   2.397  18.846  0.00  0.00    +0.000 C 
ATOM     27  C   UNL     1       0.886   3.202  19.444  0.00  0.00    +0.000 C 
ENDBRANCH  24  25
ENDBRANCH  15  16
ENDBRANCH   3  15
TORSDOF 4
ENDMDL
MODEL 5
REMARK VINA RESULT:      -8.1      1.652      7.777
REMARK  Name = 
REMARK  4 active torsions:
REMARK  status: ('A' for Active; 'I' for Inactive)
REMARK    1  A    between atoms: C_2  and  C_17
REMARK    2  A    between atoms: N_3  and  C_4
REMARK    3  A    between atoms: C_4  and  C_5
REMARK    4  A    between atoms: N_13  and  C_14
REMARK                            x       y       z     vdW  Elec       q    Type
REMARK                         _______ _______ _______ _____ _____    ______ ____
ROOT
ATOM      1  O   UNL     1       3.952   7.352  17.111  0.00  0.00    +0.000 OA
ATOM      2  C   UNL     1       3.441   6.913  18.132  0.00  0.00    +0.000 C 
ATOM      3  N   UNL     1       2.395   7.523  18.784  0.00  0.00    +0.000 N 
ATOM      4  H   UNL     1       1.921   7.053  19.556  0.00  0.00    +0.000 HD
ENDROOT
BRANCH   2   5
ATOM      5  C   UNL     1       3.850   5.581  18.683  0.00  0.00    +0.000 A 
ATOM      6  C   UNL     1       5.163   5.436  19.104  0.00  0.00    +0.000 A 
ATOM      7  N   UNL     1       5.765   4.237  19.308  0.00  0.00    +0.000 NA
ATOM      8  C   UNL     1       4.987   3.141  19.147  0.00  0.00    +0.000 A 
ATOM      9  C   UNL     1       3.613   3.177  18.915  0.00  0.00    +0.000 A 
ATOM     10  C   UNL     1       2.834   2.008  18.921  0.00  0.00    +0.000 A 
ATOM     11  C   UNL     1       1.465   2.069  18.710  0.00  0.00    +0.000 A 
ATOM     12  C   UNL     1       0.849   3.298  18.483  0.00  0.00    +0.000 A 
ATOM     13  C   UNL     1       1.616   4.469  18.488  0.00  0.00    +0.000 A 
ATOM     14  C   UNL     1       3.013   4.436  18.680  0.00  0.00    +0.000 A 
ENDBRANCH   2   5
BRANCH   3  15
ATOM     15  C   UNL     1       1.752   8.742  18.325  0.00  0.00    +0.000 C 
BRANCH  15  16
ATOM     16  C   UNL     1       0.958   9.342  19.456  0.00  0.00    +0.000 A 
ATOM     17  N   UNL     1       1.119   9.060  20.741  0.00  0.00    +0.000 NA
ATOM     18  C   UNL     1       0.220   9.853  21.416  0.00  0.00    +0.000 A 
ATOM     19  C   UNL     1      -0.041   9.914  22.797  0.00  0.00    +0.000 A 
ATOM     20  C   UNL     1      -1.032  10.781  23.273  0.00  0.00    +0.000 A 
ATOM     21  C   UNL     1      -1.726  11.606  22.393  0.00  0.00    +0.000 A 
ATOM     22  C   UNL     1      -1.454  11.585  21.020  0.00  0.00    +0.000 A 
ATOM     23  C   UNL     1      -0.496  10.672  20.542  0.00  0.00    +0.000 A 
ATOM     24  N   UNL     1      -0.040  10.293  19.295  0.00  0.00    +0.000 N 
BRANCH  24  25
ATOM     25  C   UNL     1      -0.519  10.748  17.996  0.00  0.00    +0.000 C 
ATOM     26  C   UNL     1      -1.767  11.600  17.873  0.00  0.00    +0.000 C 
ATOM     27  C   UNL     1      -1.750  10.233  17.275  0.00  0.00    +0.000 C 
ENDBRANCH  24  25
ENDBRANCH  15  16
ENDBRANCH   3  15
TORSDOF 4
ENDMDL
MODEL 6
REMARK VINA RESULT:      -8.1      1.671      7.377
REMARK  Name = 
REMARK  4 active torsions:
REMARK  status: ('A' for Active; 'I' for Inactive)
REMARK    1  A    between atoms: C_2  and  C_17
REMARK    2  A    between atoms: N_3  and  C_4
REMARK    3  A    between atoms: C_4  and  C_5
REMARK    4  A    between atoms: N_13  and  C_14
REMARK                            x       y       z     vdW  Elec       q    Type
REMARK                         _______ _______ _______ _____ _____    ______ ____
ROOT
ATOM      1  O   UNL     1       4.380   7.375  17.126  0.00  0.00    +0.000 OA
ATOM      2  C   UNL     1       3.539   6.795  17.800  0.00  0.00    +0.000 C 
ATOM      3  N   UNL     1       2.435   7.414  18.338  0.00  0.00    +0.000 N 
ATOM      4  H   UNL     1       1.699   6.864  18.783  0.00  0.00    +0.000 HD
ENDROOT
BRANCH   2   5
ATOM      5  C   UNL     1       3.594   5.310  17.982  0.00  0.00    +0.000 A 
ATOM      6  C   UNL     1       4.434   4.590  17.146  0.00  0.00    +0.000 A 
ATOM      7  N   UNL     1       4.351   3.248  16.962  0.00  0.00    +0.000 NA
ATOM      8  C   UNL     1       3.426   2.597  17.705  0.00  0.00    +0.000 A 
ATOM      9  C   UNL     1       2.664   3.189  18.712  0.00  0.00    +0.000 A 
ATOM     10  C   UNL     1       1.842   2.427  19.558  0.00  0.00    +0.000 A 
ATOM     11  C   UNL     1       1.111   3.034  20.567  0.00  0.00    +0.000 A 
ATOM     12  C   UNL     1       1.181   4.415  20.746  0.00  0.00    +0.000 A 
ATOM     13  C   UNL     1       2.009   5.179  19.916  0.00  0.00    +0.000 A 
ATOM     14  C   UNL     1       2.750   4.592  18.868  0.00  0.00    +0.000 A 
ENDBRANCH   2   5
BRANCH   3  15
ATOM     15  C   UNL     1       2.118   8.818  18.148  0.00  0.00    +0.000 C 
BRANCH  15  16
ATOM     16  C   UNL     1       1.355   9.323  19.346  0.00  0.00    +0.000 A 
ATOM     17  N   UNL     1       1.007   8.594  20.397  0.00  0.00    +0.000 NA
ATOM     18  C   UNL     1       0.365   9.455  21.256  0.00  0.00    +0.000 A 
ATOM     19  C   UNL     1      -0.234   9.180  22.499  0.00  0.00    +0.000 A 
ATOM     20  C   UNL     1      -0.867  10.212  23.202  0.00  0.00    +0.000 A 
ATOM     21  C   UNL     1      -0.871  11.508  22.696  0.00  0.00    +0.000 A 
ATOM     22  C   UNL     1      -0.249  11.807  21.478  0.00  0.00    +0.000 A 
ATOM     23  C   UNL     1       0.338  10.756  20.750  0.00  0.00    +0.000 A 
ATOM     24  N   UNL     1       0.934  10.635  19.511  0.00  0.00    +0.000 N 
BRANCH  24  25
ATOM     25  C   UNL     1       1.084  11.665  18.491  0.00  0.00    +0.000 C 
ATOM     26  C   UNL     1       2.335  12.518  18.412  0.00  0.00    +0.000 C 
ATOM     27  C   UNL     1       1.028  13.162  18.727  0.00  0.00    +0.000 C 
ENDBRANCH  24  25
ENDBRANCH  15  16
ENDBRANCH   3  15
TORSDOF 4
ENDMDL
MODEL 7
REMARK VINA RESULT:      -8.1      2.212      8.023
REMARK  Name = 
REMARK  4 active torsions:
REMARK  status: ('A' for Active; 'I' for Inactive)
REMARK    1  A    between atoms: C_2  and  C_17
REMARK    2  A    between atoms: N_3  and  C_4
REMARK    3  A    between atoms: C_4  and  C_5
REMARK    4  A    between atoms: N_13  and  C_14
REMARK                            x       y       z     vdW  Elec       q    Type
REMARK                         _______ _______ _______ _____ _____    ______ ____
ROOT
ATOM      1  O   UNL     1       2.361   7.319  19.833  0.00  0.00    +0.000 OA
ATOM      2  C   UNL     1       2.299   7.243  18.613  0.00  0.00    +0.000 C 
ATOM      3  N   UNL     1       2.074   8.323  17.793  0.00  0.00    +0.000 N 
ATOM      4  H   UNL     1       2.158   8.231  16.780  0.00  0.00    +0.000 HD
ENDROOT
BRANCH   2   5
ATOM      5  C   UNL     1       2.597   5.955  17.909  0.00  0.00    +0.000 A 
ATOM      6  C   UNL     1       1.609   4.982  17.902  0.00  0.00    +0.000 A 
ATOM      7  N   UNL     1       1.834   3.676  17.608  0.00  0.00    +0.000 NA
ATOM      8  C   UNL     1       3.095   3.354  17.240  0.00  0.00    +0.000 A 
ATOM      9  C   UNL     1       4.116   4.279  17.027  0.00  0.00    +0.000 A 
ATOM     10  C   UNL     1       5.355   3.899  16.485  0.00  0.00    +0.000 A 
ATOM     11  C   UNL     1       6.347   4.840  16.261  0.00  0.00    +0.000 A 
ATOM     12  C   UNL     1       6.125   6.178  16.579  0.00  0.00    +0.000 A 
ATOM     13  C   UNL     1       4.888   6.568  17.105  0.00  0.00    +0.000 A 
ATOM     14  C   UNL     1       3.865   5.630  17.363  0.00  0.00    +0.000 A 
ENDBRANCH   2   5
BRANCH   3  15
ATOM     15  C   UNL     1       1.912   9.686  18.270  0.00  0.00    +0.000 C 
BRANCH  15  16
ATOM     16  C   UNL     1       0.455  10.063  18.216  0.00  0.00    +0.000 A 
ATOM     17  N   UNL     1      -0.479   9.420  17.530  0.00  0.00    +0.000 NA
ATOM     18  C   UNL     1      -1.659  10.078  17.790  0.00  0.00    +0.000 A 
ATOM     19  C   UNL     1      -2.945   9.822  17.281  0.00  0.00    +0.000 A 
ATOM     20  C   UNL     1      -4.012  10.646  17.660  0.00  0.00    +0.000 A 
ATOM     21  C   UNL     1      -3.812  11.685  18.563  0.00  0.00    +0.000 A 
ATOM     22  C   UNL     1      -2.546  11.931  19.108  0.00  0.00    +0.000 A 
ATOM     23  C   UNL     1      -1.467  11.135  18.682  0.00  0.00    +0.000 A 
ATOM     24  N   UNL     1      -0.104  11.133  18.901  0.00  0.00    +0.000 N 
BRANCH  24  25
ATOM     25  C   UNL     1       0.675  12.092  19.673  0.00  0.00    +0.000 C 
ATOM     26  C   UNL     1       0.249  13.543  19.784  0.00  0.00    +0.000 C 
ATOM     27  C   UNL     1       1.531  13.206  19.100  0.00  0.00    +0.000 C 
ENDBRANCH  24  25
ENDBRANCH  15  16
ENDBRANCH   3  15
TORSDOF 4
ENDMDL
MODEL 8
REMARK VINA RESULT:      -8.0      1.311      1.413
REMARK  Name = 
REMARK  4 active torsions:
REMARK  status: ('A' for Active; 'I' for Inactive)
REMARK    1  A    between atoms: C_2  and  C_17
REMARK    2  A    between atoms: N_3  and  C_4
REMARK    3  A    between atoms: C_4  and  C_5
REMARK    4  A    between atoms: N_13  and  C_14
REMARK                            x       y       z     vdW  Elec       q    Type
REMARK                         _______ _______ _______ _____ _____    ______ ____
ROOT
ATOM      1  O   UNL     1       0.119   9.233  17.218  0.00  0.00    +0.000 OA
ATOM      2  C   UNL     1       0.627   9.583  18.275  0.00  0.00    +0.000 C 
ATOM      3  N   UNL     1       1.862   9.157  18.704  0.00  0.00    +0.000 N 
ATOM      4  H   UNL     1       2.296   9.575  19.527  0.00  0.00    +0.000 HD
ENDROOT
BRANCH   2   5
ATOM      5  C   UNL     1      -0.027  10.623  19.133  0.00  0.00    +0.000 A 
ATOM      6  C   UNL     1      -0.290  11.857  18.559  0.00  0.00    +0.000 A 
ATOM      7  N   UNL     1      -0.563  12.980  19.270  0.00  0.00    +0.000 NA
ATOM      8  C   UNL     1      -0.639  12.835  20.614  0.00  0.00    +0.000 A 
ATOM      9  C   UNL     1      -0.582  11.611  21.279  0.00  0.00    +0.000 A 
ATOM     10  C   UNL     1      -0.833  11.510  22.658  0.00  0.00    +0.000 A 
ATOM     11  C   UNL     1      -0.794  10.279  23.294  0.00  0.00    +0.000 A 
ATOM     12  C   UNL     1      -0.497   9.127  22.569  0.00  0.00    +0.000 A 
ATOM     13  C   UNL     1      -0.260   9.218  21.193  0.00  0.00    +0.000 A 
ATOM     14  C   UNL     1      -0.273  10.458  20.520  0.00  0.00    +0.000 A 
ENDBRANCH   2   5
BRANCH   3  15
ATOM     15  C   UNL     1       2.723   8.268  17.945  0.00  0.00    +0.000 C 
BRANCH  15  16
ATOM     16  C   UNL     1       2.778   6.925  18.627  0.00  0.00    +0.000 A 
ATOM     17  N   UNL     1       2.138   6.605  19.742  0.00  0.00    +0.000 NA
ATOM     18  C   UNL     1       2.441   5.285  19.984  0.00  0.00    +0.000 A 
ATOM     19  C   UNL     1       2.046   4.471  21.061  0.00  0.00    +0.000 A 
ATOM     20  C   UNL     1       2.501   3.148  21.127  0.00  0.00    +0.000 A 
ATOM     21  C   UNL     1       3.302   2.628  20.115  0.00  0.00    +0.000 A 
ATOM     22  C   UNL     1       3.674   3.413  19.017  0.00  0.00    +0.000 A 
ATOM     23  C   UNL     1       3.261   4.757  18.984  0.00  0.00    +0.000 A 
ATOM     24  N   UNL     1       3.499   5.837  18.157  0.00  0.00    +0.000 N 
BRANCH  24  25
ATOM     25  C   UNL     1       4.382   5.893  16.999  0.00  0.00    +0.000 C 
ATOM     26  C   UNL     1       5.477   4.863  16.795  0.00  0.00    +0.000 C 
ATOM     27  C   UNL     1       5.846   6.291  17.020  0.00  0.00    +0.000 C 
ENDBRANCH  24  25
ENDBRANCH  15  16
ENDBRANCH   3  15
TORSDOF 4
ENDMDL
MODEL 9
REMARK VINA RESULT:      -7.9      2.180      7.992
REMARK  Name = 
REMARK  4 active torsions:
REMARK  status: ('A' for Active; 'I' for Inactive)
REMARK    1  A    between atoms: C_2  and  C_17
REMARK    2  A    between atoms: N_3  and  C_4
REMARK    3  A    between atoms: C_4  and  C_5
REMARK    4  A    between atoms: N_13  and  C_14
REMARK                            x       y       z     vdW  Elec       q    Type
REMARK                         _______ _______ _______ _____ _____    ______ ____
ROOT
ATOM      1  O   UNL     1       1.900   5.830  17.752  0.00  0.00    +0.000 OA
ATOM      2  C   UNL     1       2.957   6.445  17.818  0.00  0.00    +0.000 C 
ATOM      3  N   UNL     1       3.045   7.815  17.756  0.00  0.00    +0.000 N 
ATOM      4  H   UNL     1       3.931   8.286  17.944  0.00  0.00    +0.000 HD
ENDROOT
BRANCH   2   5
ATOM      5  C   UNL     1       4.242   5.731  18.105  0.00  0.00    +0.000 A 
ATOM      6  C   UNL     1       4.583   5.528  19.433  0.00  0.00    +0.000 A 
ATOM      7  N   UNL     1       5.832   5.208  19.855  0.00  0.00    +0.000 NA
ATOM      8  C   UNL     1       6.760   5.018  18.888  0.00  0.00    +0.000 A 
ATOM      9  C   UNL     1       6.484   5.007  17.522  0.00  0.00    +0.000 A 
ATOM     10  C   UNL     1       7.457   4.640  16.577  0.00  0.00    +0.000 A 
ATOM     11  C   UNL     1       7.154   4.614  15.224  0.00  0.00    +0.000 A 
ATOM     12  C   UNL     1       5.876   4.960  14.788  0.00  0.00    +0.000 A 
ATOM     13  C   UNL     1       4.898   5.313  15.725  0.00  0.00    +0.000 A 
ATOM     14  C   UNL     1       5.181   5.368  17.106  0.00  0.00    +0.000 A 
ENDBRANCH   2   5
BRANCH   3  15
ATOM     15  C   UNL     1       1.899   8.699  17.634  0.00  0.00    +0.000 C 
BRANCH  15  16
ATOM     16  C   UNL     1       1.356   9.002  19.007  0.00  0.00    +0.000 A 
ATOM     17  N   UNL     1       1.830   8.513  20.144  0.00  0.00    +0.000 NA
ATOM     18  C   UNL     1       1.067   9.075  21.142  0.00  0.00    +0.000 A 
ATOM     19  C   UNL     1       1.132   8.861  22.531  0.00  0.00    +0.000 A 
ATOM     20  C   UNL     1       0.228   9.522  23.372  0.00  0.00    +0.000 A 
ATOM     21  C   UNL     1      -0.701  10.413  22.845  0.00  0.00    +0.000 A 
ATOM     22  C   UNL     1      -0.756  10.666  21.469  0.00  0.00    +0.000 A 
ATOM     23  C   UNL     1       0.118   9.958  20.623  0.00  0.00    +0.000 A 
ATOM     24  N   UNL     1       0.292   9.857  19.257  0.00  0.00    +0.000 N 
BRANCH  24  25
ATOM     25  C   UNL     1      -0.504  10.484  18.210  0.00  0.00    +0.000 C 
ATOM     26  C   UNL     1      -1.412  11.661  18.510  0.00  0.00    +0.000 C 
ATOM     27  C   UNL     1      -2.009  10.373  18.053  0.00  0.00    +0.000 C 
ENDBRANCH  24  25
ENDBRANCH  15  16
ENDBRANCH   3  15
TORSDOF 4
ENDMDL
