MODEL 1
REMARK VINA RESULT:      -8.5      0.000      0.000
REMARK  Name = 
REMARK  5 active torsions:
REMARK  status: ('A' for Active; 'I' for Inactive)
REMARK    1  A    between atoms: S_2  and  N_4
REMARK    2  A    between atoms: S_2  and  C_20
REMARK    3  A    between atoms: N_4  and  C_5
REMARK    4  A    between atoms: C_9  and  S_10
REMARK    5  A    between atoms: S_10  and  N_13
REMARK                            x       y       z     vdW  Elec       q    Type
REMARK                         _______ _______ _______ _____ _____    ______ ____
ROOT
ATOM      1  N   UNL     1       0.000   9.318  20.789  0.00  0.00    +0.000 N 
ATOM      2  H   UNL     1      -0.991   9.160  20.610  0.00  0.00    +0.000 HD
ENDROOT
BRANCH   1   3
ATOM      3  C   UNL     1       0.969   8.834  19.877  0.00  0.00    +0.000 A 
ATOM      4  C   UNL     1       1.283   9.548  18.723  0.00  0.00    +0.000 A 
ATOM      5  C   UNL     1       2.205   9.041  17.809  0.00  0.00    +0.000 A 
ATOM      6  C   UNL     1       2.812   7.811  18.050  0.00  0.00    +0.000 A 
ATOM      7  C   UNL     1       2.502   7.102  19.219  0.00  0.00    +0.000 A 
ATOM      8  C   UNL     1       1.577   7.606  20.137  0.00  0.00    +0.000 A 
BRANCH   7   9
ATOM      9  S   UNL     1       3.246   5.509  19.510  0.00  0.00    +0.000 S 
ATOM     10  O   UNL     1       4.679   5.721  19.534  0.00  0.00    +0.000 OA
ATOM     11  O   UNL     1       2.568   4.924  20.658  0.00  0.00    +0.000 OA
BRANCH   9  12
ATOM     12  N   UNL     1       2.851   4.591  18.149  0.00  0.00    +0.000 NA
ATOM     13  C   UNL     1       1.474   4.018  18.057  0.00  0.00    +0.000 C 
ATOM     14  C   UNL     1       1.329   2.731  18.880  0.00  0.00    +0.000 C 
ATOM     15  O   UNL     1       2.308   1.753  18.503  0.00  0.00    +0.000 OA
ATOM     16  C   UNL     1       3.640   2.264  18.665  0.00  0.00    +0.000 C 
ATOM     17  C   UNL     1       3.855   3.526  17.818  0.00  0.00    +0.000 C 
ENDBRANCH   9  12
ENDBRANCH   7   9
ENDBRANCH   1   3
BRANCH   1  19
ATOM     18  O   UNL     1       0.553   9.936  23.171  0.00  0.00    +0.000 OA
ATOM     19  S   UNL     1       0.373  10.540  21.861  0.00  0.00    +0.000 S 
ATOM     20  O   UNL     1       1.403  11.395  21.298  0.00  0.00    +0.000 OA
BRANCH  19  21
ATOM     21  C   UNL     1      -1.143  11.481  21.929  0.00  0.00    +0.000 A 
ATOM     22  C   UNL     1      -1.615  12.047  20.748  0.00  0.00    +0.000 A 
ATOM     23  C   UNL     1      -2.701  12.912  20.798  0.00  0.00    +0.000 A 
ATOM     24  C   UNL     1      -3.396  13.109  21.995  0.00  0.00    +0.000 A 
ATOM     25  C   UNL     1      -4.490  13.976  22.042  0.00  0.00    +0.000 A 
ATOM     26  C   UNL     1      -5.430  13.849  23.058  0.00  0.00    +0.000 A 
ATOM     27  C   UNL     1      -5.179  12.995  24.127  0.00  0.00    +0.000 A 
ATOM     28  C   UNL     1      -3.945  12.342  24.222  0.00  0.00    +0.000 A 
ATOM     29  C   UNL     1      -3.053  12.355  23.137  0.00  0.00    +0.000 A 
ATOM     30  C   UNL     1      -1.856  11.615  23.126  0.00  0.00    +0.000 A 
ENDBRANCH  19  21
ENDBRANCH   1  19
TORSDOF 5
ENDMDL
MODEL 2
REMARK VINA RESULT:      -8.4      2.377      9.980
REMARK  Name = 
REMARK  5 active torsions:
REMARK  status: ('A' for Active; 'I' for Inactive)
REMARK    1  A    between atoms: S_2  and  N_4
REMARK    2  A    between atoms: S_2  and  C_20
REMARK    3  A    between atoms: N_4  and  C_5
REMARK    4  A    between atoms: C_9  and  S_10
REMARK    5  A    between atoms: S_10  and  N_13
REMARK                            x       y       z     vdW  Elec       q    Type
REMARK                         _______ _______ _______ _____ _____    ______ ____
ROOT
ATOM      1  N   UNL     1       2.436   6.056  20.625  0.00  0.00    +0.000 N 
ATOM      2  H   UNL     1       2.950   6.153  21.501  0.00  0.00    +0.000 HD
ENDROOT
BRANCH   1   3
ATOM      3  C   UNL     1       2.086   7.207  19.880  0.00  0.00    +0.000 A 
ATOM      4  C   UNL     1       2.438   7.322  18.537  0.00  0.00    +0.000 A 
ATOM      5  C   UNL     1       2.129   8.478  17.824  0.00  0.00    +0.000 A 
ATOM      6  C   UNL     1       1.466   9.526  18.459  0.00  0.00    +0.000 A 
ATOM      7  C   UNL     1       1.103   9.400  19.807  0.00  0.00    +0.000 A 
ATOM      8  C   UNL     1       1.413   8.243  20.527  0.00  0.00    +0.000 A 
BRANCH   7   9
ATOM      9  S   UNL     1       0.292  10.755  20.635  0.00  0.00    +0.000 S 
ATOM     10  O   UNL     1      -0.789  10.178  21.408  0.00  0.00    +0.000 OA
ATOM     11  O   UNL     1       1.330  11.538  21.289  0.00  0.00    +0.000 OA
BRANCH   9  12
ATOM     12  N   UNL     1      -0.362  11.693  19.393  0.00  0.00    +0.000 NA
ATOM     13  C   UNL     1       0.258  13.021  19.107  0.00  0.00    +0.000 C 
ATOM     14  C   UNL     1      -0.223  14.104  20.081  0.00  0.00    +0.000 C 
ATOM     15  O   UNL     1      -1.654  14.206  20.088  0.00  0.00    +0.000 OA
ATOM     16  C   UNL     1      -2.261  12.954  20.442  0.00  0.00    +0.000 C 
ATOM     17  C   UNL     1      -1.853  11.845  19.463  0.00  0.00    +0.000 C 
ENDBRANCH   9  12
ENDBRANCH   7   9
ENDBRANCH   1   3
BRANCH   1  19
ATOM     18  O   UNL     1       2.856   3.587  20.923  0.00  0.00    +0.000 OA
ATOM     19  S   UNL     1       2.484   4.553  19.903  0.00  0.00    +0.000 S 
ATOM     20  O   UNL     1       1.291   4.352  19.100  0.00  0.00    +0.000 OA
BRANCH  19  21
ATOM     21  C   UNL     1       3.874   4.693  18.792  0.00  0.00    +0.000 A 
ATOM     22  C   UNL     1       5.103   5.072  19.324  0.00  0.00    +0.000 A 
ATOM     23  C   UNL     1       6.161   5.341  18.466  0.00  0.00    +0.000 A 
ATOM     24  C   UNL     1       6.036   5.107  17.093  0.00  0.00    +0.000 A 
ATOM     25  C   UNL     1       7.102   5.375  16.231  0.00  0.00    +0.000 A 
ATOM     26  C   UNL     1       7.159   4.756  14.987  0.00  0.00    +0.000 A 
ATOM     27  C   UNL     1       6.065   4.030  14.528  0.00  0.00    +0.000 A 
ATOM     28  C   UNL     1       4.883   4.004  15.276  0.00  0.00    +0.000 A 
ATOM     29  C   UNL     1       4.864   4.506  16.588  0.00  0.00    +0.000 A 
ATOM     30  C   UNL     1       3.743   4.395  17.431  0.00  0.00    +0.000 A 
ENDBRANCH  19  21
ENDBRANCH   1  19
TORSDOF 5
ENDMDL
MODEL 3
REMARK VINA RESULT:      -8.4      1.927      2.940
REMARK  Name = 
REMARK  5 active torsions:
REMARK  status: ('A' for Active; 'I' for Inactive)
REMARK    1  A    between atoms: S_2  and  N_4
REMARK    2  A    between atoms: S_2  and  C_20
REMARK    3  A    between atoms: N_4  and  C_5
REMARK    4  A    between atoms: C_9  and  S_10
REMARK    5  A    between atoms: S_10  and  N_13
REMARK                            x       y       z     vdW  Elec       q    Type
REMARK                         _______ _______ _______ _____ _____    ______ ____
ROOT
ATOM      1  N   UNL     1       0.450   9.534  20.813  0.00  0.00    +0.000 N 
ATOM      2  H   UNL     1      -0.298   9.025  21.283  0.00  0.00    +0.000 HD
ENDROOT
BRANCH   1   3
ATOM      3  C   UNL     1       1.261   8.874  19.859  0.00  0.00    +0.000 A 
ATOM      4  C   UNL     1       1.482   9.431  18.602  0.00  0.00    +0.000 A 
ATOM      5  C   UNL     1       2.245   8.753  17.654  0.00  0.00    +0.000 A 
ATOM      6  C   UNL     1       2.788   7.508  17.965  0.00  0.00    +0.000 A 
ATOM      7  C   UNL     1       2.573   6.958  19.236  0.00  0.00    +0.000 A 
ATOM      8  C   UNL     1       1.807   7.634  20.189  0.00  0.00    +0.000 A 
BRANCH   7   9
ATOM      9  S   UNL     1       3.231   5.347  19.624  0.00  0.00    +0.000 S 
ATOM     10  O   UNL     1       4.673   5.487  19.655  0.00  0.00    +0.000 OA
ATOM     11  O   UNL     1       2.513   4.863  20.793  0.00  0.00    +0.000 OA
BRANCH   9  12
ATOM     12  N   UNL     1       2.803   4.376  18.310  0.00  0.00    +0.000 NA
ATOM     13  C   UNL     1       1.409   3.843  18.249  0.00  0.00    +0.000 C 
ATOM     14  C   UNL     1       1.227   2.603  19.134  0.00  0.00    +0.000 C 
ATOM     15  O   UNL     1       2.174   1.577  18.804  0.00  0.00    +0.000 OA
ATOM     16  C   UNL     1       3.521   2.055  18.938  0.00  0.00    +0.000 C 
ATOM     17  C   UNL     1       3.773   3.266  18.029  0.00  0.00    +0.000 C 
ENDBRANCH   9  12
ENDBRANCH   7   9
ENDBRANCH   1   3
BRANCH   1  19
ATOM     18  O   UNL     1       0.181  11.608  22.222  0.00  0.00    +0.000 OA
ATOM     19  S   UNL     1       0.342  11.198  20.838  0.00  0.00    +0.000 S 
ATOM     20  O   UNL     1       1.393  11.774  20.018  0.00  0.00    +0.000 OA
BRANCH  19  21
ATOM     21  C   UNL     1      -1.216  11.504  20.022  0.00  0.00    +0.000 A 
ATOM     22  C   UNL     1      -2.083  12.433  20.592  0.00  0.00    +0.000 A 
ATOM     23  C   UNL     1      -3.362  12.577  20.071  0.00  0.00    +0.000 A 
ATOM     24  C   UNL     1      -3.733  11.897  18.907  0.00  0.00    +0.000 A 
ATOM     25  C   UNL     1      -5.019  12.046  18.382  0.00  0.00    +0.000 A 
ATOM     26  C   UNL     1      -5.259  11.753  17.044  0.00  0.00    +0.000 A 
ATOM     27  C   UNL     1      -4.271  11.131  16.287  0.00  0.00    +0.000 A 
ATOM     28  C   UNL     1      -3.081  10.720  16.897  0.00  0.00    +0.000 A 
ATOM     29  C   UNL     1      -2.776  11.135  18.205  0.00  0.00    +0.000 A 
ATOM     30  C   UNL     1      -1.543  10.858  18.824  0.00  0.00    +0.000 A 
ENDBRANCH  19  21
ENDBRANCH   1  19
TORSDOF 5
ENDMDL
MODEL 4
REMARK VINA RESULT:      -8.3      2.604      3.805
REMARK  Name = 
REMARK  5 active torsions:
REMARK  status: ('A' for Active; 'I' for Inactive)
REMARK    1  A    between atoms: S_2  and  N_4
REMARK    2  A    between atoms: S_2  and  C_20
REMARK    3  A    between atoms: N_4  and  C_5
REMARK    4  A    between atoms: C_9  and  S_10
REMARK    5  A    between atoms: S_10  and  N_13
REMARK                            x       y       z     vdW  Elec       q    Type
REMARK                         _______ _______ _______ _____ _____    ______ ____
ROOT
ATOM      1  N   UNL     1       2.120   8.483  19.668  0.00  0.00    +0.000 N 
ATOM      2  H   UNL     1       2.239   9.052  20.505  0.00  0.00    +0.000 HD
ENDROOT
BRANCH   1   3
ATOM      3  C   UNL     1       2.178   7.072  19.758  0.00  0.00    +0.000 A 
ATOM      4  C   UNL     1       1.349   6.378  20.636  0.00  0.00    +0.000 A 
ATOM      5  C   UNL     1       1.445   4.993  20.751  0.00  0.00    +0.000 A 
ATOM      6  C   UNL     1       2.379   4.299  19.984  0.00  0.00    +0.000 A 
ATOM      7  C   UNL     1       3.202   5.001  19.093  0.00  0.00    +0.000 A 
ATOM      8  C   UNL     1       3.110   6.390  18.976  0.00  0.00    +0.000 A 
BRANCH   7   9
ATOM      9  S   UNL     1       4.426   4.121  18.141  0.00  0.00    +0.000 S 
ATOM     10  O   UNL     1       5.267   3.425  19.094  0.00  0.00    +0.000 OA
ATOM     11  O   UNL     1       3.714   3.382  17.110  0.00  0.00    +0.000 OA
BRANCH   9  12
ATOM     12  N   UNL     1       5.335   5.326  17.385  0.00  0.00    +0.000 NA
ATOM     13  C   UNL     1       5.511   5.256  15.903  0.00  0.00    +0.000 C 
ATOM     14  C   UNL     1       6.614   4.269  15.499  0.00  0.00    +0.000 C 
ATOM     15  O   UNL     1       7.858   4.581  16.139  0.00  0.00    +0.000 OA
ATOM     16  C   UNL     1       7.722   4.571  17.568  0.00  0.00    +0.000 C 
ATOM     17  C   UNL     1       6.665   5.584  18.031  0.00  0.00    +0.000 C 
ENDBRANCH   9  12
ENDBRANCH   7   9
ENDBRANCH   1   3
BRANCH   1  19
ATOM     18  O   UNL     1       2.337  10.164  17.800  0.00  0.00    +0.000 OA
ATOM     19  S   UNL     1       1.384   9.226  18.368  0.00  0.00    +0.000 S 
ATOM     20  O   UNL     1       0.742   8.230  17.528  0.00  0.00    +0.000 OA
BRANCH  19  21
ATOM     21  C   UNL     1       0.101  10.196  19.143  0.00  0.00    +0.000 A 
ATOM     22  C   UNL     1      -0.993  10.573  18.368  0.00  0.00    +0.000 A 
ATOM     23  C   UNL     1      -1.927  11.455  18.897  0.00  0.00    +0.000 A 
ATOM     24  C   UNL     1      -1.844  11.858  20.233  0.00  0.00    +0.000 A 
ATOM     25  C   UNL     1      -2.785  12.743  20.764  0.00  0.00    +0.000 A 
ATOM     26  C   UNL     1      -2.982  12.802  22.139  0.00  0.00    +0.000 A 
ATOM     27  C   UNL     1      -2.112  12.127  22.989  0.00  0.00    +0.000 A 
ATOM     28  C   UNL     1      -0.992  11.473  22.463  0.00  0.00    +0.000 A 
ATOM     29  C   UNL     1      -0.865  11.292  21.076  0.00  0.00    +0.000 A 
ATOM     30  C   UNL     1       0.172  10.537  20.498  0.00  0.00    +0.000 A 
ENDBRANCH  19  21
ENDBRANCH   1  19
TORSDOF 5
ENDMDL
MODEL 5
REMARK VINA RESULT:      -8.3      3.167      9.819
REMARK  Name = 
REMARK  5 active torsions:
REMARK  status: ('A' for Active; 'I' for Inactive)
REMARK    1  A    between atoms: S_2  and  N_4
REMARK    2  A    between atoms: S_2  and  C_20
REMARK    3  A    between atoms: N_4  and  C_5
REMARK    4  A    between atoms: C_9  and  S_10
REMARK    5  A    between atoms: S_10  and  N_13
REMARK                            x       y       z     vdW  Elec       q    Type
REMARK                         _______ _______ _______ _____ _____    ______ ____
ROOT
ATOM      1  N   UNL     1       2.185   6.318  20.979  0.00  0.00    +0.000 N 
ATOM      2  H   UNL     1       2.791   6.479  21.784  0.00  0.00    +0.000 HD
ENDROOT
BRANCH   1   3
ATOM      3  C   UNL     1       1.935   7.367  20.063  0.00  0.00    +0.000 A 
ATOM      4  C   UNL     1       2.369   7.280  18.742  0.00  0.00    +0.000 A 
ATOM      5  C   UNL     1       2.158   8.337  17.859  0.00  0.00    +0.000 A 
ATOM      6  C   UNL     1       1.513   9.489  18.301  0.00  0.00    +0.000 A 
ATOM      7  C   UNL     1       1.067   9.567  19.628  0.00  0.00    +0.000 A 
ATOM      8  C   UNL     1       1.278   8.510  20.518  0.00  0.00    +0.000 A 
BRANCH   7   9
ATOM      9  S   UNL     1       0.277  11.056  20.209  0.00  0.00    +0.000 S 
ATOM     10  O   UNL     1      -1.150  10.827  20.121  0.00  0.00    +0.000 OA
ATOM     11  O   UNL     1       0.891  11.395  21.485  0.00  0.00    +0.000 OA
BRANCH   9  12
ATOM     12  N   UNL     1       0.714  12.243  19.090  0.00  0.00    +0.000 NA
ATOM     13  C   UNL     1       1.905  13.093  19.388  0.00  0.00    +0.000 C 
ATOM     14  C   UNL     1       1.572  14.233  20.360  0.00  0.00    +0.000 C 
ATOM     15  O   UNL     1       0.487  15.036  19.875  0.00  0.00    +0.000 OA
ATOM     16  C   UNL     1      -0.691  14.243  19.663  0.00  0.00    +0.000 C 
ATOM     17  C   UNL     1      -0.425  13.117  18.653  0.00  0.00    +0.000 C 
ENDBRANCH   9  12
ENDBRANCH   7   9
ENDBRANCH   1   3
BRANCH   1  19
ATOM     18  O   UNL     1       2.420   3.894  21.633  0.00  0.00    +0.000 OA
ATOM     19  S   UNL     1       1.942   4.727  20.543  0.00  0.00    +0.000 S 
ATOM     20  O   UNL     1       0.597   4.557  20.022  0.00  0.00    +0.000 OA
BRANCH  19  21
ATOM     21  C   UNL     1       3.084   4.511  19.187  0.00  0.00    +0.000 A 
ATOM     22  C   UNL     1       2.569   4.124  17.953  0.00  0.00    +0.000 A 
ATOM     23  C   UNL     1       3.444   3.797  16.925  0.00  0.00    +0.000 A 
ATOM     24  C   UNL     1       4.821   3.981  17.082  0.00  0.00    +0.000 A 
ATOM     25  C   UNL     1       5.700   3.656  16.046  0.00  0.00    +0.000 A 
ATOM     26  C   UNL     1       6.968   4.225  16.009  0.00  0.00    +0.000 A 
ATOM     27  C   UNL     1       7.426   4.958  17.098  0.00  0.00    +0.000 A 
ATOM     28  C   UNL     1       6.649   5.041  18.259  0.00  0.00    +0.000 A 
ATOM     29  C   UNL     1       5.318   4.591  18.253  0.00  0.00    +0.000 A 
ATOM     30  C   UNL     1       4.451   4.760  19.349  0.00  0.00    +0.000 A 
ENDBRANCH  19  21
ENDBRANCH   1  19
TORSDOF 5
ENDMDL
MODEL 6
REMARK VINA RESULT:      -8.3      3.335     10.748
REMARK  Name = 
REMARK  5 active torsions:
REMARK  status: ('A' for Active; 'I' for Inactive)
REMARK    1  A    between atoms: S_2  and  N_4
REMARK    2  A    between atoms: S_2  and  C_20
REMARK    3  A    between atoms: N_4  and  C_5
REMARK    4  A    between atoms: C_9  and  S_10
REMARK    5  A    between atoms: S_10  and  N_13
REMARK                            x       y       z     vdW  Elec       q    Type
REMARK                         _______ _______ _______ _____ _____    ______ ____
ROOT
ATOM      1  N   UNL     1       3.215   5.426  17.930  0.00  0.00    +0.000 N 
ATOM      2  H   UNL     1       2.661   4.989  17.194  0.00  0.00    +0.000 HD
ENDROOT
BRANCH   1   3
ATOM      3  C   UNL     1       2.610   6.349  18.817  0.00  0.00    +0.000 A 
ATOM      4  C   UNL     1       2.326   5.994  20.133  0.00  0.00    +0.000 A 
ATOM      5  C   UNL     1       1.689   6.894  20.985  0.00  0.00    +0.000 A 
ATOM      6  C   UNL     1       1.332   8.156  20.515  0.00  0.00    +0.000 A 
ATOM      7  C   UNL     1       1.632   8.513  19.193  0.00  0.00    +0.000 A 
ATOM      8  C   UNL     1       2.268   7.612  18.335  0.00  0.00    +0.000 A 
BRANCH   7   9
ATOM      9  S   UNL     1       1.139  10.111  18.575  0.00  0.00    +0.000 S 
ATOM     10  O   UNL     1       2.317  10.701  17.973  0.00  0.00    +0.000 OA
ATOM     11  O   UNL     1      -0.069   9.911  17.789  0.00  0.00    +0.000 OA
BRANCH   9  12
ATOM     12  N   UNL     1       0.724  10.998  19.951  0.00  0.00    +0.000 NA
ATOM     13  C   UNL     1      -0.724  11.154  20.283  0.00  0.00    +0.000 C 
ATOM     14  C   UNL     1      -1.388  12.262  19.455  0.00  0.00    +0.000 C 
ATOM     15  O   UNL     1      -0.700  13.512  19.600  0.00  0.00    +0.000 OA
ATOM     16  C   UNL     1       0.675  13.395  19.207  0.00  0.00    +0.000 C 
ATOM     17  C   UNL     1       1.403  12.333  20.044  0.00  0.00    +0.000 C 
ENDBRANCH   9  12
ENDBRANCH   7   9
ENDBRANCH   1   3
BRANCH   1  19
ATOM     18  O   UNL     1       5.370   5.537  19.236  0.00  0.00    +0.000 OA
ATOM     19  S   UNL     1       4.639   4.659  18.338  0.00  0.00    +0.000 S 
ATOM     20  O   UNL     1       4.369   3.282  18.713  0.00  0.00    +0.000 OA
BRANCH  19  21
ATOM     21  C   UNL     1       5.533   4.638  16.792  0.00  0.00    +0.000 A 
ATOM     22  C   UNL     1       6.866   5.037  16.801  0.00  0.00    +0.000 A 
ATOM     23  C   UNL     1       7.540   5.181  15.595  0.00  0.00    +0.000 A 
ATOM     24  C   UNL     1       6.931   4.803  14.395  0.00  0.00    +0.000 A 
ATOM     25  C   UNL     1       7.611   4.945  13.183  0.00  0.00    +0.000 A 
ATOM     26  C   UNL     1       7.223   4.194  12.079  0.00  0.00    +0.000 A 
ATOM     27  C   UNL     1       6.047   3.454  12.129  0.00  0.00    +0.000 A 
ATOM     28  C   UNL     1       5.214   3.543  13.249  0.00  0.00    +0.000 A 
ATOM     29  C   UNL     1       5.664   4.184  14.416  0.00  0.00    +0.000 A 
ATOM     30  C   UNL     1       4.923   4.198  15.612  0.00  0.00    +0.000 A 
ENDBRANCH  19  21
ENDBRANCH   1  19
TORSDOF 5
ENDMDL
MODEL 7
REMARK VINA RESULT:      -8.3      0.816      1.095
REMARK  Name = 
REMARK  5 active torsions:
REMARK  status: ('A' for Active; 'I' for Inactive)
REMARK    1  A    between atoms: S_2  and  N_4
REMARK    2  A    between atoms: S_2  and  C_20
REMARK    3  A    between atoms: N_4  and  C_5
REMARK    4  A    between atoms: C_9  and  S_10
REMARK    5  A    between atoms: S_10  and  N_13
REMARK                            x       y       z     vdW  Elec       q    Type
REMARK                         _______ _______ _______ _____ _____    ______ ____
ROOT
ATOM      1  N   UNL     1       0.074   9.195  20.965  0.00  0.00    +0.000 N 
ATOM      2  H   UNL     1      -0.892   8.873  20.922  0.00  0.00    +0.000 HD
ENDROOT
BRANCH   1   3
ATOM      3  C   UNL     1       0.963   8.908  19.903  0.00  0.00    +0.000 A 
ATOM      4  C   UNL     1       1.163   9.822  18.871  0.00  0.00    +0.000 A 
ATOM      5  C   UNL     1       2.005   9.511  17.806  0.00  0.00    +0.000 A 
ATOM      6  C   UNL     1       2.650   8.277  17.771  0.00  0.00    +0.000 A 
ATOM      7  C   UNL     1       2.456   7.365  18.819  0.00  0.00    +0.000 A 
ATOM      8  C   UNL     1       1.610   7.672  19.888  0.00  0.00    +0.000 A 
BRANCH   7   9
ATOM      9  S   UNL     1       3.246   5.768  18.758  0.00  0.00    +0.000 S 
ATOM     10  O   UNL     1       3.546   5.510  17.364  0.00  0.00    +0.000 OA
ATOM     11  O   UNL     1       4.310   5.781  19.750  0.00  0.00    +0.000 OA
BRANCH   9  12
ATOM     12  N   UNL     1       2.064   4.680  19.275  0.00  0.00    +0.000 NA
ATOM     13  C   UNL     1       2.380   3.787  20.431  0.00  0.00    +0.000 C 
ATOM     14  C   UNL     1       3.214   2.571  20.008  0.00  0.00    +0.000 C 
ATOM     15  O   UNL     1       2.572   1.831  18.960  0.00  0.00    +0.000 OA
ATOM     16  C   UNL     1       2.336   2.659  17.812  0.00  0.00    +0.000 C 
ATOM     17  C   UNL     1       1.457   3.866  18.170  0.00  0.00    +0.000 C 
ENDBRANCH   9  12
ENDBRANCH   7   9
ENDBRANCH   1   3
BRANCH   1  19
ATOM     18  O   UNL     1       0.516   9.858  23.359  0.00  0.00    +0.000 OA
ATOM     19  S   UNL     1       0.392  10.438  22.032  0.00  0.00    +0.000 S 
ATOM     20  O   UNL     1       1.441  11.290  21.501  0.00  0.00    +0.000 OA
BRANCH  19  21
ATOM     21  C   UNL     1      -1.130  11.371  22.016  0.00  0.00    +0.000 A 
ATOM     22  C   UNL     1      -1.583  11.863  20.795  0.00  0.00    +0.000 A 
ATOM     23  C   UNL     1      -2.675  12.721  20.772  0.00  0.00    +0.000 A 
ATOM     24  C   UNL     1      -3.394  12.983  21.942  0.00  0.00    +0.000 A 
ATOM     25  C   UNL     1      -4.494  13.844  21.918  0.00  0.00    +0.000 A 
ATOM     26  C   UNL     1      -5.453  13.771  22.922  0.00  0.00    +0.000 A 
ATOM     27  C   UNL     1      -5.217  12.984  24.043  0.00  0.00    +0.000 A 
ATOM     28  C   UNL     1      -3.982  12.346  24.200  0.00  0.00    +0.000 A 
ATOM     29  C   UNL     1      -3.069  12.301  23.133  0.00  0.00    +0.000 A 
ATOM     30  C   UNL     1      -1.867  11.570  23.188  0.00  0.00    +0.000 A 
ENDBRANCH  19  21
ENDBRANCH   1  19
TORSDOF 5
ENDMDL
MODEL 8
REMARK VINA RESULT:      -8.2      0.897      1.007
REMARK  Name = 
REMARK  5 active torsions:
REMARK  status: ('A' for Active; 'I' for Inactive)
REMARK    1  A    between atoms: S_2  and  N_4
REMARK    2  A    between atoms: S_2  and  C_20
REMARK    3  A    between atoms: N_4  and  C_5
REMARK    4  A    between atoms: C_9  and  S_10
REMARK    5  A    between atoms: S_10  and  N_13
REMARK                            x       y       z     vdW  Elec       q    Type
REMARK                         _______ _______ _______ _____ _____    ______ ____
ROOT
ATOM      1  N   UNL     1       1.102  10.142  21.201  0.00  0.00    +0.000 N 
ATOM      2  H   UNL     1       1.733  10.885  21.497  0.00  0.00    +0.000 HD
ENDROOT
BRANCH   1   3
ATOM      3  C   UNL     1       1.468   9.288  20.133  0.00  0.00    +0.000 A 
ATOM      4  C   UNL     1       1.362   9.711  18.811  0.00  0.00    +0.000 A 
ATOM      5  C   UNL     1       1.683   8.847  17.766  0.00  0.00    +0.000 A 
ATOM      6  C   UNL     1       2.109   7.551  18.046  0.00  0.00    +0.000 A 
ATOM      7  C   UNL     1       2.225   7.133  19.379  0.00  0.00    +0.000 A 
ATOM      8  C   UNL     1       1.903   7.996  20.430  0.00  0.00    +0.000 A 
BRANCH   7   9
ATOM      9  S   UNL     1       2.730   5.462  19.741  0.00  0.00    +0.000 S 
ATOM     10  O   UNL     1       4.177   5.448  19.689  0.00  0.00    +0.000 OA
ATOM     11  O   UNL     1       2.032   5.059  20.953  0.00  0.00    +0.000 OA
BRANCH   9  12
ATOM     12  N   UNL     1       2.126   4.541  18.462  0.00  0.00    +0.000 NA
ATOM     13  C   UNL     1       1.200   3.412  18.778  0.00  0.00    +0.000 C 
ATOM     14  C   UNL     1       1.956   2.156  19.232  0.00  0.00    +0.000 C 
ATOM     15  O   UNL     1       2.933   1.751  18.264  0.00  0.00    +0.000 OA
ATOM     16  C   UNL     1       3.879   2.801  18.012  0.00  0.00    +0.000 C 
ATOM     17  C   UNL     1       3.177   4.068  17.501  0.00  0.00    +0.000 C 
ENDBRANCH   9  12
ENDBRANCH   7   9
ENDBRANCH   1   3
BRANCH   1  19
ATOM     18  O   UNL     1      -0.738   8.510  21.763  0.00  0.00    +0.000 OA
ATOM     19  S   UNL     1      -0.068   9.683  22.298  0.00  0.00    +0.000 S 
ATOM     20  O   UNL     1       0.491   9.664  23.638  0.00  0.00    +0.000 OA
BRANCH  19  21
ATOM     21  C   UNL     1      -1.238  11.030  22.213  0.00  0.00    +0.000 A 
ATOM     22  C   UNL     1      -1.370  11.708  21.005  0.00  0.00    +0.000 A 
ATOM     23  C   UNL     1      -2.153  12.854  20.952  0.00  0.00    +0.000 A 
ATOM     24  C   UNL     1      -2.905  13.250  22.061  0.00  0.00    +0.000 A 
ATOM     25  C   UNL     1      -3.695  14.401  22.005  0.00  0.00    +0.000 A 
ATOM     26  C   UNL     1      -4.751  14.560  22.894  0.00  0.00    +0.000 A 
ATOM     27  C   UNL     1      -4.899  13.672  23.955  0.00  0.00    +0.000 A 
ATOM     28  C   UNL     1      -3.933  12.684  24.176  0.00  0.00    +0.000 A 
ATOM     29  C   UNL     1      -2.946  12.431  23.209  0.00  0.00    +0.000 A 
ATOM     30  C   UNL     1      -2.026  11.371  23.318  0.00  0.00    +0.000 A 
ENDBRANCH  19  21
ENDBRANCH   1  19
TORSDOF 5
ENDMDL
MODEL 9
REMARK VINA RESULT:      -8.2      3.126      4.549
REMARK  Name = 
REMARK  5 active torsions:
REMARK  status: ('A' for Active; 'I' for Inactive)
REMARK    1  A    between atoms: S_2  and  N_4
REMARK    2  A    between atoms: S_2  and  C_20
REMARK    3  A    between atoms: N_4  and  C_5
REMARK    4  A    between atoms: C_9  and  S_10
REMARK    5  A    between atoms: S_10  and  N_13
REMARK                            x       y       z     vdW  Elec       q    Type
REMARK                         _______ _______ _______ _____ _____    ______ ____
ROOT
ATOM      1  N   UNL     1       1.683   8.630  19.791  0.00  0.00    +0.000 N 
ATOM      2  H   UNL     1       1.262   9.131  20.573  0.00  0.00    +0.000 HD
ENDROOT
BRANCH   1   3
ATOM      3  C   UNL     1       2.001   7.257  19.921  0.00  0.00    +0.000 A 
ATOM      4  C   UNL     1       1.240   6.421  20.735  0.00  0.00    +0.000 A 
ATOM      5  C   UNL     1       1.588   5.081  20.892  0.00  0.00    +0.000 A 
ATOM      6  C   UNL     1       2.705   4.575  20.231  0.00  0.00    +0.000 A 
ATOM      7  C   UNL     1       3.460   5.417  19.402  0.00  0.00    +0.000 A 
ATOM      8  C   UNL     1       3.116   6.762  19.244  0.00  0.00    +0.000 A 
BRANCH   7   9
ATOM      9  S   UNL     1       4.914   4.783  18.589  0.00  0.00    +0.000 S 
ATOM     10  O   UNL     1       6.039   5.117  19.438  0.00  0.00    +0.000 OA
ATOM     11  O   UNL     1       4.638   3.397  18.241  0.00  0.00    +0.000 OA
BRANCH   9  12
ATOM     12  N   UNL     1       5.028   5.667  17.155  0.00  0.00    +0.000 NA
ATOM     13  C   UNL     1       5.293   4.925  15.885  0.00  0.00    +0.000 C 
ATOM     14  C   UNL     1       6.781   4.591  15.714  0.00  0.00    +0.000 C 
ATOM     15  O   UNL     1       7.597   5.767  15.790  0.00  0.00    +0.000 OA
ATOM     16  C   UNL     1       7.411   6.446  17.042  0.00  0.00    +0.000 C 
ATOM     17  C   UNL     1       5.944   6.852  17.239  0.00  0.00    +0.000 C 
ENDBRANCH   9  12
ENDBRANCH   7   9
ENDBRANCH   1   3
BRANCH   1  19
ATOM     18  O   UNL     1       2.512  10.371  18.165  0.00  0.00    +0.000 OA
ATOM     19  S   UNL     1       1.508   9.327  18.286  0.00  0.00    +0.000 S 
ATOM     20  O   UNL     1       1.396   8.294  17.272  0.00  0.00    +0.000 OA
BRANCH  19  21
ATOM     21  C   UNL     1      -0.075  10.144  18.411  0.00  0.00    +0.000 A 
ATOM     22  C   UNL     1      -0.221  11.146  19.365  0.00  0.00    +0.000 A 
ATOM     23  C   UNL     1      -1.479  11.689  19.592  0.00  0.00    +0.000 A 
ATOM     24  C   UNL     1      -2.561  11.330  18.783  0.00  0.00    +0.000 A 
ATOM     25  C   UNL     1      -3.826  11.879  19.010  0.00  0.00    +0.000 A 
ATOM     26  C   UNL     1      -4.771  11.888  17.991  0.00  0.00    +0.000 A 
ATOM     27  C   UNL     1      -4.526  11.180  16.819  0.00  0.00    +0.000 A 
ATOM     28  C   UNL     1      -3.376  10.390  16.709  0.00  0.00    +0.000 A 
ATOM     29  C   UNL     1      -2.357  10.487  17.671  0.00  0.00    +0.000 A 
ATOM     30  C   UNL     1      -1.128   9.812  17.550  0.00  0.00    +0.000 A 
ENDBRANCH  19  21
ENDBRANCH   1  19
TORSDOF 5
ENDMDL
