MODEL 1
REMARK VINA RESULT:      -8.6      0.000      0.000
REMARK  Name = 
REMARK  6 active torsions:
REMARK  status: ('A' for Active; 'I' for Inactive)
REMARK    1  A    between atoms: N_3  and  C_4
REMARK    2  A    between atoms: C_4  and  C_5
REMARK    3  A    between atoms: C_5  and  C_6
REMARK    4  A    between atoms: N_11  and  C_12
REMARK    5  A    between atoms: C_16  and  C_17
REMARK    6  A    between atoms: C_17  and  N_18
REMARK                            x       y       z     vdW  Elec       q    Type
REMARK                         _______ _______ _______ _____ _____    ______ ____
ROOT
ATOM      1  C   UNL     1       7.545   7.763  17.805  0.00  0.00    +0.000 A 
ATOM      2  C   UNL     1       8.197   6.957  18.749  0.00  0.00    +0.000 A 
ATOM      3  C   UNL     1       7.888   5.604  18.862  0.00  0.00    +0.000 A 
ATOM      4  C   UNL     1       6.883   5.043  18.080  0.00  0.00    +0.000 A 
ATOM      5  C   UNL     1       6.142   5.849  17.204  0.00  0.00    +0.000 A 
ATOM      6  C   UNL     1       6.512   7.198  17.041  0.00  0.00    +0.000 A 
ENDROOT
BRANCH   1  10
ATOM      7  O   UNL     1       9.255   9.579  19.428  0.00  0.00    +0.000 OA
ATOM      8  C   UNL     1       8.676   9.913  18.398  0.00  0.00    +0.000 C 
ATOM      9  N   UNL     1       8.775  11.201  17.905  0.00  0.00    +0.000 N 
ATOM     10  N   UNL     1       7.875   9.123  17.597  0.00  0.00    +0.000 N 
ATOM     11  H   UNL     1       7.956  11.520  17.411  0.00  0.00    +0.000 HD
ATOM     12  H   UNL     1       7.602   9.519  16.711  0.00  0.00    +0.000 HD
BRANCH   9  13
ATOM     13  C   UNL     1       9.494  12.198  18.693  0.00  0.00    +0.000 C 
BRANCH  13  14
ATOM     14  C   UNL     1      10.719  12.731  17.954  0.00  0.00    +0.000 C 
BRANCH  14  15
ATOM     15  C   UNL     1      10.677  14.213  17.714  0.00  0.00    +0.000 A 
ATOM     16  C   UNL     1      11.735  14.977  17.114  0.00  0.00    +0.000 A 
ATOM     17  C   UNL     1      11.424  16.311  16.991  0.00  0.00    +0.000 A 
ATOM     18  S   UNL     1       9.864  16.666  17.589  0.00  0.00    +0.000 S 
ATOM     19  C   UNL     1       9.602  15.029  18.014  0.00  0.00    +0.000 A 
ENDBRANCH  14  15
ENDBRANCH  13  14
ENDBRANCH   9  13
ENDBRANCH   1  10
BRANCH   5  20
ATOM     20  C   UNL     1       4.939   5.269  16.491  0.00  0.00    +0.000 C 
BRANCH  20  21
ATOM     21  N   UNL     1       3.946   4.739  17.384  0.00  0.00    +0.000 N 
ATOM     22  N   UNL     1       3.725   3.382  17.565  0.00  0.00    +0.000 NA
ATOM     23  C   UNL     1       2.835   3.348  18.509  0.00  0.00    +0.000 A 
ATOM     24  C   UNL     1       2.216   2.153  19.122  0.00  0.00    +0.000 A 
ATOM     25  C   UNL     1       1.364   2.344  20.145  0.00  0.00    +0.000 A 
ATOM     26  C   UNL     1       1.053   3.678  20.630  0.00  0.00    +0.000 A 
ATOM     27  C   UNL     1       1.584   4.751  20.026  0.00  0.00    +0.000 A 
ATOM     28  N   UNL     1       2.445   4.561  18.981  0.00  0.00    +0.000 N 
ATOM     29  C   UNL     1       3.138   5.495  18.249  0.00  0.00    +0.000 A 
ATOM     30  O   UNL     1       3.072   6.713  18.329  0.00  0.00    +0.000 OA
ENDBRANCH  20  21
ENDBRANCH   5  20
TORSDOF 6
ENDMDL
MODEL 2
REMARK VINA RESULT:      -8.5      6.973     10.123
REMARK  Name = 
REMARK  6 active torsions:
REMARK  status: ('A' for Active; 'I' for Inactive)
REMARK    1  A    between atoms: N_3  and  C_4
REMARK    2  A    between atoms: C_4  and  C_5
REMARK    3  A    between atoms: C_5  and  C_6
REMARK    4  A    between atoms: N_11  and  C_12
REMARK    5  A    between atoms: C_16  and  C_17
REMARK    6  A    between atoms: C_17  and  N_18
REMARK                            x       y       z     vdW  Elec       q    Type
REMARK                         _______ _______ _______ _____ _____    ______ ____
ROOT
ATOM      1  C   UNL     1      -0.099  10.041  18.599  0.00  0.00    +0.000 A 
ATOM      2  C   UNL     1      -0.203   9.801  19.976  0.00  0.00    +0.000 A 
ATOM      3  C   UNL     1       0.781   9.078  20.647  0.00  0.00    +0.000 A 
ATOM      4  C   UNL     1       1.852   8.531  19.949  0.00  0.00    +0.000 A 
ATOM      5  C   UNL     1       1.926   8.665  18.555  0.00  0.00    +0.000 A 
ATOM      6  C   UNL     1       0.969   9.461  17.896  0.00  0.00    +0.000 A 
ENDROOT
BRANCH   1  10
ATOM      7  O   UNL     1      -2.909   9.447  17.824  0.00  0.00    +0.000 OA
ATOM      8  C   UNL     1      -2.325  10.491  17.553  0.00  0.00    +0.000 C 
ATOM      9  N   UNL     1      -2.948  11.498  16.839  0.00  0.00    +0.000 N 
ATOM     10  N   UNL     1      -1.029  10.833  17.885  0.00  0.00    +0.000 N 
ATOM     11  H   UNL     1      -2.328  12.042  16.261  0.00  0.00    +0.000 HD
ATOM     12  H   UNL     1      -0.761  11.789  17.711  0.00  0.00    +0.000 HD
BRANCH   9  13
ATOM     13  C   UNL     1      -4.288  11.254  16.310  0.00  0.00    +0.000 C 
BRANCH  13  14
ATOM     14  C   UNL     1      -5.307  12.247  16.865  0.00  0.00    +0.000 C 
BRANCH  14  15
ATOM     15  C   UNL     1      -5.814  11.885  18.232  0.00  0.00    +0.000 A 
ATOM     16  C   UNL     1      -5.359  12.476  19.459  0.00  0.00    +0.000 A 
ATOM     17  C   UNL     1      -6.010  11.978  20.563  0.00  0.00    +0.000 A 
ATOM     18  S   UNL     1      -7.174  10.800  20.147  0.00  0.00    +0.000 S 
ATOM     19  C   UNL     1      -6.808  10.956  18.482  0.00  0.00    +0.000 A 
ENDBRANCH  14  15
ENDBRANCH  13  14
ENDBRANCH   9  13
ENDBRANCH   1  10
BRANCH   5  20
ATOM     20  C   UNL     1       2.996   7.920  17.787  0.00  0.00    +0.000 C 
BRANCH  20  21
ATOM     21  N   UNL     1       2.962   6.497  17.993  0.00  0.00    +0.000 N 
ATOM     22  N   UNL     1       1.789   5.761  18.053  0.00  0.00    +0.000 NA
ATOM     23  C   UNL     1       2.210   4.536  18.146  0.00  0.00    +0.000 A 
ATOM     24  C   UNL     1       1.394   3.306  18.240  0.00  0.00    +0.000 A 
ATOM     25  C   UNL     1       2.040   2.127  18.254  0.00  0.00    +0.000 A 
ATOM     26  C   UNL     1       3.489   2.057  18.185  0.00  0.00    +0.000 A 
ATOM     27  C   UNL     1       4.212   3.186  18.153  0.00  0.00    +0.000 A 
ATOM     28  N   UNL     1       3.560   4.387  18.147  0.00  0.00    +0.000 N 
ATOM     29  C   UNL     1       4.084   5.656  18.071  0.00  0.00    +0.000 A 
ATOM     30  O   UNL     1       5.260   5.985  18.068  0.00  0.00    +0.000 OA
ENDBRANCH  20  21
ENDBRANCH   5  20
TORSDOF 6
ENDMDL
MODEL 3
REMARK VINA RESULT:      -8.4      2.441      3.550
REMARK  Name = 
REMARK  6 active torsions:
REMARK  status: ('A' for Active; 'I' for Inactive)
REMARK    1  A    between atoms: N_3  and  C_4
REMARK    2  A    between atoms: C_4  and  C_5
REMARK    3  A    between atoms: C_5  and  C_6
REMARK    4  A    between atoms: N_11  and  C_12
REMARK    5  A    between atoms: C_16  and  C_17
REMARK    6  A    between atoms: C_17  and  N_18
REMARK                            x       y       z     vdW  Elec       q    Type
REMARK                         _______ _______ _______ _____ _____    ______ ____
ROOT
ATOM      1  C   UNL     1       6.830   5.747  17.535  0.00  0.00    +0.000 A 
ATOM      2  C   UNL     1       7.237   4.828  16.558  0.00  0.00    +0.000 A 
ATOM      3  C   UNL     1       6.310   3.998  15.932  0.00  0.00    +0.000 A 
ATOM      4  C   UNL     1       4.972   4.026  16.311  0.00  0.00    +0.000 A 
ATOM      5  C   UNL     1       4.554   4.859  17.358  0.00  0.00    +0.000 A 
ATOM      6  C   UNL     1       5.483   5.749  17.933  0.00  0.00    +0.000 A 
ENDROOT
BRANCH   1  10
ATOM      7  O   UNL     1       7.160   8.668  17.077  0.00  0.00    +0.000 OA
ATOM      8  C   UNL     1       7.821   8.016  17.879  0.00  0.00    +0.000 C 
ATOM      9  N   UNL     1       8.805   8.609  18.649  0.00  0.00    +0.000 N 
ATOM     10  N   UNL     1       7.717   6.665  18.144  0.00  0.00    +0.000 N 
ATOM     11  H   UNL     1       9.577   8.003  18.876  0.00  0.00    +0.000 HD
ATOM     12  H   UNL     1       8.236   6.325  18.939  0.00  0.00    +0.000 HD
BRANCH   9  13
ATOM     13  C   UNL     1       9.125  10.015  18.412  0.00  0.00    +0.000 C 
BRANCH  13  14
ATOM     14  C   UNL     1       9.725  10.677  19.650  0.00  0.00    +0.000 C 
BRANCH  14  15
ATOM     15  C   UNL     1      10.296  12.040  19.384  0.00  0.00    +0.000 A 
ATOM     16  C   UNL     1      11.451  12.588  20.038  0.00  0.00    +0.000 A 
ATOM     17  C   UNL     1      11.772  13.847  19.586  0.00  0.00    +0.000 A 
ATOM     18  S   UNL     1      10.699  14.387  18.373  0.00  0.00    +0.000 S 
ATOM     19  C   UNL     1       9.801  12.933  18.451  0.00  0.00    +0.000 A 
ENDBRANCH  14  15
ENDBRANCH  13  14
ENDBRANCH   9  13
ENDBRANCH   1  10
BRANCH   5  20
ATOM     20  C   UNL     1       3.137   4.754  17.880  0.00  0.00    +0.000 C 
BRANCH  20  21
ATOM     21  N   UNL     1       2.670   5.958  18.512  0.00  0.00    +0.000 N 
ATOM     22  N   UNL     1       2.408   7.132  17.823  0.00  0.00    +0.000 NA
ATOM     23  C   UNL     1       1.921   7.913  18.738  0.00  0.00    +0.000 A 
ATOM     24  C   UNL     1       1.457   9.308  18.580  0.00  0.00    +0.000 A 
ATOM     25  C   UNL     1       0.917   9.913  19.653  0.00  0.00    +0.000 A 
ATOM     26  C   UNL     1       0.797   9.227  20.928  0.00  0.00    +0.000 A 
ATOM     27  C   UNL     1       1.273   7.980  21.064  0.00  0.00    +0.000 A 
ATOM     28  N   UNL     1       1.829   7.364  19.978  0.00  0.00    +0.000 N 
ATOM     29  C   UNL     1       2.333   6.090  19.869  0.00  0.00    +0.000 A 
ATOM     30  O   UNL     1       2.460   5.253  20.750  0.00  0.00    +0.000 OA
ENDBRANCH  20  21
ENDBRANCH   5  20
TORSDOF 6
ENDMDL
MODEL 4
REMARK VINA RESULT:      -8.3      1.419      1.876
REMARK  Name = 
REMARK  6 active torsions:
REMARK  status: ('A' for Active; 'I' for Inactive)
REMARK    1  A    between atoms: N_3  and  C_4
REMARK    2  A    between atoms: C_4  and  C_5
REMARK    3  A    between atoms: C_5  and  C_6
REMARK    4  A    between atoms: N_11  and  C_12
REMARK    5  A    between atoms: C_16  and  C_17
REMARK    6  A    between atoms: C_17  and  N_18
REMARK                            x       y       z     vdW  Elec       q    Type
REMARK                         _______ _______ _______ _____ _____    ______ ____
ROOT
ATOM      1  C   UNL     1       7.691   7.779  17.820  0.00  0.00    +0.000 A 
ATOM      2  C   UNL     1       8.265   7.013  18.844  0.00  0.00    +0.000 A 
ATOM      3  C   UNL     1       7.944   5.665  18.989  0.00  0.00    +0.000 A 
ATOM      4  C   UNL     1       7.000   5.073  18.156  0.00  0.00    +0.000 A 
ATOM      5  C   UNL     1       6.332   5.841  17.192  0.00  0.00    +0.000 A 
ATOM      6  C   UNL     1       6.717   7.182  17.002  0.00  0.00    +0.000 A 
ENDROOT
BRANCH   1  10
ATOM      7  O   UNL     1       9.218   9.681  19.524  0.00  0.00    +0.000 OA
ATOM      8  C   UNL     1       8.752   9.961  18.424  0.00  0.00    +0.000 C 
ATOM      9  N   UNL     1       8.901  11.224  17.881  0.00  0.00    +0.000 N 
ATOM     10  N   UNL     1       8.040   9.129  17.582  0.00  0.00    +0.000 N 
ATOM     11  H   UNL     1       8.140  11.514  17.289  0.00  0.00    +0.000 HD
ATOM     12  H   UNL     1       7.862   9.480  16.654  0.00  0.00    +0.000 HD
BRANCH   9  13
ATOM     13  C   UNL     1       9.532  12.262  18.691  0.00  0.00    +0.000 C 
BRANCH  13  14
ATOM     14  C   UNL     1       9.322  13.653  18.097  0.00  0.00    +0.000 C 
BRANCH  14  15
ATOM     15  C   UNL     1       7.995  14.261  18.448  0.00  0.00    +0.000 A 
ATOM     16  C   UNL     1       6.846  14.279  17.586  0.00  0.00    +0.000 A 
ATOM     17  C   UNL     1       5.753  14.877  18.167  0.00  0.00    +0.000 A 
ATOM     18  S   UNL     1       6.086  15.423  19.751  0.00  0.00    +0.000 S 
ATOM     19  C   UNL     1       7.698  14.857  19.661  0.00  0.00    +0.000 A 
ENDBRANCH  14  15
ENDBRANCH  13  14
ENDBRANCH   9  13
ENDBRANCH   1  10
BRANCH   5  20
ATOM     20  C   UNL     1       5.185   5.233  16.413  0.00  0.00    +0.000 C 
BRANCH  20  21
ATOM     21  N   UNL     1       4.132   4.724  17.249  0.00  0.00    +0.000 N 
ATOM     22  N   UNL     1       3.871   3.373  17.413  0.00  0.00    +0.000 NA
ATOM     23  C   UNL     1       2.929   3.357  18.307  0.00  0.00    +0.000 A 
ATOM     24  C   UNL     1       2.251   2.176  18.882  0.00  0.00    +0.000 A 
ATOM     25  C   UNL     1       1.348   2.385  19.856  0.00  0.00    +0.000 A 
ATOM     26  C   UNL     1       1.042   3.725  20.328  0.00  0.00    +0.000 A 
ATOM     27  C   UNL     1       1.630   4.786  19.757  0.00  0.00    +0.000 A 
ATOM     28  N   UNL     1       2.542   4.578  18.760  0.00  0.00    +0.000 N 
ATOM     29  C   UNL     1       3.296   5.498  18.070  0.00  0.00    +0.000 A 
ATOM     30  O   UNL     1       3.254   6.716  18.151  0.00  0.00    +0.000 OA
ENDBRANCH  20  21
ENDBRANCH   5  20
TORSDOF 6
ENDMDL
MODEL 5
REMARK VINA RESULT:      -8.3      6.036      8.410
REMARK  Name = 
REMARK  6 active torsions:
REMARK  status: ('A' for Active; 'I' for Inactive)
REMARK    1  A    between atoms: N_3  and  C_4
REMARK    2  A    between atoms: C_4  and  C_5
REMARK    3  A    between atoms: C_5  and  C_6
REMARK    4  A    between atoms: N_11  and  C_12
REMARK    5  A    between atoms: C_16  and  C_17
REMARK    6  A    between atoms: C_17  and  N_18
REMARK                            x       y       z     vdW  Elec       q    Type
REMARK                         _______ _______ _______ _____ _____    ______ ____
ROOT
ATOM      1  C   UNL     1       2.552   6.134  18.580  0.00  0.00    +0.000 A 
ATOM      2  C   UNL     1       1.673   5.168  18.073  0.00  0.00    +0.000 A 
ATOM      3  C   UNL     1       2.153   3.948  17.601  0.00  0.00    +0.000 A 
ATOM      4  C   UNL     1       3.521   3.693  17.571  0.00  0.00    +0.000 A 
ATOM      5  C   UNL     1       4.429   4.682  17.974  0.00  0.00    +0.000 A 
ATOM      6  C   UNL     1       3.933   5.882  18.520  0.00  0.00    +0.000 A 
ENDROOT
BRANCH   1  10
ATOM      7  O   UNL     1       1.946   8.729  17.258  0.00  0.00    +0.000 OA
ATOM      8  C   UNL     1       1.851   8.531  18.466  0.00  0.00    +0.000 C 
ATOM      9  N   UNL     1       1.450   9.534  19.328  0.00  0.00    +0.000 N 
ATOM     10  N   UNL     1       2.111   7.355  19.142  0.00  0.00    +0.000 N 
ATOM     11  H   UNL     1       1.851   9.474  20.251  0.00  0.00    +0.000 HD
ATOM     12  H   UNL     1       1.839   7.329  20.112  0.00  0.00    +0.000 HD
BRANCH   9  13
ATOM     13  C   UNL     1       1.244  10.877  18.791  0.00  0.00    +0.000 C 
BRANCH  13  14
ATOM     14  C   UNL     1      -0.025  11.522  19.344  0.00  0.00    +0.000 C 
BRANCH  14  15
ATOM     15  C   UNL     1      -1.263  11.166  18.572  0.00  0.00    +0.000 A 
ATOM     16  C   UNL     1      -1.343  10.126  17.584  0.00  0.00    +0.000 A 
ATOM     17  C   UNL     1      -2.604   9.996  17.050  0.00  0.00    +0.000 A 
ATOM     18  S   UNL     1      -3.706  11.112  17.724  0.00  0.00    +0.000 S 
ATOM     19  C   UNL     1      -2.495  11.773  18.736  0.00  0.00    +0.000 A 
ENDBRANCH  14  15
ENDBRANCH  13  14
ENDBRANCH   9  13
ENDBRANCH   1  10
BRANCH   5  20
ATOM     20  C   UNL     1       5.913   4.463  17.772  0.00  0.00    +0.000 C 
BRANCH  20  21
ATOM     21  N   UNL     1       6.300   4.410  16.389  0.00  0.00    +0.000 N 
ATOM     22  N   UNL     1       5.796   3.485  15.487  0.00  0.00    +0.000 NA
ATOM     23  C   UNL     1       6.322   3.851  14.358  0.00  0.00    +0.000 A 
ATOM     24  C   UNL     1       6.135   3.226  13.032  0.00  0.00    +0.000 A 
ATOM     25  C   UNL     1       6.720   3.815  11.974  0.00  0.00    +0.000 A 
ATOM     26  C   UNL     1       7.516   5.022  12.125  0.00  0.00    +0.000 A 
ATOM     27  C   UNL     1       7.716   5.543  13.345  0.00  0.00    +0.000 A 
ATOM     28  N   UNL     1       7.129   4.942  14.423  0.00  0.00    +0.000 N 
ATOM     29  C   UNL     1       7.155   5.320  15.745  0.00  0.00    +0.000 A 
ATOM     30  O   UNL     1       7.777   6.241  16.252  0.00  0.00    +0.000 OA
ENDBRANCH  20  21
ENDBRANCH   5  20
TORSDOF 6
ENDMDL
MODEL 6
REMARK VINA RESULT:      -8.2      2.532      3.719
REMARK  Name = 
REMARK  6 active torsions:
REMARK  status: ('A' for Active; 'I' for Inactive)
REMARK    1  A    between atoms: N_3  and  C_4
REMARK    2  A    between atoms: C_4  and  C_5
REMARK    3  A    between atoms: C_5  and  C_6
REMARK    4  A    between atoms: N_11  and  C_12
REMARK    5  A    between atoms: C_16  and  C_17
REMARK    6  A    between atoms: C_17  and  N_18
REMARK                            x       y       z     vdW  Elec       q    Type
REMARK                         _______ _______ _______ _____ _____    ______ ____
ROOT
ATOM      1  C   UNL     1       6.398   6.513  16.798  0.00  0.00    +0.000 A 
ATOM      2  C   UNL     1       6.974   5.406  16.158  0.00  0.00    +0.000 A 
ATOM      3  C   UNL     1       6.228   4.253  15.923  0.00  0.00    +0.000 A 
ATOM      4  C   UNL     1       4.915   4.160  16.376  0.00  0.00    +0.000 A 
ATOM      5  C   UNL     1       4.349   5.210  17.111  0.00  0.00    +0.000 A 
ATOM      6  C   UNL     1       5.083   6.400  17.277  0.00  0.00    +0.000 A 
ENDROOT
BRANCH   1  10
ATOM      7  O   UNL     1       8.356   7.283  18.901  0.00  0.00    +0.000 OA
ATOM      8  C   UNL     1       7.985   8.027  17.998  0.00  0.00    +0.000 C 
ATOM      9  N   UNL     1       8.460   9.321  17.893  0.00  0.00    +0.000 N 
ATOM     10  N   UNL     1       7.087   7.733  16.990  0.00  0.00    +0.000 N 
ATOM     11  H   UNL     1       7.803   9.973  17.495  0.00  0.00    +0.000 HD
ATOM     12  H   UNL     1       7.012   8.411  16.249  0.00  0.00    +0.000 HD
BRANCH   9  13
ATOM     13  C   UNL     1       9.334   9.832  18.946  0.00  0.00    +0.000 C 
BRANCH  13  14
ATOM     14  C   UNL     1       9.948  11.179  18.570  0.00  0.00    +0.000 C 
BRANCH  14  15
ATOM     15  C   UNL     1       9.688  12.259  19.580  0.00  0.00    +0.000 A 
ATOM     16  C   UNL     1      10.037  12.182  20.971  0.00  0.00    +0.000 A 
ATOM     17  C   UNL     1       9.707  13.323  21.667  0.00  0.00    +0.000 A 
ATOM     18  S   UNL     1       8.979  14.498  20.665  0.00  0.00    +0.000 S 
ATOM     19  C   UNL     1       9.105  13.481  19.295  0.00  0.00    +0.000 A 
ENDBRANCH  14  15
ENDBRANCH  13  14
ENDBRANCH   9  13
ENDBRANCH   1  10
BRANCH   5  20
ATOM     20  C   UNL     1       2.988   5.029  17.749  0.00  0.00    +0.000 C 
BRANCH  20  21
ATOM     21  N   UNL     1       2.544   6.179  18.487  0.00  0.00    +0.000 N 
ATOM     22  N   UNL     1       2.231   7.394  17.896  0.00  0.00    +0.000 NA
ATOM     23  C   UNL     1       1.789   8.104  18.889  0.00  0.00    +0.000 A 
ATOM     24  C   UNL     1       1.302   9.499  18.854  0.00  0.00    +0.000 A 
ATOM     25  C   UNL     1       0.818  10.022  19.994  0.00  0.00    +0.000 A 
ATOM     26  C   UNL     1       0.778   9.249  21.224  0.00  0.00    +0.000 A 
ATOM     27  C   UNL     1       1.273   8.002  21.246  0.00  0.00    +0.000 A 
ATOM     28  N   UNL     1       1.774   7.470  20.091  0.00  0.00    +0.000 N 
ATOM     29  C   UNL     1       2.284   6.214  19.867  0.00  0.00    +0.000 A 
ATOM     30  O   UNL     1       2.469   5.321  20.680  0.00  0.00    +0.000 OA
ENDBRANCH  20  21
ENDBRANCH   5  20
TORSDOF 6
ENDMDL
MODEL 7
REMARK VINA RESULT:      -8.1      0.989      1.202
REMARK  Name = 
REMARK  6 active torsions:
REMARK  status: ('A' for Active; 'I' for Inactive)
REMARK    1  A    between atoms: N_3  and  C_4
REMARK    2  A    between atoms: C_4  and  C_5
REMARK    3  A    between atoms: C_5  and  C_6
REMARK    4  A    between atoms: N_11  and  C_12
REMARK    5  A    between atoms: C_16  and  C_17
REMARK    6  A    between atoms: C_17  and  N_18
REMARK                            x       y       z     vdW  Elec       q    Type
REMARK                         _______ _______ _______ _____ _____    ______ ____
ROOT
ATOM      1  C   UNL     1       7.613   7.724  17.736  0.00  0.00    +0.000 A 
ATOM      2  C   UNL     1       8.220   6.941  18.727  0.00  0.00    +0.000 A 
ATOM      3  C   UNL     1       7.886   5.597  18.876  0.00  0.00    +0.000 A 
ATOM      4  C   UNL     1       6.897   5.026  18.081  0.00  0.00    +0.000 A 
ATOM      5  C   UNL     1       6.199   5.812  17.154  0.00  0.00    +0.000 A 
ATOM      6  C   UNL     1       6.595   7.148  16.958  0.00  0.00    +0.000 A 
ENDROOT
BRANCH   1  10
ATOM      7  O   UNL     1       9.123   9.632  19.448  0.00  0.00    +0.000 OA
ATOM      8  C   UNL     1       8.674   9.906  18.339  0.00  0.00    +0.000 C 
ATOM      9  N   UNL     1       8.837  11.164  17.789  0.00  0.00    +0.000 N 
ATOM     10  N   UNL     1       7.972   9.071  17.493  0.00  0.00    +0.000 N 
ATOM     11  H   UNL     1       8.085  11.453  17.184  0.00  0.00    +0.000 HD
ATOM     12  H   UNL     1       7.809   9.415  16.560  0.00  0.00    +0.000 HD
BRANCH   9  13
ATOM     13  C   UNL     1       9.460  12.206  18.601  0.00  0.00    +0.000 C 
BRANCH  13  14
ATOM     14  C   UNL     1       9.749  13.465  17.786  0.00  0.00    +0.000 C 
BRANCH  14  15
ATOM     15  C   UNL     1       9.315  14.732  18.466  0.00  0.00    +0.000 A 
ATOM     16  C   UNL     1       8.514  15.757  17.856  0.00  0.00    +0.000 A 
ATOM     17  C   UNL     1       8.241  16.798  18.712  0.00  0.00    +0.000 A 
ATOM     18  S   UNL     1       8.936  16.563  20.254  0.00  0.00    +0.000 S 
ATOM     19  C   UNL     1       9.604  15.061  19.777  0.00  0.00    +0.000 A 
ENDBRANCH  14  15
ENDBRANCH  13  14
ENDBRANCH   9  13
ENDBRANCH   1  10
BRANCH   5  20
ATOM     20  C   UNL     1       5.010   5.227  16.422  0.00  0.00    +0.000 C 
BRANCH  20  21
ATOM     21  N   UNL     1       3.985   4.732  17.300  0.00  0.00    +0.000 N 
ATOM     22  N   UNL     1       3.683   3.386  17.442  0.00  0.00    +0.000 NA
ATOM     23  C   UNL     1       2.791   3.378  18.385  0.00  0.00    +0.000 A 
ATOM     24  C   UNL     1       2.101   2.206  18.964  0.00  0.00    +0.000 A 
ATOM     25  C   UNL     1       1.260   2.419  19.991  0.00  0.00    +0.000 A 
ATOM     26  C   UNL     1       1.027   3.755  20.514  0.00  0.00    +0.000 A 
ATOM     27  C   UNL     1       1.623   4.811  19.939  0.00  0.00    +0.000 A 
ATOM     28  N   UNL     1       2.473   4.599  18.890  0.00  0.00    +0.000 N 
ATOM     29  C   UNL     1       3.221   5.511  18.185  0.00  0.00    +0.000 A 
ATOM     30  O   UNL     1       3.228   6.727  18.299  0.00  0.00    +0.000 OA
ENDBRANCH  20  21
ENDBRANCH   5  20
TORSDOF 6
ENDMDL
MODEL 8
REMARK VINA RESULT:      -8.1      1.224      1.544
REMARK  Name = 
REMARK  6 active torsions:
REMARK  status: ('A' for Active; 'I' for Inactive)
REMARK    1  A    between atoms: N_3  and  C_4
REMARK    2  A    between atoms: C_4  and  C_5
REMARK    3  A    between atoms: C_5  and  C_6
REMARK    4  A    between atoms: N_11  and  C_12
REMARK    5  A    between atoms: C_16  and  C_17
REMARK    6  A    between atoms: C_17  and  N_18
REMARK                            x       y       z     vdW  Elec       q    Type
REMARK                         _______ _______ _______ _____ _____    ______ ____
ROOT
ATOM      1  C   UNL     1       7.487   7.784  17.821  0.00  0.00    +0.000 A 
ATOM      2  C   UNL     1       8.215   6.918  18.648  0.00  0.00    +0.000 A 
ATOM      3  C   UNL     1       7.836   5.585  18.791  0.00  0.00    +0.000 A 
ATOM      4  C   UNL     1       6.691   5.107  18.162  0.00  0.00    +0.000 A 
ATOM      5  C   UNL     1       5.885   5.977  17.414  0.00  0.00    +0.000 A 
ATOM      6  C   UNL     1       6.316   7.303  17.213  0.00  0.00    +0.000 A 
ENDROOT
BRANCH   1  10
ATOM      7  O   UNL     1       9.259   9.569  19.410  0.00  0.00    +0.000 OA
ATOM      8  C   UNL     1       8.701   9.900  18.368  0.00  0.00    +0.000 C 
ATOM      9  N   UNL     1       8.855  11.170  17.843  0.00  0.00    +0.000 N 
ATOM     10  N   UNL     1       7.873   9.123  17.581  0.00  0.00    +0.000 N 
ATOM     11  H   UNL     1       8.053  11.509  17.336  0.00  0.00    +0.000 HD
ATOM     12  H   UNL     1       7.621   9.507  16.684  0.00  0.00    +0.000 HD
BRANCH   9  13
ATOM     13  C   UNL     1       9.609  12.157  18.611  0.00  0.00    +0.000 C 
BRANCH  13  14
ATOM     14  C   UNL     1      10.990  12.410  18.011  0.00  0.00    +0.000 C 
BRANCH  14  15
ATOM     15  C   UNL     1      11.427  13.844  18.094  0.00  0.00    +0.000 A 
ATOM     16  C   UNL     1      12.000  14.461  19.258  0.00  0.00    +0.000 A 
ATOM     17  C   UNL     1      12.333  15.779  19.052  0.00  0.00    +0.000 A 
ATOM     18  S   UNL     1      11.968  16.294  17.466  0.00  0.00    +0.000 S 
ATOM     19  C   UNL     1      11.363  14.749  17.050  0.00  0.00    +0.000 A 
ENDBRANCH  14  15
ENDBRANCH  13  14
ENDBRANCH   9  13
ENDBRANCH   1  10
BRANCH   5  20
ATOM     20  C   UNL     1       4.553   5.492  16.882  0.00  0.00    +0.000 C 
BRANCH  20  21
ATOM     21  N   UNL     1       3.762   4.802  17.864  0.00  0.00    +0.000 N 
ATOM     22  N   UNL     1       3.766   5.122  19.212  0.00  0.00    +0.000 NA
ATOM     23  C   UNL     1       2.857   4.339  19.708  0.00  0.00    +0.000 A 
ATOM     24  C   UNL     1       2.420   4.242  21.117  0.00  0.00    +0.000 A 
ATOM     25  C   UNL     1       1.404   3.409  21.401  0.00  0.00    +0.000 A 
ATOM     26  C   UNL     1       0.757   2.623  20.364  0.00  0.00    +0.000 A 
ATOM     27  C   UNL     1       1.203   2.687  19.101  0.00  0.00    +0.000 A 
ATOM     28  N   UNL     1       2.241   3.527  18.809  0.00  0.00    +0.000 N 
ATOM     29  C   UNL     1       2.828   3.789  17.594  0.00  0.00    +0.000 A 
ATOM     30  O   UNL     1       2.591   3.264  16.516  0.00  0.00    +0.000 OA
ENDBRANCH  20  21
ENDBRANCH   5  20
TORSDOF 6
ENDMDL
MODEL 9
REMARK VINA RESULT:      -8.0      2.827      3.912
REMARK  Name = 
REMARK  6 active torsions:
REMARK  status: ('A' for Active; 'I' for Inactive)
REMARK    1  A    between atoms: N_3  and  C_4
REMARK    2  A    between atoms: C_4  and  C_5
REMARK    3  A    between atoms: C_5  and  C_6
REMARK    4  A    between atoms: N_11  and  C_12
REMARK    5  A    between atoms: C_16  and  C_17
REMARK    6  A    between atoms: C_17  and  N_18
REMARK                            x       y       z     vdW  Elec       q    Type
REMARK                         _______ _______ _______ _____ _____    ______ ____
ROOT
ATOM      1  C   UNL     1       6.940   6.095  17.478  0.00  0.00    +0.000 A 
ATOM      2  C   UNL     1       7.380   5.224  16.472  0.00  0.00    +0.000 A 
ATOM      3  C   UNL     1       6.475   4.426  15.776  0.00  0.00    +0.000 A 
ATOM      4  C   UNL     1       5.125   4.436  16.113  0.00  0.00    +0.000 A 
ATOM      5  C   UNL     1       4.673   5.217  17.185  0.00  0.00    +0.000 A 
ATOM      6  C   UNL     1       5.581   6.078  17.832  0.00  0.00    +0.000 A 
ENDROOT
BRANCH   1  10
ATOM      7  O   UNL     1       7.209   9.048  17.247  0.00  0.00    +0.000 OA
ATOM      8  C   UNL     1       7.882   8.351  18.000  0.00  0.00    +0.000 C 
ATOM      9  N   UNL     1       8.851   8.904  18.816  0.00  0.00    +0.000 N 
ATOM     10  N   UNL     1       7.806   6.982  18.160  0.00  0.00    +0.000 N 
ATOM     11  H   UNL     1       9.635   8.299  18.999  0.00  0.00    +0.000 HD
ATOM     12  H   UNL     1       8.330   6.593  18.928  0.00  0.00    +0.000 HD
BRANCH   9  13
ATOM     13  C   UNL     1       9.141  10.330  18.689  0.00  0.00    +0.000 C 
BRANCH  13  14
ATOM     14  C   UNL     1      10.265  10.767  19.627  0.00  0.00    +0.000 C 
BRANCH  14  15
ATOM     15  C   UNL     1       9.854  11.835  20.599  0.00  0.00    +0.000 A 
ATOM     16  C   UNL     1      10.395  13.165  20.634  0.00  0.00    +0.000 A 
ATOM     17  C   UNL     1       9.822  13.948  21.609  0.00  0.00    +0.000 A 
ATOM     18  S   UNL     1       8.629  13.103  22.492  0.00  0.00    +0.000 S 
ATOM     19  C   UNL     1       8.878  11.685  21.567  0.00  0.00    +0.000 A 
ENDBRANCH  14  15
ENDBRANCH  13  14
ENDBRANCH   9  13
ENDBRANCH   1  10
BRANCH   5  20
ATOM     20  C   UNL     1       3.240   5.087  17.655  0.00  0.00    +0.000 C 
BRANCH  20  21
ATOM     21  N   UNL     1       2.757   6.252  18.346  0.00  0.00    +0.000 N 
ATOM     22  N   UNL     1       2.438   7.442  17.710  0.00  0.00    +0.000 NA
ATOM     23  C   UNL     1       1.958   8.173  18.668  0.00  0.00    +0.000 A 
ATOM     24  C   UNL     1       1.448   9.558  18.577  0.00  0.00    +0.000 A 
ATOM     25  C   UNL     1       0.924  10.106  19.687  0.00  0.00    +0.000 A 
ATOM     26  C   UNL     1       0.864   9.370  20.939  0.00  0.00    +0.000 A 
ATOM     27  C   UNL     1       1.380   8.134  21.013  0.00  0.00    +0.000 A 
ATOM     28  N   UNL     1       1.921   7.577  19.888  0.00  0.00    +0.000 N 
ATOM     29  C   UNL     1       2.459   6.323  19.716  0.00  0.00    +0.000 A 
ATOM     30  O   UNL     1       2.637   5.459  20.562  0.00  0.00    +0.000 OA
ENDBRANCH  20  21
ENDBRANCH   5  20
TORSDOF 6
ENDMDL
