MODEL 1
REMARK VINA RESULT:      -9.1      0.000      0.000
REMARK  Name = 
REMARK  6 active torsions:
REMARK  status: ('A' for Active; 'I' for Inactive)
REMARK    1  A    between atoms: C_2  and  C_3
REMARK    2  A    between atoms: C_3  and  N_4
REMARK    3  A    between atoms: C_8  and  C_9
REMARK    4  A    between atoms: C_9  and  C_10
REMARK    5  A    between atoms: N_21  and  C_22
REMARK    6  A    between atoms: C_22  and  C_23
REMARK                            x       y       z     vdW  Elec       q    Type
REMARK                         _______ _______ _______ _____ _____    ______ ____
ROOT
ATOM      1  N   UNL     1       3.484   3.367  19.618  0.00  0.00    +0.000 N 
ATOM      2  C   UNL     1       3.163   2.327  18.803  0.00  0.00    +0.000 C 
ATOM      3  O   UNL     1       2.280   1.503  18.970  0.00  0.00    +0.000 OA
ATOM      4  N   UNL     1       3.990   2.365  17.709  0.00  0.00    +0.000 N 
ATOM      5  C   UNL     1       4.849   3.527  17.703  0.00  0.00    +0.000 C 
ATOM      6  C   UNL     1       4.490   4.113  19.072  0.00  0.00    +0.000 C 
ATOM      7  O   UNL     1       4.986   5.121  19.558  0.00  0.00    +0.000 OA
ATOM      8  H   UNL     1       3.935   1.674  16.970  0.00  0.00    +0.000 HD
ENDROOT
BRANCH   1   9
ATOM      9  C   UNL     1       2.870   3.605  20.906  0.00  0.00    +0.000 C 
BRANCH   9  11
ATOM     10  O   UNL     1       0.602   4.372  20.443  0.00  0.00    +0.000 OA
ATOM     11  C   UNL     1       1.748   4.644  20.794  0.00  0.00    +0.000 C 
ATOM     12  N   UNL     1       2.149   5.924  21.129  0.00  0.00    +0.000 N 
ATOM     13  H   UNL     1       3.095   6.095  21.441  0.00  0.00    +0.000 HD
BRANCH  12  14
ATOM     14  C   UNL     1       1.253   7.063  21.079  0.00  0.00    +0.000 C 
BRANCH  14  15
ATOM     15  C   UNL     1       1.548   7.924  19.881  0.00  0.00    +0.000 A 
ATOM     16  C   UNL     1       2.401   7.474  18.863  0.00  0.00    +0.000 A 
ATOM     17  C   UNL     1       2.708   8.302  17.779  0.00  0.00    +0.000 A 
ATOM     18  C   UNL     1       2.175   9.588  17.703  0.00  0.00    +0.000 A 
ATOM     19  C   UNL     1       1.322  10.043  18.706  0.00  0.00    +0.000 A 
ATOM     20  C   UNL     1       1.016   9.212  19.780  0.00  0.00    +0.000 A 
ATOM     21  F   UNL     1       0.201   9.674  20.741  0.00  0.00    +0.000 F 
ENDBRANCH  14  15
ENDBRANCH  12  14
ENDBRANCH   9  11
ENDBRANCH   1   9
BRANCH   5  22
ATOM     22  C   UNL     1       4.510   4.532  16.596  0.00  0.00    +0.000 C 
BRANCH  22  23
ATOM     23  C   UNL     1       5.688   4.868  15.728  0.00  0.00    +0.000 A 
ATOM     24  C   UNL     1       6.792   5.620  16.082  0.00  0.00    +0.000 A 
ATOM     25  N   UNL     1       7.660   5.637  15.023  0.00  0.00    +0.000 N 
ATOM     26  C   UNL     1       7.149   4.909  13.975  0.00  0.00    +0.000 A 
ATOM     27  C   UNL     1       7.699   4.625  12.719  0.00  0.00    +0.000 A 
ATOM     28  C   UNL     1       6.935   3.854  11.836  0.00  0.00    +0.000 A 
ATOM     29  C   UNL     1       5.664   3.409  12.190  0.00  0.00    +0.000 A 
ATOM     30  C   UNL     1       5.129   3.707  13.448  0.00  0.00    +0.000 A 
ATOM     31  C   UNL     1       5.891   4.454  14.370  0.00  0.00    +0.000 A 
ATOM     32  H   UNL     1       8.560   6.099  15.013  0.00  0.00    +0.000 HD
ENDBRANCH  22  23
ENDBRANCH   5  22
TORSDOF 6
ENDMDL
MODEL 2
REMARK VINA RESULT:      -8.4      4.709      7.222
REMARK  Name = 
REMARK  6 active torsions:
REMARK  status: ('A' for Active; 'I' for Inactive)
REMARK    1  A    between atoms: C_2  and  C_3
REMARK    2  A    between atoms: C_3  and  N_4
REMARK    3  A    between atoms: C_8  and  C_9
REMARK    4  A    between atoms: C_9  and  C_10
REMARK    5  A    between atoms: N_21  and  C_22
REMARK    6  A    between atoms: C_22  and  C_23
REMARK                            x       y       z     vdW  Elec       q    Type
REMARK                         _______ _______ _______ _____ _____    ______ ____
ROOT
ATOM      1  N   UNL     1       7.333   5.566  17.996  0.00  0.00    +0.000 N 
ATOM      2  C   UNL     1       6.709   4.870  18.983  0.00  0.00    +0.000 C 
ATOM      3  O   UNL     1       6.867   4.992  20.186  0.00  0.00    +0.000 OA
ATOM      4  N   UNL     1       5.820   4.001  18.402  0.00  0.00    +0.000 N 
ATOM      5  C   UNL     1       5.740   4.164  16.969  0.00  0.00    +0.000 C 
ATOM      6  C   UNL     1       6.854   5.197  16.770  0.00  0.00    +0.000 C 
ATOM      7  O   UNL     1       7.205   5.655  15.691  0.00  0.00    +0.000 OA
ATOM      8  H   UNL     1       5.248   3.372  18.953  0.00  0.00    +0.000 HD
ENDROOT
BRANCH   1   9
ATOM      9  C   UNL     1       8.392   6.524  18.226  0.00  0.00    +0.000 C 
BRANCH   9  11
ATOM     10  O   UNL     1       6.909   8.209  17.275  0.00  0.00    +0.000 OA
ATOM     11  C   UNL     1       7.913   7.951  17.936  0.00  0.00    +0.000 C 
ATOM     12  N   UNL     1       8.718   8.927  18.494  0.00  0.00    +0.000 N 
ATOM     13  H   UNL     1       9.517   8.666  19.055  0.00  0.00    +0.000 HD
BRANCH  12  14
ATOM     14  C   UNL     1       8.458  10.343  18.331  0.00  0.00    +0.000 C 
BRANCH  14  15
ATOM     15  C   UNL     1       9.671  11.156  18.693  0.00  0.00    +0.000 A 
ATOM     16  C   UNL     1      10.525  11.656  17.699  0.00  0.00    +0.000 A 
ATOM     17  C   UNL     1      11.677  12.368  18.048  0.00  0.00    +0.000 A 
ATOM     18  C   UNL     1      11.994  12.579  19.390  0.00  0.00    +0.000 A 
ATOM     19  C   UNL     1      11.149  12.092  20.385  0.00  0.00    +0.000 A 
ATOM     20  C   UNL     1      10.001  11.388  20.031  0.00  0.00    +0.000 A 
ATOM     21  F   UNL     1       9.207  10.917  21.004  0.00  0.00    +0.000 F 
ENDBRANCH  14  15
ENDBRANCH  12  14
ENDBRANCH   9  11
ENDBRANCH   1   9
BRANCH   5  22
ATOM     22  C   UNL     1       4.401   4.739  16.493  0.00  0.00    +0.000 C 
BRANCH  22  23
ATOM     23  C   UNL     1       3.473   5.077  17.624  0.00  0.00    +0.000 A 
ATOM     24  C   UNL     1       3.236   6.330  18.154  0.00  0.00    +0.000 A 
ATOM     25  N   UNL     1       2.281   6.212  19.129  0.00  0.00    +0.000 N 
ATOM     26  C   UNL     1       1.884   4.902  19.252  0.00  0.00    +0.000 A 
ATOM     27  C   UNL     1       0.916   4.325  20.084  0.00  0.00    +0.000 A 
ATOM     28  C   UNL     1       0.729   2.942  19.998  0.00  0.00    +0.000 A 
ATOM     29  C   UNL     1       1.497   2.167  19.132  0.00  0.00    +0.000 A 
ATOM     30  C   UNL     1       2.462   2.761  18.311  0.00  0.00    +0.000 A 
ATOM     31  C   UNL     1       2.649   4.159  18.354  0.00  0.00    +0.000 A 
ATOM     32  H   UNL     1       1.902   6.977  19.671  0.00  0.00    +0.000 HD
ENDBRANCH  22  23
ENDBRANCH   5  22
TORSDOF 6
ENDMDL
MODEL 3
REMARK VINA RESULT:      -8.3      4.737      7.137
REMARK  Name = 
REMARK  6 active torsions:
REMARK  status: ('A' for Active; 'I' for Inactive)
REMARK    1  A    between atoms: C_2  and  C_3
REMARK    2  A    between atoms: C_3  and  N_4
REMARK    3  A    between atoms: C_8  and  C_9
REMARK    4  A    between atoms: C_9  and  C_10
REMARK    5  A    between atoms: N_21  and  C_22
REMARK    6  A    between atoms: C_22  and  C_23
REMARK                            x       y       z     vdW  Elec       q    Type
REMARK                         _______ _______ _______ _____ _____    ______ ____
ROOT
ATOM      1  N   UNL     1       7.401   5.727  17.944  0.00  0.00    +0.000 N 
ATOM      2  C   UNL     1       6.824   5.019  18.951  0.00  0.00    +0.000 C 
ATOM      3  O   UNL     1       6.944   5.209  20.150  0.00  0.00    +0.000 OA
ATOM      4  N   UNL     1       6.032   4.045  18.396  0.00  0.00    +0.000 N 
ATOM      5  C   UNL     1       5.968   4.136  16.956  0.00  0.00    +0.000 C 
ATOM      6  C   UNL     1       6.984   5.260  16.729  0.00  0.00    +0.000 C 
ATOM      7  O   UNL     1       7.314   5.701  15.636  0.00  0.00    +0.000 OA
ATOM      8  H   UNL     1       5.511   3.389  18.966  0.00  0.00    +0.000 HD
ENDROOT
BRANCH   1   9
ATOM      9  C   UNL     1       8.360   6.790  18.148  0.00  0.00    +0.000 C 
BRANCH   9  11
ATOM     10  O   UNL     1       6.686   8.292  17.206  0.00  0.00    +0.000 OA
ATOM     11  C   UNL     1       7.743   8.155  17.819  0.00  0.00    +0.000 C 
ATOM     12  N   UNL     1       8.490   9.222  18.280  0.00  0.00    +0.000 N 
ATOM     13  H   UNL     1       9.338   9.059  18.805  0.00  0.00    +0.000 HD
BRANCH  12  14
ATOM     14  C   UNL     1       8.100  10.602  18.065  0.00  0.00    +0.000 C 
BRANCH  14  15
ATOM     15  C   UNL     1       9.289  11.518  18.174  0.00  0.00    +0.000 A 
ATOM     16  C   UNL     1      10.469  11.094  18.800  0.00  0.00    +0.000 A 
ATOM     17  C   UNL     1      11.550  11.970  18.940  0.00  0.00    +0.000 A 
ATOM     18  C   UNL     1      11.462  13.278  18.465  0.00  0.00    +0.000 A 
ATOM     19  C   UNL     1      10.296  13.707  17.835  0.00  0.00    +0.000 A 
ATOM     20  C   UNL     1       9.224  12.829  17.695  0.00  0.00    +0.000 A 
ATOM     21  F   UNL     1       8.107  13.266  17.095  0.00  0.00    +0.000 F 
ENDBRANCH  14  15
ENDBRANCH  12  14
ENDBRANCH   9  11
ENDBRANCH   1   9
BRANCH   5  22
ATOM     22  C   UNL     1       4.591   4.560  16.431  0.00  0.00    +0.000 C 
BRANCH  22  23
ATOM     23  C   UNL     1       3.639   4.944  17.527  0.00  0.00    +0.000 A 
ATOM     24  C   UNL     1       3.400   6.215  18.010  0.00  0.00    +0.000 A 
ATOM     25  N   UNL     1       2.421   6.138  18.963  0.00  0.00    +0.000 N 
ATOM     26  C   UNL     1       2.008   4.836  19.120  0.00  0.00    +0.000 A 
ATOM     27  C   UNL     1       1.015   4.295  19.945  0.00  0.00    +0.000 A 
ATOM     28  C   UNL     1       0.817   2.911  19.900  0.00  0.00    +0.000 A 
ATOM     29  C   UNL     1       1.599   2.102  19.079  0.00  0.00    +0.000 A 
ATOM     30  C   UNL     1       2.589   2.660  18.264  0.00  0.00    +0.000 A 
ATOM     31  C   UNL     1       2.788   4.057  18.266  0.00  0.00    +0.000 A 
ATOM     32  H   UNL     1       2.036   6.924  19.471  0.00  0.00    +0.000 HD
ENDBRANCH  22  23
ENDBRANCH   5  22
TORSDOF 6
ENDMDL
MODEL 4
REMARK VINA RESULT:      -8.3      4.526      7.455
REMARK  Name = 
REMARK  6 active torsions:
REMARK  status: ('A' for Active; 'I' for Inactive)
REMARK    1  A    between atoms: C_2  and  C_3
REMARK    2  A    between atoms: C_3  and  N_4
REMARK    3  A    between atoms: C_8  and  C_9
REMARK    4  A    between atoms: C_9  and  C_10
REMARK    5  A    between atoms: N_21  and  C_22
REMARK    6  A    between atoms: C_22  and  C_23
REMARK                            x       y       z     vdW  Elec       q    Type
REMARK                         _______ _______ _______ _____ _____    ______ ____
ROOT
ATOM      1  N   UNL     1       7.055   5.659  17.080  0.00  0.00    +0.000 N 
ATOM      2  C   UNL     1       6.989   4.919  18.218  0.00  0.00    +0.000 C 
ATOM      3  O   UNL     1       7.624   5.086  19.246  0.00  0.00    +0.000 OA
ATOM      4  N   UNL     1       6.044   3.939  18.042  0.00  0.00    +0.000 N 
ATOM      5  C   UNL     1       5.350   4.059  16.781  0.00  0.00    +0.000 C 
ATOM      6  C   UNL     1       6.150   5.209  16.161  0.00  0.00    +0.000 C 
ATOM      7  O   UNL     1       5.959   5.679  15.047  0.00  0.00    +0.000 OA
ATOM      8  H   UNL     1       5.834   3.261  18.764  0.00  0.00    +0.000 HD
ENDROOT
BRANCH   1   9
ATOM      9  C   UNL     1       7.995   6.738  16.871  0.00  0.00    +0.000 C 
BRANCH   9  11
ATOM     10  O   UNL     1       6.286   8.311  17.612  0.00  0.00    +0.000 OA
ATOM     11  C   UNL     1       7.480   8.042  17.492  0.00  0.00    +0.000 C 
ATOM     12  N   UNL     1       8.489   8.890  17.908  0.00  0.00    +0.000 N 
ATOM     13  H   UNL     1       9.456   8.612  17.815  0.00  0.00    +0.000 HD
BRANCH  12  14
ATOM     14  C   UNL     1       8.226  10.183  18.509  0.00  0.00    +0.000 C 
BRANCH  14  15
ATOM     15  C   UNL     1       9.511  10.905  18.807  0.00  0.00    +0.000 A 
ATOM     16  C   UNL     1      10.404  11.242  17.780  0.00  0.00    +0.000 A 
ATOM     17  C   UNL     1      11.619  11.869  18.074  0.00  0.00    +0.000 A 
ATOM     18  C   UNL     1      11.959  12.159  19.395  0.00  0.00    +0.000 A 
ATOM     19  C   UNL     1      11.077  11.835  20.423  0.00  0.00    +0.000 A 
ATOM     20  C   UNL     1       9.867  11.215  20.123  0.00  0.00    +0.000 A 
ATOM     21  F   UNL     1       9.036  10.901  21.129  0.00  0.00    +0.000 F 
ENDBRANCH  14  15
ENDBRANCH  12  14
ENDBRANCH   9  11
ENDBRANCH   1   9
BRANCH   5  22
ATOM     22  C   UNL     1       3.879   4.463  16.929  0.00  0.00    +0.000 C 
BRANCH  22  23
ATOM     23  C   UNL     1       3.084   3.493  17.755  0.00  0.00    +0.000 A 
ATOM     24  C   UNL     1       2.652   2.238  17.372  0.00  0.00    +0.000 A 
ATOM     25  N   UNL     1       2.015   1.659  18.437  0.00  0.00    +0.000 N 
ATOM     26  C   UNL     1       2.017   2.510  19.516  0.00  0.00    +0.000 A 
ATOM     27  C   UNL     1       1.520   2.327  20.813  0.00  0.00    +0.000 A 
ATOM     28  C   UNL     1       1.658   3.387  21.715  0.00  0.00    +0.000 A 
ATOM     29  C   UNL     1       2.248   4.587  21.326  0.00  0.00    +0.000 A 
ATOM     30  C   UNL     1       2.736   4.752  20.025  0.00  0.00    +0.000 A 
ATOM     31  C   UNL     1       2.639   3.688  19.104  0.00  0.00    +0.000 A 
ATOM     32  H   UNL     1       1.614   0.730  18.442  0.00  0.00    +0.000 HD
ENDBRANCH  22  23
ENDBRANCH   5  22
TORSDOF 6
ENDMDL
MODEL 5
REMARK VINA RESULT:      -8.2      2.783      7.090
REMARK  Name = 
REMARK  6 active torsions:
REMARK  status: ('A' for Active; 'I' for Inactive)
REMARK    1  A    between atoms: C_2  and  C_3
REMARK    2  A    between atoms: C_3  and  N_4
REMARK    3  A    between atoms: C_8  and  C_9
REMARK    4  A    between atoms: C_9  and  C_10
REMARK    5  A    between atoms: N_21  and  C_22
REMARK    6  A    between atoms: C_22  and  C_23
REMARK                            x       y       z     vdW  Elec       q    Type
REMARK                         _______ _______ _______ _____ _____    ______ ____
ROOT
ATOM      1  N   UNL     1       2.246   3.367  19.524  0.00  0.00    +0.000 N 
ATOM      2  C   UNL     1       2.622   3.484  20.826  0.00  0.00    +0.000 C 
ATOM      3  O   UNL     1       3.174   2.642  21.514  0.00  0.00    +0.000 OA
ATOM      4  N   UNL     1       2.305   4.749  21.254  0.00  0.00    +0.000 N 
ATOM      5  C   UNL     1       1.786   5.581  20.193  0.00  0.00    +0.000 C 
ATOM      6  C   UNL     1       1.712   4.540  19.071  0.00  0.00    +0.000 C 
ATOM      7  O   UNL     1       1.298   4.754  17.939  0.00  0.00    +0.000 OA
ATOM      8  H   UNL     1       2.488   5.055  22.202  0.00  0.00    +0.000 HD
ENDROOT
BRANCH   1   9
ATOM      9  C   UNL     1       2.358   2.146  18.757  0.00  0.00    +0.000 C 
BRANCH   9  11
ATOM     10  O   UNL     1       4.330   1.185  17.693  0.00  0.00    +0.000 OA
ATOM     11  C   UNL     1       3.611   2.166  17.875  0.00  0.00    +0.000 C 
ATOM     12  N   UNL     1       3.859   3.397  17.298  0.00  0.00    +0.000 N 
ATOM     13  H   UNL     1       3.223   4.168  17.453  0.00  0.00    +0.000 HD
BRANCH  12  14
ATOM     14  C   UNL     1       5.000   3.644  16.439  0.00  0.00    +0.000 C 
BRANCH  14  15
ATOM     15  C   UNL     1       5.873   4.729  17.007  0.00  0.00    +0.000 A 
ATOM     16  C   UNL     1       6.847   4.438  17.974  0.00  0.00    +0.000 A 
ATOM     17  C   UNL     1       7.619   5.462  18.532  0.00  0.00    +0.000 A 
ATOM     18  C   UNL     1       7.423   6.785  18.138  0.00  0.00    +0.000 A 
ATOM     19  C   UNL     1       6.463   7.085  17.174  0.00  0.00    +0.000 A 
ATOM     20  C   UNL     1       5.700   6.061  16.619  0.00  0.00    +0.000 A 
ATOM     21  F   UNL     1       4.774   6.372  15.700  0.00  0.00    +0.000 F 
ENDBRANCH  14  15
ENDBRANCH  12  14
ENDBRANCH   9  11
ENDBRANCH   1   9
BRANCH   5  22
ATOM     22  C   UNL     1       2.730   6.719  19.791  0.00  0.00    +0.000 C 
BRANCH  22  23
ATOM     23  C   UNL     1       2.007   7.996  19.475  0.00  0.00    +0.000 A 
ATOM     24  C   UNL     1       1.933   8.625  18.247  0.00  0.00    +0.000 A 
ATOM     25  N   UNL     1       1.129   9.727  18.375  0.00  0.00    +0.000 N 
ATOM     26  C   UNL     1       0.671   9.838  19.666  0.00  0.00    +0.000 A 
ATOM     27  C   UNL     1      -0.196  10.775  20.241  0.00  0.00    +0.000 A 
ATOM     28  C   UNL     1      -0.482  10.643  21.603  0.00  0.00    +0.000 A 
ATOM     29  C   UNL     1       0.095   9.628  22.362  0.00  0.00    +0.000 A 
ATOM     30  C   UNL     1       0.962   8.702  21.771  0.00  0.00    +0.000 A 
ATOM     31  C   UNL     1       1.243   8.793  20.391  0.00  0.00    +0.000 A 
ATOM     32  H   UNL     1       0.887  10.362  17.626  0.00  0.00    +0.000 HD
ENDBRANCH  22  23
ENDBRANCH   5  22
TORSDOF 6
ENDMDL
MODEL 6
REMARK VINA RESULT:      -8.2      1.312      1.398
REMARK  Name = 
REMARK  6 active torsions:
REMARK  status: ('A' for Active; 'I' for Inactive)
REMARK    1  A    between atoms: C_2  and  C_3
REMARK    2  A    between atoms: C_3  and  N_4
REMARK    3  A    between atoms: C_8  and  C_9
REMARK    4  A    between atoms: C_9  and  C_10
REMARK    5  A    between atoms: N_21  and  C_22
REMARK    6  A    between atoms: C_22  and  C_23
REMARK                            x       y       z     vdW  Elec       q    Type
REMARK                         _______ _______ _______ _____ _____    ______ ____
ROOT
ATOM      1  N   UNL     1       3.403   2.957  19.225  0.00  0.00    +0.000 N 
ATOM      2  C   UNL     1       4.665   2.700  19.661  0.00  0.00    +0.000 C 
ATOM      3  O   UNL     1       4.994   1.995  20.600  0.00  0.00    +0.000 OA
ATOM      4  N   UNL     1       5.547   3.352  18.835  0.00  0.00    +0.000 N 
ATOM      5  C   UNL     1       4.891   4.001  17.723  0.00  0.00    +0.000 C 
ATOM      6  C   UNL     1       3.431   3.743  18.108  0.00  0.00    +0.000 C 
ATOM      7  O   UNL     1       2.457   4.130  17.475  0.00  0.00    +0.000 OA
ATOM      8  H   UNL     1       6.549   3.308  18.979  0.00  0.00    +0.000 HD
ENDROOT
BRANCH   1   9
ATOM      9  C   UNL     1       2.207   2.495  19.896  0.00  0.00    +0.000 C 
BRANCH   9  11
ATOM     10  O   UNL     1       1.080   3.306  21.900  0.00  0.00    +0.000 OA
ATOM     11  C   UNL     1       1.669   3.566  20.852  0.00  0.00    +0.000 C 
ATOM     12  N   UNL     1       1.911   4.858  20.425  0.00  0.00    +0.000 N 
ATOM     13  H   UNL     1       2.426   5.022  19.571  0.00  0.00    +0.000 HD
BRANCH  12  14
ATOM     14  C   UNL     1       1.475   6.023  21.170  0.00  0.00    +0.000 C 
BRANCH  14  15
ATOM     15  C   UNL     1       1.488   7.250  20.299  0.00  0.00    +0.000 A 
ATOM     16  C   UNL     1       2.172   7.258  19.075  0.00  0.00    +0.000 A 
ATOM     17  C   UNL     1       2.219   8.419  18.298  0.00  0.00    +0.000 A 
ATOM     18  C   UNL     1       1.592   9.585  18.736  0.00  0.00    +0.000 A 
ATOM     19  C   UNL     1       0.904   9.586  19.948  0.00  0.00    +0.000 A 
ATOM     20  C   UNL     1       0.857   8.426  20.715  0.00  0.00    +0.000 A 
ATOM     21  F   UNL     1       0.199   8.452  21.884  0.00  0.00    +0.000 F 
ENDBRANCH  14  15
ENDBRANCH  12  14
ENDBRANCH   9  11
ENDBRANCH   1   9
BRANCH   5  22
ATOM     22  C   UNL     1       5.199   3.353  16.369  0.00  0.00    +0.000 C 
BRANCH  22  23
ATOM     23  C   UNL     1       6.132   4.173  15.526  0.00  0.00    +0.000 A 
ATOM     24  C   UNL     1       7.014   5.141  15.967  0.00  0.00    +0.000 A 
ATOM     25  N   UNL     1       7.719   5.605  14.889  0.00  0.00    +0.000 N 
ATOM     26  C   UNL     1       7.319   4.961  13.742  0.00  0.00    +0.000 A 
ATOM     27  C   UNL     1       7.783   5.083  12.427  0.00  0.00    +0.000 A 
ATOM     28  C   UNL     1       7.172   4.294  11.447  0.00  0.00    +0.000 A 
ATOM     29  C   UNL     1       6.123   3.436  11.770  0.00  0.00    +0.000 A 
ATOM     30  C   UNL     1       5.670   3.330  13.089  0.00  0.00    +0.000 A 
ATOM     31  C   UNL     1       6.291   4.090  14.102  0.00  0.00    +0.000 A 
ATOM     32  H   UNL     1       8.447   6.307  14.925  0.00  0.00    +0.000 HD
ENDBRANCH  22  23
ENDBRANCH   5  22
TORSDOF 6
ENDMDL
MODEL 7
REMARK VINA RESULT:      -8.1      4.785      7.244
REMARK  Name = 
REMARK  6 active torsions:
REMARK  status: ('A' for Active; 'I' for Inactive)
REMARK    1  A    between atoms: C_2  and  C_3
REMARK    2  A    between atoms: C_3  and  N_4
REMARK    3  A    between atoms: C_8  and  C_9
REMARK    4  A    between atoms: C_9  and  C_10
REMARK    5  A    between atoms: N_21  and  C_22
REMARK    6  A    between atoms: C_22  and  C_23
REMARK                            x       y       z     vdW  Elec       q    Type
REMARK                         _______ _______ _______ _____ _____    ______ ____
ROOT
ATOM      1  N   UNL     1       7.429   5.695  17.988  0.00  0.00    +0.000 N 
ATOM      2  C   UNL     1       6.866   5.056  19.048  0.00  0.00    +0.000 C 
ATOM      3  O   UNL     1       7.016   5.314  20.231  0.00  0.00    +0.000 OA
ATOM      4  N   UNL     1       6.049   4.062  18.569  0.00  0.00    +0.000 N 
ATOM      5  C   UNL     1       5.953   4.070  17.127  0.00  0.00    +0.000 C 
ATOM      6  C   UNL     1       6.978   5.164  16.812  0.00  0.00    +0.000 C 
ATOM      7  O   UNL     1       7.289   5.535  15.688  0.00  0.00    +0.000 OA
ATOM      8  H   UNL     1       5.533   3.449  19.187  0.00  0.00    +0.000 HD
ENDROOT
BRANCH   1   9
ATOM      9  C   UNL     1       8.407   6.754  18.108  0.00  0.00    +0.000 C 
BRANCH   9  11
ATOM     10  O   UNL     1       6.695   8.254  17.234  0.00  0.00    +0.000 OA
ATOM     11  C   UNL     1       7.777   8.118  17.802  0.00  0.00    +0.000 C 
ATOM     12  N   UNL     1       8.542   9.186  18.230  0.00  0.00    +0.000 N 
ATOM     13  H   UNL     1       9.411   9.025  18.719  0.00  0.00    +0.000 HD
BRANCH  12  14
ATOM     14  C   UNL     1       8.143  10.565  18.029  0.00  0.00    +0.000 C 
BRANCH  14  15
ATOM     15  C   UNL     1       9.154  11.508  18.623  0.00  0.00    +0.000 A 
ATOM     16  C   UNL     1      10.031  11.081  19.631  0.00  0.00    +0.000 A 
ATOM     17  C   UNL     1      10.933  11.978  20.211  0.00  0.00    +0.000 A 
ATOM     18  C   UNL     1      10.963  13.310  19.800  0.00  0.00    +0.000 A 
ATOM     19  C   UNL     1      10.100  13.743  18.795  0.00  0.00    +0.000 A 
ATOM     20  C   UNL     1       9.208  12.844  18.218  0.00  0.00    +0.000 A 
ATOM     21  F   UNL     1       8.378  13.284  17.260  0.00  0.00    +0.000 F 
ENDBRANCH  14  15
ENDBRANCH  12  14
ENDBRANCH   9  11
ENDBRANCH   1   9
BRANCH   5  22
ATOM     22  C   UNL     1       4.571   4.482  16.609  0.00  0.00    +0.000 C 
BRANCH  22  23
ATOM     23  C   UNL     1       3.447   3.776  17.312  0.00  0.00    +0.000 A 
ATOM     24  C   UNL     1       2.938   2.527  17.015  0.00  0.00    +0.000 A 
ATOM     25  N   UNL     1       1.963   2.230  17.930  0.00  0.00    +0.000 N 
ATOM     26  C   UNL     1       1.819   3.261  18.827  0.00  0.00    +0.000 A 
ATOM     27  C   UNL     1       0.980   3.380  19.942  0.00  0.00    +0.000 A 
ATOM     28  C   UNL     1       1.043   4.568  20.677  0.00  0.00    +0.000 A 
ATOM     29  C   UNL     1       1.895   5.602  20.297  0.00  0.00    +0.000 A 
ATOM     30  C   UNL     1       2.724   5.467  19.177  0.00  0.00    +0.000 A 
ATOM     31  C   UNL     1       2.703   4.266  18.437  0.00  0.00    +0.000 A 
ATOM     32  H   UNL     1       1.435   1.368  17.961  0.00  0.00    +0.000 HD
ENDBRANCH  22  23
ENDBRANCH   5  22
TORSDOF 6
ENDMDL
MODEL 8
REMARK VINA RESULT:      -8.0      4.670      7.101
REMARK  Name = 
REMARK  6 active torsions:
REMARK  status: ('A' for Active; 'I' for Inactive)
REMARK    1  A    between atoms: C_2  and  C_3
REMARK    2  A    between atoms: C_3  and  N_4
REMARK    3  A    between atoms: C_8  and  C_9
REMARK    4  A    between atoms: C_9  and  C_10
REMARK    5  A    between atoms: N_21  and  C_22
REMARK    6  A    between atoms: C_22  and  C_23
REMARK                            x       y       z     vdW  Elec       q    Type
REMARK                         _______ _______ _______ _____ _____    ______ ____
ROOT
ATOM      1  N   UNL     1       6.069   6.195  17.605  0.00  0.00    +0.000 N 
ATOM      2  C   UNL     1       6.359   5.231  18.519  0.00  0.00    +0.000 C 
ATOM      3  O   UNL     1       6.655   5.390  19.691  0.00  0.00    +0.000 OA
ATOM      4  N   UNL     1       6.230   4.007  17.912  0.00  0.00    +0.000 N 
ATOM      5  C   UNL     1       5.734   4.108  16.559  0.00  0.00    +0.000 C 
ATOM      6  C   UNL     1       5.722   5.632  16.408  0.00  0.00    +0.000 C 
ATOM      7  O   UNL     1       5.394   6.238  15.397  0.00  0.00    +0.000 OA
ATOM      8  H   UNL     1       6.409   3.141  18.407  0.00  0.00    +0.000 HD
ENDROOT
BRANCH   1   9
ATOM      9  C   UNL     1       6.171   7.613  17.866  0.00  0.00    +0.000 C 
BRANCH   9  11
ATOM     10  O   UNL     1       8.330   7.552  16.734  0.00  0.00    +0.000 OA
ATOM     11  C   UNL     1       7.562   8.140  17.493  0.00  0.00    +0.000 C 
ATOM     12  N   UNL     1       7.873   9.346  18.093  0.00  0.00    +0.000 N 
ATOM     13  H   UNL     1       7.197   9.807  18.687  0.00  0.00    +0.000 HD
BRANCH  12  14
ATOM     14  C   UNL     1       9.143  10.016  17.892  0.00  0.00    +0.000 C 
BRANCH  14  15
ATOM     15  C   UNL     1       9.330  11.121  18.896  0.00  0.00    +0.000 A 
ATOM     16  C   UNL     1       9.509  10.834  20.257  0.00  0.00    +0.000 A 
ATOM     17  C   UNL     1       9.633  11.870  21.188  0.00  0.00    +0.000 A 
ATOM     18  C   UNL     1       9.570  13.200  20.773  0.00  0.00    +0.000 A 
ATOM     19  C   UNL     1       9.399  13.496  19.422  0.00  0.00    +0.000 A 
ATOM     20  C   UNL     1       9.282  12.460  18.499  0.00  0.00    +0.000 A 
ATOM     21  F   UNL     1       9.106  12.766  17.205  0.00  0.00    +0.000 F 
ENDBRANCH  14  15
ENDBRANCH  12  14
ENDBRANCH   9  11
ENDBRANCH   1   9
BRANCH   5  22
ATOM     22  C   UNL     1       4.316   3.553  16.384  0.00  0.00    +0.000 C 
BRANCH  22  23
ATOM     23  C   UNL     1       3.657   3.209  17.688  0.00  0.00    +0.000 A 
ATOM     24  C   UNL     1       3.585   1.963  18.278  0.00  0.00    +0.000 A 
ATOM     25  N   UNL     1       2.952   2.092  19.486  0.00  0.00    +0.000 N 
ATOM     26  C   UNL     1       2.604   3.404  19.704  0.00  0.00    +0.000 A 
ATOM     27  C   UNL     1       1.981   4.003  20.806  0.00  0.00    +0.000 A 
ATOM     28  C   UNL     1       1.740   5.379  20.746  0.00  0.00    +0.000 A 
ATOM     29  C   UNL     1       2.088   6.119  19.618  0.00  0.00    +0.000 A 
ATOM     30  C   UNL     1       2.706   5.502  18.525  0.00  0.00    +0.000 A 
ATOM     31  C   UNL     1       2.990   4.121  18.573  0.00  0.00    +0.000 A 
ATOM     32  H   UNL     1       2.780   1.339  20.139  0.00  0.00    +0.000 HD
ENDBRANCH  22  23
ENDBRANCH   5  22
TORSDOF 6
ENDMDL
MODEL 9
REMARK VINA RESULT:      -8.0      4.786      7.600
REMARK  Name = 
REMARK  6 active torsions:
REMARK  status: ('A' for Active; 'I' for Inactive)
REMARK    1  A    between atoms: C_2  and  C_3
REMARK    2  A    between atoms: C_3  and  N_4
REMARK    3  A    between atoms: C_8  and  C_9
REMARK    4  A    between atoms: C_9  and  C_10
REMARK    5  A    between atoms: N_21  and  C_22
REMARK    6  A    between atoms: C_22  and  C_23
REMARK                            x       y       z     vdW  Elec       q    Type
REMARK                         _______ _______ _______ _____ _____    ______ ____
ROOT
ATOM      1  N   UNL     1       6.630   5.715  17.131  0.00  0.00    +0.000 N 
ATOM      2  C   UNL     1       6.863   5.084  15.949  0.00  0.00    +0.000 C 
ATOM      3  O   UNL     1       7.923   5.002  15.352  0.00  0.00    +0.000 OA
ATOM      4  N   UNL     1       5.691   4.505  15.531  0.00  0.00    +0.000 N 
ATOM      5  C   UNL     1       4.627   4.644  16.498  0.00  0.00    +0.000 C 
ATOM      6  C   UNL     1       5.332   5.541  17.521  0.00  0.00    +0.000 C 
ATOM      7  O   UNL     1       4.824   5.973  18.546  0.00  0.00    +0.000 OA
ATOM      8  H   UNL     1       5.629   3.987  14.662  0.00  0.00    +0.000 HD
ENDROOT
BRANCH   1   9
ATOM      9  C   UNL     1       7.619   6.499  17.837  0.00  0.00    +0.000 C 
BRANCH   9  11
ATOM     10  O   UNL     1       6.596   8.439  16.768  0.00  0.00    +0.000 OA
ATOM     11  C   UNL     1       7.463   7.991  17.517  0.00  0.00    +0.000 C 
ATOM     12  N   UNL     1       8.392   8.791  18.156  0.00  0.00    +0.000 N 
ATOM     13  H   UNL     1       9.067   8.381  18.786  0.00  0.00    +0.000 HD
BRANCH  12  14
ATOM     14  C   UNL     1       8.436  10.229  17.984  0.00  0.00    +0.000 C 
BRANCH  14  15
ATOM     15  C   UNL     1       9.469  10.845  18.888  0.00  0.00    +0.000 A 
ATOM     16  C   UNL     1       9.226  10.999  20.260  0.00  0.00    +0.000 A 
ATOM     17  C   UNL     1      10.172  11.618  21.083  0.00  0.00    +0.000 A 
ATOM     18  C   UNL     1      11.367  12.096  20.544  0.00  0.00    +0.000 A 
ATOM     19  C   UNL     1      11.622  11.942  19.183  0.00  0.00    +0.000 A 
ATOM     20  C   UNL     1      10.677  11.321  18.370  0.00  0.00    +0.000 A 
ATOM     21  F   UNL     1      10.937  11.194  17.061  0.00  0.00    +0.000 F 
ENDBRANCH  14  15
ENDBRANCH  12  14
ENDBRANCH   9  11
ENDBRANCH   1   9
BRANCH   5  22
ATOM     22  C   UNL     1       4.221   3.319  17.155  0.00  0.00    +0.000 C 
BRANCH  22  23
ATOM     23  C   UNL     1       2.923   3.410  17.904  0.00  0.00    +0.000 A 
ATOM     24  C   UNL     1       1.696   3.788  17.395  0.00  0.00    +0.000 A 
ATOM     25  N   UNL     1       0.763   3.680  18.391  0.00  0.00    +0.000 N 
ATOM     26  C   UNL     1       1.353   3.238  19.552  0.00  0.00    +0.000 A 
ATOM     27  C   UNL     1       0.788   2.950  20.801  0.00  0.00    +0.000 A 
ATOM     28  C   UNL     1       1.646   2.518  21.816  0.00  0.00    +0.000 A 
ATOM     29  C   UNL     1       3.017   2.403  21.596  0.00  0.00    +0.000 A 
ATOM     30  C   UNL     1       3.564   2.699  20.342  0.00  0.00    +0.000 A 
ATOM     31  C   UNL     1       2.716   3.105  19.291  0.00  0.00    +0.000 A 
ATOM     32  H   UNL     1      -0.224   3.877  18.291  0.00  0.00    +0.000 HD
ENDBRANCH  22  23
ENDBRANCH   5  22
TORSDOF 6
ENDMDL
