MODEL 1
REMARK VINA RESULT:      -8.6      0.000      0.000
REMARK  Name = 
REMARK  6 active torsions:
REMARK  status: ('A' for Active; 'I' for Inactive)
REMARK    1  A    between atoms: C_1  and  C_2
REMARK    2  A    between atoms: C_2  and  C_10
REMARK    3  A    between atoms: C_3  and  C_4
REMARK    4  A    between atoms: N_8  and  C_9
REMARK    5  A    between atoms: C_14  and  N_15
REMARK    6  A    between atoms: C_22  and  C_23
REMARK                            x       y       z     vdW  Elec       q    Type
REMARK                         _______ _______ _______ _____ _____    ______ ____
ROOT
ATOM      1  C   UNL     1       1.289   8.771  19.789  0.00  0.00    +0.000 A 
ATOM      2  C   UNL     1       1.829   9.251  18.589  0.00  0.00    +0.000 A 
ATOM      3  C   UNL     1       2.527   8.394  17.747  0.00  0.00    +0.000 A 
ATOM      4  C   UNL     1       2.771   7.085  18.147  0.00  0.00    +0.000 A 
ATOM      5  C   UNL     1       2.457   6.685  19.457  0.00  0.00    +0.000 A 
ATOM      6  C   UNL     1       1.583   7.473  20.214  0.00  0.00    +0.000 A 
ENDROOT
BRANCH   5   7
ATOM      7  N   UNL     1       3.371   5.798  20.174  0.00  0.00    +0.000 N 
ATOM      8  C   UNL     1       4.528   5.463  19.304  0.00  0.00    +0.000 C 
ATOM      9  C   UNL     1       4.026   4.249  18.580  0.00  0.00    +0.000 A 
ATOM     10  C   UNL     1       3.114   3.612  19.429  0.00  0.00    +0.000 A 
ATOM     11  C   UNL     1       2.313   2.559  19.022  0.00  0.00    +0.000 A 
ATOM     12  C   UNL     1       2.427   2.151  17.695  0.00  0.00    +0.000 A 
ATOM     13  C   UNL     1       3.323   2.797  16.820  0.00  0.00    +0.000 A 
ATOM     14  C   UNL     1       4.146   3.861  17.249  0.00  0.00    +0.000 A 
ATOM     15  C   UNL     1       2.824   4.541  20.549  0.00  0.00    +0.000 C 
ATOM     16  O   UNL     1       2.075   4.288  21.475  0.00  0.00    +0.000 OA
BRANCH  14  17
ATOM     17  C   UNL     1       4.995   4.589  16.238  0.00  0.00    +0.000 C 
ATOM     18  F   UNL     1       4.673   5.902  16.080  0.00  0.00    +0.000 F 
ATOM     19  F   UNL     1       6.315   4.572  16.568  0.00  0.00    +0.000 F 
ATOM     20  F   UNL     1       4.913   4.035  14.996  0.00  0.00    +0.000 F 
ENDBRANCH  14  17
ENDBRANCH   5   7
BRANCH   1  22
ATOM     21  C   UNL     1      -0.206   9.024  21.792  0.00  0.00    +0.000 C 
ATOM     22  C   UNL     1       0.474   9.672  20.618  0.00  0.00    +0.000 C 
ATOM     23  C   UNL     1       0.446  10.964  20.242  0.00  0.00    +0.000 C 
BRANCH  23  24
ATOM     24  C   UNL     1      -0.210  11.978  20.979  0.00  0.00    +0.000 A 
ATOM     25  N   UNL     1       0.171  12.654  22.047  0.00  0.00    +0.000 NA
ATOM     26  N   UNL     1      -0.814  13.552  22.376  0.00  0.00    +0.000 NA
ATOM     27  C   UNL     1      -1.777  13.417  21.498  0.00  0.00    +0.000 A 
ATOM     28  N   UNL     1      -1.445  12.449  20.599  0.00  0.00    +0.000 N 
ATOM     29  C   UNL     1      -2.264  12.009  19.510  0.00  0.00    +0.000 C 
ENDBRANCH  23  24
ENDBRANCH   1  22
TORSDOF 4
ENDMDL
MODEL 2
REMARK VINA RESULT:      -8.5      0.910      1.342
REMARK  Name = 
REMARK  6 active torsions:
REMARK  status: ('A' for Active; 'I' for Inactive)
REMARK    1  A    between atoms: C_1  and  C_2
REMARK    2  A    between atoms: C_2  and  C_10
REMARK    3  A    between atoms: C_3  and  C_4
REMARK    4  A    between atoms: N_8  and  C_9
REMARK    5  A    between atoms: C_14  and  N_15
REMARK    6  A    between atoms: C_22  and  C_23
REMARK                            x       y       z     vdW  Elec       q    Type
REMARK                         _______ _______ _______ _____ _____    ______ ____
ROOT
ATOM      1  C   UNL     1       1.358   8.862  19.271  0.00  0.00    +0.000 A 
ATOM      2  C   UNL     1       2.087   9.281  18.150  0.00  0.00    +0.000 A 
ATOM      3  C   UNL     1       2.894   8.380  17.467  0.00  0.00    +0.000 A 
ATOM      4  C   UNL     1       3.052   7.088  17.957  0.00  0.00    +0.000 A 
ATOM      5  C   UNL     1       2.531   6.752  19.218  0.00  0.00    +0.000 A 
ATOM      6  C   UNL     1       1.561   7.582  19.793  0.00  0.00    +0.000 A 
ENDROOT
BRANCH   5   7
ATOM      7  N   UNL     1       3.306   5.890  20.108  0.00  0.00    +0.000 N 
ATOM      8  C   UNL     1       4.544   5.443  19.417  0.00  0.00    +0.000 C 
ATOM      9  C   UNL     1       4.077   4.196  18.728  0.00  0.00    +0.000 A 
ATOM     10  C   UNL     1       3.038   3.663  19.500  0.00  0.00    +0.000 A 
ATOM     11  C   UNL     1       2.244   2.613  19.075  0.00  0.00    +0.000 A 
ATOM     12  C   UNL     1       2.499   2.096  17.807  0.00  0.00    +0.000 A 
ATOM     13  C   UNL     1       3.525   2.636  17.006  0.00  0.00    +0.000 A 
ATOM     14  C   UNL     1       4.339   3.699  17.455  0.00  0.00    +0.000 A 
ATOM     15  C   UNL     1       2.658   4.689  20.504  0.00  0.00    +0.000 C 
ATOM     16  O   UNL     1       1.790   4.539  21.344  0.00  0.00    +0.000 OA
BRANCH  14  17
ATOM     17  C   UNL     1       5.340   4.311  16.507  0.00  0.00    +0.000 C 
ATOM     18  F   UNL     1       6.542   4.600  17.074  0.00  0.00    +0.000 F 
ATOM     19  F   UNL     1       5.617   3.494  15.455  0.00  0.00    +0.000 F 
ATOM     20  F   UNL     1       4.894   5.479  15.965  0.00  0.00    +0.000 F 
ENDBRANCH  14  17
ENDBRANCH   5   7
BRANCH   1  22
ATOM     21  C   UNL     1      -0.812  10.119  19.148  0.00  0.00    +0.000 C 
ATOM     22  C   UNL     1       0.439   9.807  19.921  0.00  0.00    +0.000 C 
ATOM     23  C   UNL     1       0.813  10.266  21.129  0.00  0.00    +0.000 C 
BRANCH  23  24
ATOM     24  C   UNL     1       0.005  11.106  21.930  0.00  0.00    +0.000 A 
ATOM     25  N   UNL     1      -0.784  10.828  22.951  0.00  0.00    +0.000 NA
ATOM     26  N   UNL     1      -1.340  11.996  23.411  0.00  0.00    +0.000 NA
ATOM     27  C   UNL     1      -0.875  12.971  22.670  0.00  0.00    +0.000 A 
ATOM     28  N   UNL     1      -0.024  12.468  21.733  0.00  0.00    +0.000 N 
ATOM     29  C   UNL     1       0.657  13.231  20.731  0.00  0.00    +0.000 C 
ENDBRANCH  23  24
ENDBRANCH   1  22
TORSDOF 4
ENDMDL
MODEL 3
REMARK VINA RESULT:      -8.5      2.349      3.962
REMARK  Name = 
REMARK  6 active torsions:
REMARK  status: ('A' for Active; 'I' for Inactive)
REMARK    1  A    between atoms: C_1  and  C_2
REMARK    2  A    between atoms: C_2  and  C_10
REMARK    3  A    between atoms: C_3  and  C_4
REMARK    4  A    between atoms: N_8  and  C_9
REMARK    5  A    between atoms: C_14  and  N_15
REMARK    6  A    between atoms: C_22  and  C_23
REMARK                            x       y       z     vdW  Elec       q    Type
REMARK                         _______ _______ _______ _____ _____    ______ ____
ROOT
ATOM      1  C   UNL     1       2.245   5.933  20.083  0.00  0.00    +0.000 A 
ATOM      2  C   UNL     1       1.325   5.170  20.813  0.00  0.00    +0.000 A 
ATOM      3  C   UNL     1       1.605   3.844  21.120  0.00  0.00    +0.000 A 
ATOM      4  C   UNL     1       2.757   3.250  20.615  0.00  0.00    +0.000 A 
ATOM      5  C   UNL     1       3.541   3.938  19.672  0.00  0.00    +0.000 A 
ATOM      6  C   UNL     1       3.373   5.320  19.531  0.00  0.00    +0.000 A 
ENDROOT
BRANCH   5   7
ATOM      7  N   UNL     1       4.121   3.202  18.551  0.00  0.00    +0.000 N 
ATOM      8  C   UNL     1       5.598   3.369  18.554  0.00  0.00    +0.000 C 
ATOM      9  C   UNL     1       5.767   4.615  17.736  0.00  0.00    +0.000 A 
ATOM     10  C   UNL     1       4.693   4.668  16.841  0.00  0.00    +0.000 A 
ATOM     11  C   UNL     1       4.421   5.774  16.054  0.00  0.00    +0.000 A 
ATOM     12  C   UNL     1       5.260   6.877  16.197  0.00  0.00    +0.000 A 
ATOM     13  C   UNL     1       6.332   6.849  17.111  0.00  0.00    +0.000 A 
ATOM     14  C   UNL     1       6.609   5.711  17.899  0.00  0.00    +0.000 A 
ATOM     15  C   UNL     1       3.710   3.639  17.263  0.00  0.00    +0.000 C 
ATOM     16  O   UNL     1       2.662   3.414  16.685  0.00  0.00    +0.000 OA
BRANCH  14  17
ATOM     17  C   UNL     1       7.695   5.785  18.943  0.00  0.00    +0.000 C 
ATOM     18  F   UNL     1       8.410   6.942  18.925  0.00  0.00    +0.000 F 
ATOM     19  F   UNL     1       7.199   5.681  20.207  0.00  0.00    +0.000 F 
ATOM     20  F   UNL     1       8.608   4.782  18.816  0.00  0.00    +0.000 F 
ENDBRANCH  14  17
ENDBRANCH   5   7
BRANCH   1  22
ATOM     21  C   UNL     1       2.407   7.888  18.515  0.00  0.00    +0.000 C 
ATOM     22  C   UNL     1       1.969   7.359  19.852  0.00  0.00    +0.000 C 
ATOM     23  C   UNL     1       1.347   8.013  20.850  0.00  0.00    +0.000 C 
BRANCH  23  24
ATOM     24  C   UNL     1       0.926   9.360  20.756  0.00  0.00    +0.000 A 
ATOM     25  N   UNL     1       0.953  10.206  19.743  0.00  0.00    +0.000 NA
ATOM     26  N   UNL     1       0.406  11.398  20.148  0.00  0.00    +0.000 NA
ATOM     27  C   UNL     1       0.044  11.260  21.399  0.00  0.00    +0.000 A 
ATOM     28  N   UNL     1       0.341  10.001  21.825  0.00  0.00    +0.000 N 
ATOM     29  C   UNL     1       0.112   9.492  23.144  0.00  0.00    +0.000 C 
ENDBRANCH  23  24
ENDBRANCH   1  22
TORSDOF 4
ENDMDL
MODEL 4
REMARK VINA RESULT:      -8.4      1.991      2.718
REMARK  Name = 
REMARK  6 active torsions:
REMARK  status: ('A' for Active; 'I' for Inactive)
REMARK    1  A    between atoms: C_1  and  C_2
REMARK    2  A    between atoms: C_2  and  C_10
REMARK    3  A    between atoms: C_3  and  C_4
REMARK    4  A    between atoms: N_8  and  C_9
REMARK    5  A    between atoms: C_14  and  N_15
REMARK    6  A    between atoms: C_22  and  C_23
REMARK                            x       y       z     vdW  Elec       q    Type
REMARK                         _______ _______ _______ _____ _____    ______ ____
ROOT
ATOM      1  C   UNL     1       2.081   7.881  19.278  0.00  0.00    +0.000 A 
ATOM      2  C   UNL     1       2.602   8.506  18.138  0.00  0.00    +0.000 A 
ATOM      3  C   UNL     1       3.247   7.754  17.164  0.00  0.00    +0.000 A 
ATOM      4  C   UNL     1       3.459   6.396  17.371  0.00  0.00    +0.000 A 
ATOM      5  C   UNL     1       3.169   5.827  18.624  0.00  0.00    +0.000 A 
ATOM      6  C   UNL     1       2.343   6.528  19.510  0.00  0.00    +0.000 A 
ENDROOT
BRANCH   5   7
ATOM      7  N   UNL     1       4.073   4.823  19.181  0.00  0.00    +0.000 N 
ATOM      8  C   UNL     1       5.430   5.406  19.344  0.00  0.00    +0.000 C 
ATOM      9  C   UNL     1       6.048   5.121  18.008  0.00  0.00    +0.000 A 
ATOM     10  C   UNL     1       5.441   3.962  17.512  0.00  0.00    +0.000 A 
ATOM     11  C   UNL     1       5.631   3.505  16.220  0.00  0.00    +0.000 A 
ATOM     12  C   UNL     1       6.452   4.265  15.391  0.00  0.00    +0.000 A 
ATOM     13  C   UNL     1       7.052   5.449  15.866  0.00  0.00    +0.000 A 
ATOM     14  C   UNL     1       6.863   5.899  17.191  0.00  0.00    +0.000 A 
ATOM     15  C   UNL     1       4.268   3.670  18.374  0.00  0.00    +0.000 C 
ATOM     16  O   UNL     1       3.526   2.717  18.223  0.00  0.00    +0.000 OA
BRANCH  14  17
ATOM     17  C   UNL     1       7.433   7.233  17.603  0.00  0.00    +0.000 C 
ATOM     18  F   UNL     1       6.497   8.193  17.833  0.00  0.00    +0.000 F 
ATOM     19  F   UNL     1       8.161   7.148  18.750  0.00  0.00    +0.000 F 
ATOM     20  F   UNL     1       8.274   7.751  16.665  0.00  0.00    +0.000 F 
ENDBRANCH  14  17
ENDBRANCH   5   7
BRANCH   1  22
ATOM     21  C   UNL     1       1.089   8.023  21.581  0.00  0.00    +0.000 C 
ATOM     22  C   UNL     1       1.320   8.681  20.249  0.00  0.00    +0.000 C 
ATOM     23  C   UNL     1       0.938   9.905  19.842  0.00  0.00    +0.000 C 
BRANCH  23  24
ATOM     24  C   UNL     1       0.283  10.838  20.680  0.00  0.00    +0.000 A 
ATOM     25  N   UNL     1       0.612  11.314  21.866  0.00  0.00    +0.000 NA
ATOM     26  N   UNL     1      -0.344  12.218  22.259  0.00  0.00    +0.000 NA
ATOM     27  C   UNL     1      -1.237  12.286  21.304  0.00  0.00    +0.000 A 
ATOM     28  N   UNL     1      -0.888  11.447  20.290  0.00  0.00    +0.000 N 
ATOM     29  C   UNL     1      -1.638  11.237  19.088  0.00  0.00    +0.000 C 
ENDBRANCH  23  24
ENDBRANCH   1  22
TORSDOF 4
ENDMDL
MODEL 5
REMARK VINA RESULT:      -8.4      0.975      1.566
REMARK  Name = 
REMARK  6 active torsions:
REMARK  status: ('A' for Active; 'I' for Inactive)
REMARK    1  A    between atoms: C_1  and  C_2
REMARK    2  A    between atoms: C_2  and  C_10
REMARK    3  A    between atoms: C_3  and  C_4
REMARK    4  A    between atoms: N_8  and  C_9
REMARK    5  A    between atoms: C_14  and  N_15
REMARK    6  A    between atoms: C_22  and  C_23
REMARK                            x       y       z     vdW  Elec       q    Type
REMARK                         _______ _______ _______ _____ _____    ______ ____
ROOT
ATOM      1  C   UNL     1       1.530   8.854  19.069  0.00  0.00    +0.000 A 
ATOM      2  C   UNL     1       2.274   9.180  17.928  0.00  0.00    +0.000 A 
ATOM      3  C   UNL     1       3.043   8.212  17.297  0.00  0.00    +0.000 A 
ATOM      4  C   UNL     1       3.150   6.944  17.858  0.00  0.00    +0.000 A 
ATOM      5  C   UNL     1       2.617   6.699  19.135  0.00  0.00    +0.000 A 
ATOM      6  C   UNL     1       1.682   7.597  19.662  0.00  0.00    +0.000 A 
ENDROOT
BRANCH   5   7
ATOM      7  N   UNL     1       3.359   5.858  20.072  0.00  0.00    +0.000 N 
ATOM      8  C   UNL     1       4.601   5.362  19.424  0.00  0.00    +0.000 C 
ATOM      9  C   UNL     1       4.124   4.099  18.773  0.00  0.00    +0.000 A 
ATOM     10  C   UNL     1       3.060   3.615  19.543  0.00  0.00    +0.000 A 
ATOM     11  C   UNL     1       2.255   2.564  19.142  0.00  0.00    +0.000 A 
ATOM     12  C   UNL     1       2.525   1.995  17.899  0.00  0.00    +0.000 A 
ATOM     13  C   UNL     1       3.577   2.485  17.099  0.00  0.00    +0.000 A 
ATOM     14  C   UNL     1       4.402   3.549  17.524  0.00  0.00    +0.000 A 
ATOM     15  C   UNL     1       2.680   4.685  20.499  0.00  0.00    +0.000 C 
ATOM     16  O   UNL     1       1.793   4.582  21.327  0.00  0.00    +0.000 OA
BRANCH  14  17
ATOM     17  C   UNL     1       5.432   4.107  16.575  0.00  0.00    +0.000 C 
ATOM     18  F   UNL     1       5.835   3.234  15.613  0.00  0.00    +0.000 F 
ATOM     19  F   UNL     1       4.975   5.202  15.907  0.00  0.00    +0.000 F 
ATOM     20  F   UNL     1       6.566   4.506  17.214  0.00  0.00    +0.000 F 
ENDBRANCH  14  17
ENDBRANCH   5   7
BRANCH   1  22
ATOM     21  C   UNL     1      -0.582  10.198  18.868  0.00  0.00    +0.000 C 
ATOM     22  C   UNL     1       0.650   9.870  19.665  0.00  0.00    +0.000 C 
ATOM     23  C   UNL     1       1.037  10.370  20.852  0.00  0.00    +0.000 C 
BRANCH  23  24
ATOM     24  C   UNL     1       0.263  11.283  21.605  0.00  0.00    +0.000 A 
ATOM     25  N   UNL     1       0.126  12.592  21.500  0.00  0.00    +0.000 NA
ATOM     26  N   UNL     1      -0.762  13.021  22.456  0.00  0.00    +0.000 NA
ATOM     27  C   UNL     1      -1.160  11.967  23.124  0.00  0.00    +0.000 A 
ATOM     28  N   UNL     1      -0.554  10.854  22.627  0.00  0.00    +0.000 N 
ATOM     29  C   UNL     1      -0.726   9.521  23.121  0.00  0.00    +0.000 C 
ENDBRANCH  23  24
ENDBRANCH   1  22
TORSDOF 4
ENDMDL
MODEL 6
REMARK VINA RESULT:      -8.2      0.813      1.190
REMARK  Name = 
REMARK  6 active torsions:
REMARK  status: ('A' for Active; 'I' for Inactive)
REMARK    1  A    between atoms: C_1  and  C_2
REMARK    2  A    between atoms: C_2  and  C_10
REMARK    3  A    between atoms: C_3  and  C_4
REMARK    4  A    between atoms: N_8  and  C_9
REMARK    5  A    between atoms: C_14  and  N_15
REMARK    6  A    between atoms: C_22  and  C_23
REMARK                            x       y       z     vdW  Elec       q    Type
REMARK                         _______ _______ _______ _____ _____    ______ ____
ROOT
ATOM      1  C   UNL     1       1.432   8.701  19.357  0.00  0.00    +0.000 A 
ATOM      2  C   UNL     1       2.113   9.118  18.206  0.00  0.00    +0.000 A 
ATOM      3  C   UNL     1       2.899   8.218  17.497  0.00  0.00    +0.000 A 
ATOM      4  C   UNL     1       3.086   6.931  17.989  0.00  0.00    +0.000 A 
ATOM      5  C   UNL     1       2.617   6.599  19.272  0.00  0.00    +0.000 A 
ATOM      6  C   UNL     1       1.665   7.426  19.879  0.00  0.00    +0.000 A 
ENDROOT
BRANCH   5   7
ATOM      7  N   UNL     1       3.434   5.749  20.135  0.00  0.00    +0.000 N 
ATOM      8  C   UNL     1       4.656   5.323  19.406  0.00  0.00    +0.000 C 
ATOM      9  C   UNL     1       4.188   4.069  18.730  0.00  0.00    +0.000 A 
ATOM     10  C   UNL     1       3.182   3.519  19.533  0.00  0.00    +0.000 A 
ATOM     11  C   UNL     1       2.392   2.457  19.131  0.00  0.00    +0.000 A 
ATOM     12  C   UNL     1       2.616   1.945  17.855  0.00  0.00    +0.000 A 
ATOM     13  C   UNL     1       3.608   2.502  17.023  0.00  0.00    +0.000 A 
ATOM     14  C   UNL     1       4.419   3.577  17.448  0.00  0.00    +0.000 A 
ATOM     15  C   UNL     1       2.817   4.538  20.549  0.00  0.00    +0.000 C 
ATOM     16  O   UNL     1       1.979   4.373  21.416  0.00  0.00    +0.000 OA
BRANCH  14  17
ATOM     17  C   UNL     1       5.379   4.206  16.470  0.00  0.00    +0.000 C 
ATOM     18  F   UNL     1       4.899   5.321  15.855  0.00  0.00    +0.000 F 
ATOM     19  F   UNL     1       6.541   4.589  17.066  0.00  0.00    +0.000 F 
ATOM     20  F   UNL     1       5.735   3.353  15.470  0.00  0.00    +0.000 F 
ENDBRANCH  14  17
ENDBRANCH   5   7
BRANCH   1  22
ATOM     21  C   UNL     1       0.174   9.281  21.451  0.00  0.00    +0.000 C 
ATOM     22  C   UNL     1       0.532   9.644  20.037  0.00  0.00    +0.000 C 
ATOM     23  C   UNL     1       0.150  10.720  19.326  0.00  0.00    +0.000 C 
BRANCH  23  24
ATOM     24  C   UNL     1      -0.636  11.769  19.858  0.00  0.00    +0.000 A 
ATOM     25  N   UNL     1      -1.945  11.934  19.896  0.00  0.00    +0.000 NA
ATOM     26  N   UNL     1      -2.222  13.114  20.543  0.00  0.00    +0.000 NA
ATOM     27  C   UNL     1      -1.079  13.646  20.896  0.00  0.00    +0.000 A 
ATOM     28  N   UNL     1      -0.056  12.841  20.497  0.00  0.00    +0.000 N 
ATOM     29  C   UNL     1       1.338  13.110  20.687  0.00  0.00    +0.000 C 
ENDBRANCH  23  24
ENDBRANCH   1  22
TORSDOF 4
ENDMDL
MODEL 7
REMARK VINA RESULT:      -8.0      2.894      3.648
REMARK  Name = 
REMARK  6 active torsions:
REMARK  status: ('A' for Active; 'I' for Inactive)
REMARK    1  A    between atoms: C_1  and  C_2
REMARK    2  A    between atoms: C_2  and  C_10
REMARK    3  A    between atoms: C_3  and  C_4
REMARK    4  A    between atoms: N_8  and  C_9
REMARK    5  A    between atoms: C_14  and  N_15
REMARK    6  A    between atoms: C_22  and  C_23
REMARK                            x       y       z     vdW  Elec       q    Type
REMARK                         _______ _______ _______ _____ _____    ______ ____
ROOT
ATOM      1  C   UNL     1       1.273   9.023  19.250  0.00  0.00    +0.000 A 
ATOM      2  C   UNL     1       1.045   8.410  20.488  0.00  0.00    +0.000 A 
ATOM      3  C   UNL     1       1.740   7.258  20.835  0.00  0.00    +0.000 A 
ATOM      4  C   UNL     1       2.589   6.662  19.909  0.00  0.00    +0.000 A 
ATOM      5  C   UNL     1       2.615   7.130  18.584  0.00  0.00    +0.000 A 
ATOM      6  C   UNL     1       2.083   8.393  18.301  0.00  0.00    +0.000 A 
ENDROOT
BRANCH   5   7
ATOM      7  N   UNL     1       2.713   6.169  17.487  0.00  0.00    +0.000 N 
ATOM      8  C   UNL     1       1.778   5.039  17.726  0.00  0.00    +0.000 C 
ATOM      9  C   UNL     1       2.629   4.103  18.532  0.00  0.00    +0.000 A 
ATOM     10  C   UNL     1       3.958   4.322  18.149  0.00  0.00    +0.000 A 
ATOM     11  C   UNL     1       5.036   3.765  18.814  0.00  0.00    +0.000 A 
ATOM     12  C   UNL     1       4.757   2.973  19.925  0.00  0.00    +0.000 A 
ATOM     13  C   UNL     1       3.426   2.761  20.339  0.00  0.00    +0.000 A 
ATOM     14  C   UNL     1       2.332   3.322  19.645  0.00  0.00    +0.000 A 
ATOM     15  C   UNL     1       3.987   5.559  17.329  0.00  0.00    +0.000 C 
ATOM     16  O   UNL     1       4.993   6.025  16.826  0.00  0.00    +0.000 OA
BRANCH  14  17
ATOM     17  C   UNL     1       0.942   3.159  20.206  0.00  0.00    +0.000 C 
ATOM     18  F   UNL     1       0.896   2.519  21.405  0.00  0.00    +0.000 F 
ATOM     19  F   UNL     1       0.325   4.356  20.405  0.00  0.00    +0.000 F 
ATOM     20  F   UNL     1       0.126   2.451  19.376  0.00  0.00    +0.000 F 
ENDBRANCH  14  17
ENDBRANCH   5   7
BRANCH   1  22
ATOM     21  C   UNL     1      -0.619  10.175  18.067  0.00  0.00    +0.000 C 
ATOM     22  C   UNL     1       0.596  10.292  18.944  0.00  0.00    +0.000 C 
ATOM     23  C   UNL     1       1.129  11.398  19.493  0.00  0.00    +0.000 C 
BRANCH  23  24
ATOM     24  C   UNL     1       0.551  12.684  19.377  0.00  0.00    +0.000 A 
ATOM     25  N   UNL     1       0.642  13.589  18.421  0.00  0.00    +0.000 NA
ATOM     26  N   UNL     1      -0.126  14.675  18.766  0.00  0.00    +0.000 NA
ATOM     27  C   UNL     1      -0.680  14.411  19.923  0.00  0.00    +0.000 A 
ATOM     28  N   UNL     1      -0.294  13.176  20.346  0.00  0.00    +0.000 N 
ATOM     29  C   UNL     1      -0.681  12.559  21.579  0.00  0.00    +0.000 C 
ENDBRANCH  23  24
ENDBRANCH   1  22
TORSDOF 4
ENDMDL
MODEL 8
REMARK VINA RESULT:      -8.0      2.996      3.743
REMARK  Name = 
REMARK  6 active torsions:
REMARK  status: ('A' for Active; 'I' for Inactive)
REMARK    1  A    between atoms: C_1  and  C_2
REMARK    2  A    between atoms: C_2  and  C_10
REMARK    3  A    between atoms: C_3  and  C_4
REMARK    4  A    between atoms: N_8  and  C_9
REMARK    5  A    between atoms: C_14  and  N_15
REMARK    6  A    between atoms: C_22  and  C_23
REMARK                            x       y       z     vdW  Elec       q    Type
REMARK                         _______ _______ _______ _____ _____    ______ ____
ROOT
ATOM      1  C   UNL     1       1.210   9.121  19.379  0.00  0.00    +0.000 A 
ATOM      2  C   UNL     1       0.932   8.461  20.583  0.00  0.00    +0.000 A 
ATOM      3  C   UNL     1       1.599   7.286  20.904  0.00  0.00    +0.000 A 
ATOM      4  C   UNL     1       2.471   6.716  19.983  0.00  0.00    +0.000 A 
ATOM      5  C   UNL     1       2.548   7.237  18.680  0.00  0.00    +0.000 A 
ATOM      6  C   UNL     1       2.043   8.518  18.433  0.00  0.00    +0.000 A 
ENDROOT
BRANCH   5   7
ATOM      7  N   UNL     1       2.670   6.321  17.548  0.00  0.00    +0.000 N 
ATOM      8  C   UNL     1       1.761   5.162  17.742  0.00  0.00    +0.000 C 
ATOM      9  C   UNL     1       2.632   4.216  18.514  0.00  0.00    +0.000 A 
ATOM     10  C   UNL     1       3.956   4.479  18.143  0.00  0.00    +0.000 A 
ATOM     11  C   UNL     1       5.045   3.923  18.790  0.00  0.00    +0.000 A 
ATOM     12  C   UNL     1       4.783   3.083  19.869  0.00  0.00    +0.000 A 
ATOM     13  C   UNL     1       3.457   2.825  20.272  0.00  0.00    +0.000 A 
ATOM     14  C   UNL     1       2.351   3.387  19.596  0.00  0.00    +0.000 A 
ATOM     15  C   UNL     1       3.958   5.747  17.371  0.00  0.00    +0.000 C 
ATOM     16  O   UNL     1       4.953   6.255  16.888  0.00  0.00    +0.000 OA
BRANCH  14  17
ATOM     17  C   UNL     1       0.965   3.170  20.147  0.00  0.00    +0.000 C 
ATOM     18  F   UNL     1       0.137   2.478  19.319  0.00  0.00    +0.000 F 
ATOM     19  F   UNL     1       0.980   2.474  21.316  0.00  0.00    +0.000 F 
ATOM     20  F   UNL     1       0.325   4.342  20.418  0.00  0.00    +0.000 F 
ENDBRANCH  14  17
ENDBRANCH   5   7
BRANCH   1  22
ATOM     21  C   UNL     1      -0.671  10.339  18.246  0.00  0.00    +0.000 C 
ATOM     22  C   UNL     1       0.561  10.412  19.104  0.00  0.00    +0.000 C 
ATOM     23  C   UNL     1       1.132  11.495  19.661  0.00  0.00    +0.000 C 
BRANCH  23  24
ATOM     24  C   UNL     1       0.585  12.797  19.574  0.00  0.00    +0.000 A 
ATOM     25  N   UNL     1      -0.509  13.311  20.103  0.00  0.00    +0.000 NA
ATOM     26  N   UNL     1      -0.595  14.634  19.742  0.00  0.00    +0.000 NA
ATOM     27  C   UNL     1       0.454  14.909  19.007  0.00  0.00    +0.000 A 
ATOM     28  N   UNL     1       1.227  13.795  18.877  0.00  0.00    +0.000 N 
ATOM     29  C   UNL     1       2.441  13.708  18.123  0.00  0.00    +0.000 C 
ENDBRANCH  23  24
ENDBRANCH   1  22
TORSDOF 4
ENDMDL
MODEL 9
REMARK VINA RESULT:      -7.9      1.048      1.564
REMARK  Name = 
REMARK  6 active torsions:
REMARK  status: ('A' for Active; 'I' for Inactive)
REMARK    1  A    between atoms: C_1  and  C_2
REMARK    2  A    between atoms: C_2  and  C_10
REMARK    3  A    between atoms: C_3  and  C_4
REMARK    4  A    between atoms: N_8  and  C_9
REMARK    5  A    between atoms: C_14  and  N_15
REMARK    6  A    between atoms: C_22  and  C_23
REMARK                            x       y       z     vdW  Elec       q    Type
REMARK                         _______ _______ _______ _____ _____    ______ ____
ROOT
ATOM      1  C   UNL     1       1.701   8.882  18.992  0.00  0.00    +0.000 A 
ATOM      2  C   UNL     1       2.317   9.011  17.740  0.00  0.00    +0.000 A 
ATOM      3  C   UNL     1       2.899   7.906  17.132  0.00  0.00    +0.000 A 
ATOM      4  C   UNL     1       2.954   6.695  17.813  0.00  0.00    +0.000 A 
ATOM      5  C   UNL     1       2.572   6.637  19.164  0.00  0.00    +0.000 A 
ATOM      6  C   UNL     1       1.807   7.680  19.697  0.00  0.00    +0.000 A 
ENDROOT
BRANCH   5   7
ATOM      7  N   UNL     1       3.345   5.814  20.092  0.00  0.00    +0.000 N 
ATOM      8  C   UNL     1       4.593   5.352  19.431  0.00  0.00    +0.000 C 
ATOM      9  C   UNL     1       4.143   4.077  18.783  0.00  0.00    +0.000 A 
ATOM     10  C   UNL     1       3.100   3.565  19.563  0.00  0.00    +0.000 A 
ATOM     11  C   UNL     1       2.319   2.494  19.168  0.00  0.00    +0.000 A 
ATOM     12  C   UNL     1       2.591   1.933  17.922  0.00  0.00    +0.000 A 
ATOM     13  C   UNL     1       3.622   2.452  17.113  0.00  0.00    +0.000 A 
ATOM     14  C   UNL     1       4.423   3.537  17.531  0.00  0.00    +0.000 A 
ATOM     15  C   UNL     1       2.702   4.623  20.525  0.00  0.00    +0.000 C 
ATOM     16  O   UNL     1       1.826   4.496  21.361  0.00  0.00    +0.000 OA
BRANCH  14  17
ATOM     17  C   UNL     1       5.428   4.123  16.572  0.00  0.00    +0.000 C 
ATOM     18  F   UNL     1       4.991   5.229  15.912  0.00  0.00    +0.000 F 
ATOM     19  F   UNL     1       6.577   4.499  17.199  0.00  0.00    +0.000 F 
ATOM     20  F   UNL     1       5.802   3.238  15.606  0.00  0.00    +0.000 F 
ENDBRANCH  14  17
ENDBRANCH   5   7
BRANCH   1  22
ATOM     21  C   UNL     1       1.472  11.382  19.069  0.00  0.00    +0.000 C 
ATOM     22  C   UNL     1       1.010  10.042  19.573  0.00  0.00    +0.000 C 
ATOM     23  C   UNL     1       0.043   9.772  20.468  0.00  0.00    +0.000 C 
BRANCH  23  24
ATOM     24  C   UNL     1      -0.781  10.763  21.051  0.00  0.00    +0.000 A 
ATOM     25  N   UNL     1      -1.473  11.744  20.502  0.00  0.00    +0.000 NA
ATOM     26  N   UNL     1      -2.134  12.427  21.493  0.00  0.00    +0.000 NA
ATOM     27  C   UNL     1      -1.844  11.846  22.631  0.00  0.00    +0.000 A 
ATOM     28  N   UNL     1      -1.006  10.796  22.408  0.00  0.00    +0.000 N 
ATOM     29  C   UNL     1      -0.455   9.941  23.417  0.00  0.00    +0.000 C 
ENDBRANCH  23  24
ENDBRANCH   1  22
TORSDOF 4
ENDMDL
