MODEL 1
REMARK VINA RESULT:      -9.0      0.000      0.000
REMARK  Name = 
REMARK  3 active torsions:
REMARK  status: ('A' for Active; 'I' for Inactive)
REMARK    1  A    between atoms: C_1  and  C_2
REMARK    2  A    between atoms: C_8  and  C_9
REMARK    3  A    between atoms: C_14  and  C_15
REMARK                            x       y       z     vdW  Elec       q    Type
REMARK                         _______ _______ _______ _____ _____    ______ ____
ROOT
ATOM      1  C   UNL     1      -0.027  10.675  21.923  0.00  0.00    +0.000 C 
ATOM      2  O   UNL     1       0.557   9.778  22.523  0.00  0.00    +0.000 OA
ATOM      3  N   UNL     1      -0.075  10.847  20.553  0.00  0.00    +0.000 N 
ATOM      4  C   UNL     1       0.588  10.021  19.688  0.00  0.00    +0.000 A 
ATOM      5  N   UNL     1       1.174   8.884  19.939  0.00  0.00    +0.000 NA
ATOM      6  C   UNL     1       1.834   8.404  18.811  0.00  0.00    +0.000 A 
ATOM      7  C   UNL     1       1.707   9.215  17.699  0.00  0.00    +0.000 A 
ATOM      8  S   UNL     1       0.693  10.563  18.075  0.00  0.00    +0.000 S 
ATOM      9  H   UNL     1      -0.525  11.675  20.187  0.00  0.00    +0.000 HD
ENDROOT
BRANCH   6  10
ATOM     10  C   UNL     1       2.608   7.165  18.912  0.00  0.00    +0.000 A 
ATOM     11  C   UNL     1       3.755   6.861  18.166  0.00  0.00    +0.000 A 
ATOM     12  C   UNL     1       4.443   5.651  18.383  0.00  0.00    +0.000 A 
ATOM     13  C   UNL     1       3.983   4.734  19.335  0.00  0.00    +0.000 A 
ATOM     14  C   UNL     1       2.840   5.016  20.069  0.00  0.00    +0.000 A 
ATOM     15  C   UNL     1       2.171   6.223  19.854  0.00  0.00    +0.000 A 
ATOM     16  C   UNL     1       2.351   4.113  21.153  0.00  0.00    +0.000 C 
ATOM     17  C   UNL     1       2.956   2.724  21.155  0.00  0.00    +0.000 C 
ATOM     18  C   UNL     1       4.285   2.575  20.452  0.00  0.00    +0.000 C 
ATOM     19  O   UNL     1       4.975   1.568  20.604  0.00  0.00    +0.000 OA
ATOM     20  N   UNL     1       4.675   3.546  19.573  0.00  0.00    +0.000 N 
ATOM     21  H   UNL     1       5.539   3.357  19.085  0.00  0.00    +0.000 HD
ENDBRANCH   6  10
BRANCH   1  29
ATOM     22  C   UNL     1      -4.550  12.296  24.526  0.00  0.00    +0.000 C 
ATOM     23  C   UNL     1      -3.431  13.268  24.314  0.00  0.00    +0.000 A 
ATOM     24  C   UNL     1      -3.492  14.551  24.715  0.00  0.00    +0.000 A 
ATOM     25  C   UNL     1      -2.282  15.375  24.434  0.00  0.00    +0.000 A 
ATOM     26  N   UNL     1      -1.196  14.976  23.856  0.00  0.00    +0.000 NA
ATOM     27  C   UNL     1      -1.175  13.671  23.456  0.00  0.00    +0.000 A 
ATOM     28  N   UNL     1      -0.221  13.005  22.840  0.00  0.00    +0.000 NA
ATOM     29  C   UNL     1      -0.762  11.751  22.640  0.00  0.00    +0.000 A 
ATOM     30  N   UNL     1      -1.994  11.597  23.158  0.00  0.00    +0.000 NA
ATOM     31  N   UNL     1      -2.269  12.817  23.668  0.00  0.00    +0.000 N 
ENDBRANCH   1  29
TORSDOF 2
ENDMDL
MODEL 2
REMARK VINA RESULT:      -8.6      1.165      1.742
REMARK  Name = 
REMARK  3 active torsions:
REMARK  status: ('A' for Active; 'I' for Inactive)
REMARK    1  A    between atoms: C_1  and  C_2
REMARK    2  A    between atoms: C_8  and  C_9
REMARK    3  A    between atoms: C_14  and  C_15
REMARK                            x       y       z     vdW  Elec       q    Type
REMARK                         _______ _______ _______ _____ _____    ______ ____
ROOT
ATOM      1  C   UNL     1      -0.582  11.017  22.248  0.00  0.00    +0.000 C 
ATOM      2  O   UNL     1      -0.441   9.957  22.851  0.00  0.00    +0.000 OA
ATOM      3  N   UNL     1      -0.170  11.284  20.957  0.00  0.00    +0.000 N 
ATOM      4  C   UNL     1       0.503  10.368  20.198  0.00  0.00    +0.000 A 
ATOM      5  N   UNL     1       0.693   9.099  20.435  0.00  0.00    +0.000 NA
ATOM      6  C   UNL     1       1.527   8.533  19.474  0.00  0.00    +0.000 A 
ATOM      7  C   UNL     1       1.941   9.418  18.498  0.00  0.00    +0.000 A 
ATOM      8  S   UNL     1       1.218  10.965  18.770  0.00  0.00    +0.000 S 
ATOM      9  H   UNL     1      -0.275  12.226  20.603  0.00  0.00    +0.000 HD
ENDROOT
BRANCH   6  10
ATOM     10  C   UNL     1       1.910   7.126  19.606  0.00  0.00    +0.000 A 
ATOM     11  C   UNL     1       1.664   6.318  20.725  0.00  0.00    +0.000 A 
ATOM     12  C   UNL     1       2.042   4.961  20.719  0.00  0.00    +0.000 A 
ATOM     13  C   UNL     1       2.677   4.406  19.601  0.00  0.00    +0.000 A 
ATOM     14  C   UNL     1       2.939   5.199  18.493  0.00  0.00    +0.000 A 
ATOM     15  C   UNL     1       2.552   6.540  18.505  0.00  0.00    +0.000 A 
ATOM     16  C   UNL     1       3.539   4.641  17.244  0.00  0.00    +0.000 C 
ATOM     17  C   UNL     1       4.166   3.270  17.388  0.00  0.00    +0.000 C 
ATOM     18  C   UNL     1       3.683   2.435  18.552  0.00  0.00    +0.000 C 
ATOM     19  O   UNL     1       3.934   1.233  18.620  0.00  0.00    +0.000 OA
ATOM     20  N   UNL     1       3.029   3.057  19.579  0.00  0.00    +0.000 N 
ATOM     21  H   UNL     1       2.791   2.459  20.357  0.00  0.00    +0.000 HD
ENDBRANCH   6  10
BRANCH   1  29
ATOM     22  C   UNL     1      -5.128  13.509  23.972  0.00  0.00    +0.000 C 
ATOM     23  C   UNL     1      -3.812  14.215  24.080  0.00  0.00    +0.000 A 
ATOM     24  C   UNL     1      -3.691  15.465  24.565  0.00  0.00    +0.000 A 
ATOM     25  C   UNL     1      -2.304  16.009  24.613  0.00  0.00    +0.000 A 
ATOM     26  N   UNL     1      -1.224  15.399  24.244  0.00  0.00    +0.000 NA
ATOM     27  C   UNL     1      -1.389  14.137  23.750  0.00  0.00    +0.000 A 
ATOM     28  N   UNL     1      -0.483  13.298  23.295  0.00  0.00    +0.000 NA
ATOM     29  C   UNL     1      -1.216  12.203  22.882  0.00  0.00    +0.000 A 
ATOM     30  N   UNL     1      -2.536  12.308  23.116  0.00  0.00    +0.000 NA
ATOM     31  N   UNL     1      -2.656  13.541  23.657  0.00  0.00    +0.000 N 
ENDBRANCH   1  29
TORSDOF 2
ENDMDL
MODEL 3
REMARK VINA RESULT:      -8.5      0.737      1.565
REMARK  Name = 
REMARK  3 active torsions:
REMARK  status: ('A' for Active; 'I' for Inactive)
REMARK    1  A    between atoms: C_1  and  C_2
REMARK    2  A    between atoms: C_8  and  C_9
REMARK    3  A    between atoms: C_14  and  C_15
REMARK                            x       y       z     vdW  Elec       q    Type
REMARK                         _______ _______ _______ _____ _____    ______ ____
ROOT
ATOM      1  C   UNL     1       0.089  10.343  21.692  0.00  0.00    +0.000 C 
ATOM      2  O   UNL     1       0.619   9.425  22.312  0.00  0.00    +0.000 OA
ATOM      3  N   UNL     1       0.146  10.545  20.326  0.00  0.00    +0.000 N 
ATOM      4  C   UNL     1       0.862   9.732  19.493  0.00  0.00    +0.000 A 
ATOM      5  N   UNL     1       1.416   8.581  19.760  0.00  0.00    +0.000 NA
ATOM      6  C   UNL     1       2.153   8.119  18.673  0.00  0.00    +0.000 A 
ATOM      7  C   UNL     1       2.116   8.956  17.575  0.00  0.00    +0.000 A 
ATOM      8  S   UNL     1       1.091  10.308  17.905  0.00  0.00    +0.000 S 
ATOM      9  H   UNL     1      -0.268  11.386  19.947  0.00  0.00    +0.000 HD
ENDROOT
BRANCH   6  10
ATOM     10  C   UNL     1       2.904   6.869  18.802  0.00  0.00    +0.000 A 
ATOM     11  C   UNL     1       4.063   6.541  18.086  0.00  0.00    +0.000 A 
ATOM     12  C   UNL     1       4.726   5.321  18.328  0.00  0.00    +0.000 A 
ATOM     13  C   UNL     1       4.230   4.420  19.277  0.00  0.00    +0.000 A 
ATOM     14  C   UNL     1       3.075   4.727  19.982  0.00  0.00    +0.000 A 
ATOM     15  C   UNL     1       2.430   5.942  19.742  0.00  0.00    +0.000 A 
ATOM     16  C   UNL     1       2.546   3.841  21.062  0.00  0.00    +0.000 C 
ATOM     17  C   UNL     1       3.129   2.443  21.089  0.00  0.00    +0.000 C 
ATOM     18  C   UNL     1       4.471   2.267  20.418  0.00  0.00    +0.000 C 
ATOM     19  O   UNL     1       5.142   1.250  20.594  0.00  0.00    +0.000 OA
ATOM     20  N   UNL     1       4.897   3.223  19.541  0.00  0.00    +0.000 N 
ATOM     21  H   UNL     1       5.769   3.017  19.074  0.00  0.00    +0.000 HD
ENDBRANCH   6  10
BRANCH   1  29
ATOM     22  C   UNL     1      -0.280  15.568  23.245  0.00  0.00    +0.000 C 
ATOM     23  C   UNL     1      -1.360  14.605  23.628  0.00  0.00    +0.000 A 
ATOM     24  C   UNL     1      -2.426  14.960  24.370  0.00  0.00    +0.000 A 
ATOM     25  C   UNL     1      -3.412  13.877  24.646  0.00  0.00    +0.000 A 
ATOM     26  N   UNL     1      -3.343  12.650  24.239  0.00  0.00    +0.000 NA
ATOM     27  C   UNL     1      -2.244  12.327  23.497  0.00  0.00    +0.000 A 
ATOM     28  N   UNL     1      -1.909  11.169  22.969  0.00  0.00    +0.000 NA
ATOM     29  C   UNL     1      -0.685  11.411  22.377  0.00  0.00    +0.000 A 
ATOM     30  N   UNL     1      -0.275  12.688  22.469  0.00  0.00    +0.000 NA
ATOM     31  N   UNL     1      -1.255  13.276  23.191  0.00  0.00    +0.000 N 
ENDBRANCH   1  29
TORSDOF 2
ENDMDL
MODEL 4
REMARK VINA RESULT:      -8.5      3.906     10.177
REMARK  Name = 
REMARK  3 active torsions:
REMARK  status: ('A' for Active; 'I' for Inactive)
REMARK    1  A    between atoms: C_1  and  C_2
REMARK    2  A    between atoms: C_8  and  C_9
REMARK    3  A    between atoms: C_14  and  C_15
REMARK                            x       y       z     vdW  Elec       q    Type
REMARK                         _______ _______ _______ _____ _____    ______ ____
ROOT
ATOM      1  C   UNL     1       2.238   7.543  19.341  0.00  0.00    +0.000 C 
ATOM      2  O   UNL     1       2.651   8.364  18.527  0.00  0.00    +0.000 OA
ATOM      3  N   UNL     1       1.397   7.800  20.407  0.00  0.00    +0.000 N 
ATOM      4  C   UNL     1       0.951   9.058  20.702  0.00  0.00    +0.000 A 
ATOM      5  N   UNL     1       1.046  10.143  19.984  0.00  0.00    +0.000 NA
ATOM      6  C   UNL     1       0.568  11.247  20.683  0.00  0.00    +0.000 A 
ATOM      7  C   UNL     1       0.094  10.949  21.946  0.00  0.00    +0.000 A 
ATOM      8  S   UNL     1       0.202   9.246  22.222  0.00  0.00    +0.000 S 
ATOM      9  H   UNL     1       1.194   7.049  21.053  0.00  0.00    +0.000 HD
ENDROOT
BRANCH   6  10
ATOM     10  C   UNL     1       0.650  12.572  20.065  0.00  0.00    +0.000 A 
ATOM     11  C   UNL     1      -0.367  13.536  20.071  0.00  0.00    +0.000 A 
ATOM     12  C   UNL     1      -0.156  14.797  19.479  0.00  0.00    +0.000 A 
ATOM     13  C   UNL     1       1.067  15.097  18.867  0.00  0.00    +0.000 A 
ATOM     14  C   UNL     1       2.077  14.146  18.841  0.00  0.00    +0.000 A 
ATOM     15  C   UNL     1       1.862  12.903  19.440  0.00  0.00    +0.000 A 
ATOM     16  C   UNL     1       3.428  14.440  18.275  0.00  0.00    +0.000 C 
ATOM     17  C   UNL     1       3.510  15.689  17.422  0.00  0.00    +0.000 C 
ATOM     18  C   UNL     1       2.435  16.726  17.653  0.00  0.00    +0.000 C 
ATOM     19  O   UNL     1       2.544  17.866  17.203  0.00  0.00    +0.000 OA
ATOM     20  N   UNL     1       1.292  16.353  18.303  0.00  0.00    +0.000 N 
ATOM     21  H   UNL     1       0.584  17.070  18.367  0.00  0.00    +0.000 HD
ENDBRANCH   6  10
BRANCH   1  29
ATOM     22  C   UNL     1       0.786   2.312  18.720  0.00  0.00    +0.000 C 
ATOM     23  C   UNL     1       2.214   2.653  19.012  0.00  0.00    +0.000 A 
ATOM     24  C   UNL     1       3.173   1.720  19.158  0.00  0.00    +0.000 A 
ATOM     25  C   UNL     1       4.543   2.237  19.433  0.00  0.00    +0.000 A 
ATOM     26  N   UNL     1       4.892   3.479  19.537  0.00  0.00    +0.000 NA
ATOM     27  C   UNL     1       3.890   4.396  19.391  0.00  0.00    +0.000 A 
ATOM     28  N   UNL     1       3.949   5.708  19.458  0.00  0.00    +0.000 NA
ATOM     29  C   UNL     1       2.640   6.112  19.288  0.00  0.00    +0.000 A 
ATOM     30  N   UNL     1       1.780   5.103  19.062  0.00  0.00    +0.000 NA
ATOM     31  N   UNL     1       2.565   4.006  19.138  0.00  0.00    +0.000 N 
ENDBRANCH   1  29
TORSDOF 2
ENDMDL
MODEL 5
REMARK VINA RESULT:      -8.4      1.285      2.300
REMARK  Name = 
REMARK  3 active torsions:
REMARK  status: ('A' for Active; 'I' for Inactive)
REMARK    1  A    between atoms: C_1  and  C_2
REMARK    2  A    between atoms: C_8  and  C_9
REMARK    3  A    between atoms: C_14  and  C_15
REMARK                            x       y       z     vdW  Elec       q    Type
REMARK                         _______ _______ _______ _____ _____    ______ ____
ROOT
ATOM      1  C   UNL     1      -0.480  10.910  22.215  0.00  0.00    +0.000 C 
ATOM      2  O   UNL     1      -0.348   9.852  22.823  0.00  0.00    +0.000 OA
ATOM      3  N   UNL     1      -0.070  11.166  20.920  0.00  0.00    +0.000 N 
ATOM      4  C   UNL     1       0.590  10.238  20.164  0.00  0.00    +0.000 A 
ATOM      5  N   UNL     1       0.768   8.969  20.407  0.00  0.00    +0.000 NA
ATOM      6  C   UNL     1       1.592   8.388  19.448  0.00  0.00    +0.000 A 
ATOM      7  C   UNL     1       2.012   9.264  18.465  0.00  0.00    +0.000 A 
ATOM      8  S   UNL     1       1.306  10.819  18.730  0.00  0.00    +0.000 S 
ATOM      9  H   UNL     1      -0.167  12.106  20.561  0.00  0.00    +0.000 HD
ENDROOT
BRANCH   6  10
ATOM     10  C   UNL     1       1.961   6.979  19.586  0.00  0.00    +0.000 A 
ATOM     11  C   UNL     1       1.746   6.190  20.725  0.00  0.00    +0.000 A 
ATOM     12  C   UNL     1       2.105   4.828  20.725  0.00  0.00    +0.000 A 
ATOM     13  C   UNL     1       2.692   4.249  19.593  0.00  0.00    +0.000 A 
ATOM     14  C   UNL     1       2.924   5.022  18.464  0.00  0.00    +0.000 A 
ATOM     15  C   UNL     1       2.555   6.369  18.471  0.00  0.00    +0.000 A 
ATOM     16  C   UNL     1       3.471   4.439  17.203  0.00  0.00    +0.000 C 
ATOM     17  C   UNL     1       4.085   3.061  17.345  0.00  0.00    +0.000 C 
ATOM     18  C   UNL     1       3.633   2.250  18.538  0.00  0.00    +0.000 C 
ATOM     19  O   UNL     1       3.871   1.045  18.614  0.00  0.00    +0.000 OA
ATOM     20  N   UNL     1       3.025   2.894  19.578  0.00  0.00    +0.000 N 
ATOM     21  H   UNL     1       2.808   2.311  20.373  0.00  0.00    +0.000 HD
ENDBRANCH   6  10
BRANCH   1  29
ATOM     22  C   UNL     1       0.023  16.089  23.882  0.00  0.00    +0.000 C 
ATOM     23  C   UNL     1      -1.264  15.360  24.113  0.00  0.00    +0.000 A 
ATOM     24  C   UNL     1      -2.315  15.915  24.744  0.00  0.00    +0.000 A 
ATOM     25  C   UNL     1      -3.522  15.051  24.875  0.00  0.00    +0.000 A 
ATOM     26  N   UNL     1      -3.652  13.839  24.441  0.00  0.00    +0.000 NA
ATOM     27  C   UNL     1      -2.562  13.307  23.814  0.00  0.00    +0.000 A 
ATOM     28  N   UNL     1      -2.407  12.111  23.290  0.00  0.00    +0.000 NA
ATOM     29  C   UNL     1      -1.100  12.107  22.844  0.00  0.00    +0.000 A 
ATOM     30  N   UNL     1      -0.457  13.274  23.021  0.00  0.00    +0.000 NA
ATOM     31  N   UNL     1      -1.377  14.040  23.649  0.00  0.00    +0.000 N 
ENDBRANCH   1  29
TORSDOF 2
ENDMDL
MODEL 6
REMARK VINA RESULT:      -8.2      4.079     10.286
REMARK  Name = 
REMARK  3 active torsions:
REMARK  status: ('A' for Active; 'I' for Inactive)
REMARK    1  A    between atoms: C_1  and  C_2
REMARK    2  A    between atoms: C_8  and  C_9
REMARK    3  A    between atoms: C_14  and  C_15
REMARK                            x       y       z     vdW  Elec       q    Type
REMARK                         _______ _______ _______ _____ _____    ______ ____
ROOT
ATOM      1  C   UNL     1       1.959   8.164  19.173  0.00  0.00    +0.000 C 
ATOM      2  O   UNL     1       2.286   9.000  18.336  0.00  0.00    +0.000 OA
ATOM      3  N   UNL     1       1.192   8.391  20.300  0.00  0.00    +0.000 N 
ATOM      4  C   UNL     1       0.732   9.635  20.635  0.00  0.00    +0.000 A 
ATOM      5  N   UNL     1       0.742  10.724  19.918  0.00  0.00    +0.000 NA
ATOM      6  C   UNL     1       0.284  11.811  20.658  0.00  0.00    +0.000 A 
ATOM      7  C   UNL     1      -0.086  11.494  21.951  0.00  0.00    +0.000 A 
ATOM      8  S   UNL     1       0.092   9.793  22.207  0.00  0.00    +0.000 S 
ATOM      9  H   UNL     1       1.059   7.632  20.954  0.00  0.00    +0.000 HD
ENDROOT
BRANCH   6  10
ATOM     10  C   UNL     1       0.281  13.140  20.044  0.00  0.00    +0.000 A 
ATOM     11  C   UNL     1      -0.805  14.026  20.030  0.00  0.00    +0.000 A 
ATOM     12  C   UNL     1      -0.675  15.301  19.445  0.00  0.00    +0.000 A 
ATOM     13  C   UNL     1       0.535  15.693  18.859  0.00  0.00    +0.000 A 
ATOM     14  C   UNL     1       1.613  14.819  18.853  0.00  0.00    +0.000 A 
ATOM     15  C   UNL     1       1.478  13.561  19.445  0.00  0.00    +0.000 A 
ATOM     16  C   UNL     1       2.950  15.213  18.316  0.00  0.00    +0.000 C 
ATOM     17  C   UNL     1       2.957  16.468  17.466  0.00  0.00    +0.000 C 
ATOM     18  C   UNL     1       1.803  17.422  17.677  0.00  0.00    +0.000 C 
ATOM     19  O   UNL     1       1.837  18.568  17.231  0.00  0.00    +0.000 OA
ATOM     20  N   UNL     1       0.678  16.963  18.301  0.00  0.00    +0.000 N 
ATOM     21  H   UNL     1      -0.082  17.626  18.352  0.00  0.00    +0.000 HD
ENDBRANCH   6  10
BRANCH   1  29
ATOM     22  C   UNL     1       2.285   3.226  21.489  0.00  0.00    +0.000 C 
ATOM     23  C   UNL     1       2.900   3.453  20.143  0.00  0.00    +0.000 A 
ATOM     24  C   UNL     1       3.563   2.494  19.471  0.00  0.00    +0.000 A 
ATOM     25  C   UNL     1       4.100   2.889  18.138  0.00  0.00    +0.000 A 
ATOM     26  N   UNL     1       3.983   4.048  17.574  0.00  0.00    +0.000 NA
ATOM     27  C   UNL     1       3.311   4.997  18.289  0.00  0.00    +0.000 A 
ATOM     28  N   UNL     1       3.055   6.249  17.974  0.00  0.00    +0.000 NA
ATOM     29  C   UNL     1       2.398   6.746  19.082  0.00  0.00    +0.000 A 
ATOM     30  N   UNL     1       2.188   5.835  20.049  0.00  0.00    +0.000 NA
ATOM     31  N   UNL     1       2.776   4.723  19.558  0.00  0.00    +0.000 N 
ENDBRANCH   1  29
TORSDOF 2
ENDMDL
MODEL 7
REMARK VINA RESULT:      -8.1      4.049     10.495
REMARK  Name = 
REMARK  3 active torsions:
REMARK  status: ('A' for Active; 'I' for Inactive)
REMARK    1  A    between atoms: C_1  and  C_2
REMARK    2  A    between atoms: C_8  and  C_9
REMARK    3  A    between atoms: C_14  and  C_15
REMARK                            x       y       z     vdW  Elec       q    Type
REMARK                         _______ _______ _______ _____ _____    ______ ____
ROOT
ATOM      1  C   UNL     1       2.195   7.833  18.922  0.00  0.00    +0.000 C 
ATOM      2  O   UNL     1       2.512   8.697  18.109  0.00  0.00    +0.000 OA
ATOM      3  N   UNL     1       1.445   8.023  20.066  0.00  0.00    +0.000 N 
ATOM      4  C   UNL     1       0.992   9.254  20.450  0.00  0.00    +0.000 A 
ATOM      5  N   UNL     1       0.993  10.368  19.771  0.00  0.00    +0.000 NA
ATOM      6  C   UNL     1       0.548  11.429  20.554  0.00  0.00    +0.000 A 
ATOM      7  C   UNL     1       0.195  11.068  21.840  0.00  0.00    +0.000 A 
ATOM      8  S   UNL     1       0.374   9.360  22.035  0.00  0.00    +0.000 S 
ATOM      9  H   UNL     1       1.320   7.241  20.696  0.00  0.00    +0.000 HD
ENDROOT
BRANCH   6  10
ATOM     10  C   UNL     1       0.539  12.778  19.985  0.00  0.00    +0.000 A 
ATOM     11  C   UNL     1      -0.541  13.672  20.032  0.00  0.00    +0.000 A 
ATOM     12  C   UNL     1      -0.416  14.965  19.487  0.00  0.00    +0.000 A 
ATOM     13  C   UNL     1       0.779  15.368  18.881  0.00  0.00    +0.000 A 
ATOM     14  C   UNL     1       1.850  14.488  18.815  0.00  0.00    +0.000 A 
ATOM     15  C   UNL     1       1.721  13.212  19.367  0.00  0.00    +0.000 A 
ATOM     16  C   UNL     1       3.175  14.891  18.254  0.00  0.00    +0.000 C 
ATOM     17  C   UNL     1       3.168  16.173  17.448  0.00  0.00    +0.000 C 
ATOM     18  C   UNL     1       2.028  17.128  17.723  0.00  0.00    +0.000 C 
ATOM     19  O   UNL     1       2.059  18.288  17.316  0.00  0.00    +0.000 OA
ATOM     20  N   UNL     1       0.917  16.656  18.363  0.00  0.00    +0.000 N 
ATOM     21  H   UNL     1       0.164  17.322  18.457  0.00  0.00    +0.000 HD
ENDBRANCH   6  10
BRANCH   1  29
ATOM     22  C   UNL     1       5.028   4.093  16.122  0.00  0.00    +0.000 C 
ATOM     23  C   UNL     1       4.227   3.672  17.315  0.00  0.00    +0.000 A 
ATOM     24  C   UNL     1       4.145   2.394  17.727  0.00  0.00    +0.000 A 
ATOM     25  C   UNL     1       3.314   2.156  18.941  0.00  0.00    +0.000 A 
ATOM     26  N   UNL     1       2.679   3.051  19.627  0.00  0.00    +0.000 NA
ATOM     27  C   UNL     1       2.779   4.335  19.173  0.00  0.00    +0.000 A 
ATOM     28  N   UNL     1       2.237   5.432  19.657  0.00  0.00    +0.000 NA
ATOM     29  C   UNL     1       2.631   6.419  18.776  0.00  0.00    +0.000 A 
ATOM     30  N   UNL     1       3.443   5.985  17.795  0.00  0.00    +0.000 NA
ATOM     31  N   UNL     1       3.532   4.658  18.033  0.00  0.00    +0.000 N 
ENDBRANCH   1  29
TORSDOF 2
ENDMDL
MODEL 8
REMARK VINA RESULT:      -8.1      2.786     10.471
REMARK  Name = 
REMARK  3 active torsions:
REMARK  status: ('A' for Active; 'I' for Inactive)
REMARK    1  A    between atoms: C_1  and  C_2
REMARK    2  A    between atoms: C_8  and  C_9
REMARK    3  A    between atoms: C_14  and  C_15
REMARK                            x       y       z     vdW  Elec       q    Type
REMARK                         _______ _______ _______ _____ _____    ______ ____
ROOT
ATOM      1  C   UNL     1       0.827   8.307  20.595  0.00  0.00    +0.000 C 
ATOM      2  O   UNL     1      -0.017   8.045  21.447  0.00  0.00    +0.000 OA
ATOM      3  N   UNL     1       1.004   9.524  19.966  0.00  0.00    +0.000 N 
ATOM      4  C   UNL     1       0.196  10.599  20.210  0.00  0.00    +0.000 A 
ATOM      5  N   UNL     1      -0.694  10.750  21.151  0.00  0.00    +0.000 NA
ATOM      6  C   UNL     1      -1.389  11.946  20.994  0.00  0.00    +0.000 A 
ATOM      7  C   UNL     1      -0.976  12.696  19.910  0.00  0.00    +0.000 A 
ATOM      8  S   UNL     1       0.344  11.904  19.122  0.00  0.00    +0.000 S 
ATOM      9  H   UNL     1       1.686   9.588  19.222  0.00  0.00    +0.000 HD
ENDROOT
BRANCH   6  10
ATOM     10  C   UNL     1      -2.477  12.264  21.920  0.00  0.00    +0.000 A 
ATOM     11  C   UNL     1      -2.380  12.261  23.319  0.00  0.00    +0.000 A 
ATOM     12  C   UNL     1      -3.487  12.629  24.109  0.00  0.00    +0.000 A 
ATOM     13  C   UNL     1      -4.698  12.989  23.508  0.00  0.00    +0.000 A 
ATOM     14  C   UNL     1      -4.812  12.982  22.125  0.00  0.00    +0.000 A 
ATOM     15  C   UNL     1      -3.707  12.625  21.350  0.00  0.00    +0.000 A 
ATOM     16  C   UNL     1      -6.054  13.435  21.430  0.00  0.00    +0.000 C 
ATOM     17  C   UNL     1      -7.279  13.553  22.313  0.00  0.00    +0.000 C 
ATOM     18  C   UNL     1      -7.021  13.713  23.793  0.00  0.00    +0.000 C 
ATOM     19  O   UNL     1      -7.917  14.062  24.561  0.00  0.00    +0.000 OA
ATOM     20  N   UNL     1      -5.790  13.380  24.284  0.00  0.00    +0.000 N 
ATOM     21  H   UNL     1      -5.700  13.444  25.288  0.00  0.00    +0.000 HD
ENDBRANCH   6  10
BRANCH   1  29
ATOM     22  C   UNL     1       4.666   6.887  16.976  0.00  0.00    +0.000 C 
ATOM     23  C   UNL     1       4.215   5.894  18.002  0.00  0.00    +0.000 A 
ATOM     24  C   UNL     1       4.696   4.639  18.065  0.00  0.00    +0.000 A 
ATOM     25  C   UNL     1       4.145   3.789  19.159  0.00  0.00    +0.000 A 
ATOM     26  N   UNL     1       3.267   4.143  20.041  0.00  0.00    +0.000 NA
ATOM     27  C   UNL     1       2.797   5.421  19.939  0.00  0.00    +0.000 A 
ATOM     28  N   UNL     1       1.903   6.039  20.681  0.00  0.00    +0.000 NA
ATOM     29  C   UNL     1       1.783   7.283  20.094  0.00  0.00    +0.000 A 
ATOM     30  N   UNL     1       2.608   7.479  19.051  0.00  0.00    +0.000 NA
ATOM     31  N   UNL     1       3.249   6.295  18.938  0.00  0.00    +0.000 N 
ENDBRANCH   1  29
TORSDOF 2
ENDMDL
MODEL 9
REMARK VINA RESULT:      -8.1      4.200     10.520
REMARK  Name = 
REMARK  3 active torsions:
REMARK  status: ('A' for Active; 'I' for Inactive)
REMARK    1  A    between atoms: C_1  and  C_2
REMARK    2  A    between atoms: C_8  and  C_9
REMARK    3  A    between atoms: C_14  and  C_15
REMARK                            x       y       z     vdW  Elec       q    Type
REMARK                         _______ _______ _______ _____ _____    ______ ____
ROOT
ATOM      1  C   UNL     1       2.220   8.099  18.371  0.00  0.00    +0.000 C 
ATOM      2  O   UNL     1       2.476   9.018  17.599  0.00  0.00    +0.000 OA
ATOM      3  N   UNL     1       1.522   8.200  19.560  0.00  0.00    +0.000 N 
ATOM      4  C   UNL     1       1.060   9.394  20.039  0.00  0.00    +0.000 A 
ATOM      5  N   UNL     1       1.002  10.546  19.429  0.00  0.00    +0.000 NA
ATOM      6  C   UNL     1       0.571  11.547  20.296  0.00  0.00    +0.000 A 
ATOM      7  C   UNL     1       0.290  11.100  21.573  0.00  0.00    +0.000 A 
ATOM      8  S   UNL     1       0.519   9.389  21.655  0.00  0.00    +0.000 S 
ATOM      9  H   UNL     1       1.448   7.379  20.146  0.00  0.00    +0.000 HD
ENDROOT
BRANCH   6  10
ATOM     10  C   UNL     1       0.501  12.926  19.811  0.00  0.00    +0.000 A 
ATOM     11  C   UNL     1      -0.600  13.782  19.953  0.00  0.00    +0.000 A 
ATOM     12  C   UNL     1      -0.533  15.109  19.483  0.00  0.00    +0.000 A 
ATOM     13  C   UNL     1       0.627  15.584  18.860  0.00  0.00    +0.000 A 
ATOM     14  C   UNL     1       1.718  14.742  18.700  0.00  0.00    +0.000 A 
ATOM     15  C   UNL     1       1.646  13.431  19.178  0.00  0.00    +0.000 A 
ATOM     16  C   UNL     1       3.008  15.218  18.116  0.00  0.00    +0.000 C 
ATOM     17  C   UNL     1       2.934  16.545  17.391  0.00  0.00    +0.000 C 
ATOM     18  C   UNL     1       1.780  17.446  17.765  0.00  0.00    +0.000 C 
ATOM     19  O   UNL     1       1.762  18.630  17.429  0.00  0.00    +0.000 OA
ATOM     20  N   UNL     1       0.708  16.904  18.416  0.00  0.00    +0.000 N 
ATOM     21  H   UNL     1      -0.059  17.540  18.579  0.00  0.00    +0.000 HD
ENDBRANCH   6  10
BRANCH   1  29
ATOM     22  C   UNL     1       1.259   2.732  18.728  0.00  0.00    +0.000 C 
ATOM     23  C   UNL     1       2.561   3.214  18.168  0.00  0.00    +0.000 A 
ATOM     24  C   UNL     1       3.536   2.379  17.763  0.00  0.00    +0.000 A 
ATOM     25  C   UNL     1       4.762   3.030  17.219  0.00  0.00    +0.000 A 
ATOM     26  N   UNL     1       4.968   4.302  17.096  0.00  0.00    +0.000 NA
ATOM     27  C   UNL     1       3.960   5.116  17.525  0.00  0.00    +0.000 A 
ATOM     28  N   UNL     1       3.900   6.431  17.533  0.00  0.00    +0.000 NA
ATOM     29  C   UNL     1       2.681   6.707  18.119  0.00  0.00    +0.000 A 
ATOM     30  N   UNL     1       1.959   5.615  18.424  0.00  0.00    +0.000 NA
ATOM     31  N   UNL     1       2.770   4.597  18.060  0.00  0.00    +0.000 N 
ENDBRANCH   1  29
TORSDOF 2
ENDMDL
