MODEL 1
REMARK VINA RESULT:      -8.9      0.000      0.000
REMARK  Name = 
REMARK  6 active torsions:
REMARK  status: ('A' for Active; 'I' for Inactive)
REMARK    1  A    between atoms: C_2  and  C_3
REMARK    2  A    between atoms: C_3  and  C_4
REMARK    3  A    between atoms: N_12  and  C_13
REMARK    4  A    between atoms: C_13  and  C_14
REMARK    5  A    between atoms: C_18  and  C_19
REMARK    6  A    between atoms: C_19  and  N_20
REMARK                            x       y       z     vdW  Elec       q    Type
REMARK                         _______ _______ _______ _____ _____    ______ ____
ROOT
ATOM      1  C   UNL     1       1.766   8.662  18.853  0.00  0.00    +0.000 A 
ATOM      2  C   UNL     1       1.627   8.352  20.208  0.00  0.00    +0.000 A 
ATOM      3  C   UNL     1       2.050   7.112  20.694  0.00  0.00    +0.000 A 
ATOM      4  C   UNL     1       2.601   6.160  19.826  0.00  0.00    +0.000 A 
ATOM      5  C   UNL     1       2.745   6.444  18.464  0.00  0.00    +0.000 A 
ATOM      6  C   UNL     1       2.349   7.711  18.001  0.00  0.00    +0.000 A 
ENDROOT
BRANCH   1   7
ATOM      7  C   UNL     1       1.256   9.955  18.283  0.00  0.00    +0.000 C 
BRANCH   7  10
ATOM      8  O   UNL     1      -1.001  10.445  19.778  0.00  0.00    +0.000 OA
ATOM      9  C   UNL     1      -1.145  10.123  18.601  0.00  0.00    +0.000 C 
ATOM     10  N   UNL     1      -0.087   9.858  17.762  0.00  0.00    +0.000 N 
ATOM     11  H   UNL     1      -0.236   9.271  16.950  0.00  0.00    +0.000 HD
BRANCH   9  12
ATOM     12  C   UNL     1      -2.505  10.043  17.950  0.00  0.00    +0.000 C 
BRANCH  12  13
ATOM     13  C   UNL     1      -3.115  11.425  17.661  0.00  0.00    +0.000 C 
ATOM     14  C   UNL     1      -3.775  12.112  18.859  0.00  0.00    +0.000 C 
ATOM     15  C   UNL     1      -5.216  11.682  19.076  0.00  0.00    +0.000 C 
ATOM     16  C   UNL     1      -6.023  11.848  17.812  0.00  0.00    +0.000 C 
ATOM     17  O   UNL     1      -7.229  12.071  17.835  0.00  0.00    +0.000 OA
ATOM     18  N   UNL     1      -5.350  11.688  16.631  0.00  0.00    +0.000 N 
ATOM     19  C   UNL     1      -4.015  11.405  16.440  0.00  0.00    +0.000 C 
ATOM     20  O   UNL     1      -3.582  11.159  15.320  0.00  0.00    +0.000 OA
ATOM     21  H   UNL     1      -5.920  11.705  15.798  0.00  0.00    +0.000 HD
ENDBRANCH  12  13
ENDBRANCH   9  12
ENDBRANCH   7  10
ENDBRANCH   1   7
BRANCH   5  22
ATOM     22  C   UNL     1       3.282   5.406  17.494  0.00  0.00    +0.000 C 
BRANCH  22  23
ATOM     23  N   UNL     1       4.619   4.982  17.876  0.00  0.00    +0.000 N 
ATOM     24  C   UNL     1       4.885   3.925  18.703  0.00  0.00    +0.000 A 
ATOM     25  N   UNL     1       6.043   4.074  19.307  0.00  0.00    +0.000 NA
ATOM     26  C   UNL     1       6.564   5.238  18.796  0.00  0.00    +0.000 A 
ATOM     27  C   UNL     1       7.704   5.957  19.181  0.00  0.00    +0.000 A 
ATOM     28  C   UNL     1       8.027   7.129  18.486  0.00  0.00    +0.000 A 
ATOM     29  C   UNL     1       7.271   7.542  17.387  0.00  0.00    +0.000 A 
ATOM     30  C   UNL     1       6.121   6.847  16.996  0.00  0.00    +0.000 A 
ATOM     31  C   UNL     1       5.765   5.736  17.770  0.00  0.00    +0.000 A 
ENDBRANCH  22  23
ENDBRANCH   5  22
TORSDOF 6
ENDMDL
MODEL 2
REMARK VINA RESULT:      -8.8      6.403     10.159
REMARK  Name = 
REMARK  6 active torsions:
REMARK  status: ('A' for Active; 'I' for Inactive)
REMARK    1  A    between atoms: C_2  and  C_3
REMARK    2  A    between atoms: C_3  and  C_4
REMARK    3  A    between atoms: N_12  and  C_13
REMARK    4  A    between atoms: C_13  and  C_14
REMARK    5  A    between atoms: C_18  and  C_19
REMARK    6  A    between atoms: C_19  and  N_20
REMARK                            x       y       z     vdW  Elec       q    Type
REMARK                         _______ _______ _______ _____ _____    ______ ____
ROOT
ATOM      1  C   UNL     1       7.726   7.590  18.005  0.00  0.00    +0.000 A 
ATOM      2  C   UNL     1       8.237   6.665  18.920  0.00  0.00    +0.000 A 
ATOM      3  C   UNL     1       7.618   5.423  19.084  0.00  0.00    +0.000 A 
ATOM      4  C   UNL     1       6.471   5.098  18.348  0.00  0.00    +0.000 A 
ATOM      5  C   UNL     1       5.937   6.010  17.431  0.00  0.00    +0.000 A 
ATOM      6  C   UNL     1       6.596   7.239  17.252  0.00  0.00    +0.000 A 
ENDROOT
BRANCH   1   7
ATOM      7  C   UNL     1       8.322   8.962  17.856  0.00  0.00    +0.000 C 
BRANCH   7  10
ATOM      8  O   UNL     1       8.817  11.617  18.379  0.00  0.00    +0.000 OA
ATOM      9  C   UNL     1       9.171  10.787  19.213  0.00  0.00    +0.000 C 
ATOM     10  N   UNL     1       8.971   9.435  19.056  0.00  0.00    +0.000 N 
ATOM     11  H   UNL     1       9.567   8.787  19.556  0.00  0.00    +0.000 HD
BRANCH   9  12
ATOM     12  C   UNL     1       9.811  11.185  20.521  0.00  0.00    +0.000 C 
BRANCH  12  13
ATOM     13  C   UNL     1      10.939  12.217  20.350  0.00  0.00    +0.000 C 
ATOM     14  C   UNL     1      10.566  13.658  20.710  0.00  0.00    +0.000 C 
ATOM     15  C   UNL     1       9.903  14.407  19.567  0.00  0.00    +0.000 C 
ATOM     16  C   UNL     1      10.745  14.334  18.316  0.00  0.00    +0.000 C 
ATOM     17  O   UNL     1      10.726  15.219  17.467  0.00  0.00    +0.000 OA
ATOM     18  N   UNL     1      11.498  13.203  18.151  0.00  0.00    +0.000 N 
ATOM     19  C   UNL     1      11.601  12.115  18.990  0.00  0.00    +0.000 C 
ATOM     20  O   UNL     1      12.216  11.114  18.642  0.00  0.00    +0.000 OA
ATOM     21  H   UNL     1      11.978  13.125  17.267  0.00  0.00    +0.000 HD
ENDBRANCH  12  13
ENDBRANCH   9  12
ENDBRANCH   7  10
ENDBRANCH   1   7
BRANCH   5  22
ATOM     22  C   UNL     1       4.660   5.705  16.668  0.00  0.00    +0.000 C 
BRANCH  22  23
ATOM     23  N   UNL     1       3.499   5.815  17.534  0.00  0.00    +0.000 N 
ATOM     24  C   UNL     1       3.239   6.886  18.345  0.00  0.00    +0.000 A 
ATOM     25  N   UNL     1       2.495   6.536  19.370  0.00  0.00    +0.000 NA
ATOM     26  C   UNL     1       2.214   5.206  19.170  0.00  0.00    +0.000 A 
ATOM     27  C   UNL     1       1.583   4.284  20.016  0.00  0.00    +0.000 A 
ATOM     28  C   UNL     1       1.410   2.968  19.568  0.00  0.00    +0.000 A 
ATOM     29  C   UNL     1       1.797   2.594  18.279  0.00  0.00    +0.000 A 
ATOM     30  C   UNL     1       2.442   3.494  17.425  0.00  0.00    +0.000 A 
ATOM     31  C   UNL     1       2.692   4.775  17.935  0.00  0.00    +0.000 A 
ENDBRANCH  22  23
ENDBRANCH   5  22
TORSDOF 6
ENDMDL
MODEL 3
REMARK VINA RESULT:      -8.7      6.740     10.100
REMARK  Name = 
REMARK  6 active torsions:
REMARK  status: ('A' for Active; 'I' for Inactive)
REMARK    1  A    between atoms: C_2  and  C_3
REMARK    2  A    between atoms: C_3  and  C_4
REMARK    3  A    between atoms: N_12  and  C_13
REMARK    4  A    between atoms: C_13  and  C_14
REMARK    5  A    between atoms: C_18  and  C_19
REMARK    6  A    between atoms: C_19  and  N_20
REMARK                            x       y       z     vdW  Elec       q    Type
REMARK                         _______ _______ _______ _____ _____    ______ ____
ROOT
ATOM      1  C   UNL     1       7.678   7.612  18.010  0.00  0.00    +0.000 A 
ATOM      2  C   UNL     1       8.284   6.653  18.824  0.00  0.00    +0.000 A 
ATOM      3  C   UNL     1       7.664   5.420  19.041  0.00  0.00    +0.000 A 
ATOM      4  C   UNL     1       6.421   5.138  18.460  0.00  0.00    +0.000 A 
ATOM      5  C   UNL     1       5.789   6.085  17.646  0.00  0.00    +0.000 A 
ATOM      6  C   UNL     1       6.448   7.305  17.409  0.00  0.00    +0.000 A 
ENDROOT
BRANCH   1   7
ATOM      7  C   UNL     1       8.281   8.975  17.814  0.00  0.00    +0.000 C 
BRANCH   7  10
ATOM      8  O   UNL     1       8.732  11.638  18.333  0.00  0.00    +0.000 OA
ATOM      9  C   UNL     1       9.163  10.811  19.133  0.00  0.00    +0.000 C 
ATOM     10  N   UNL     1       8.992   9.456  18.975  0.00  0.00    +0.000 N 
ATOM     11  H   UNL     1       9.637   8.820  19.428  0.00  0.00    +0.000 HD
BRANCH   9  12
ATOM     12  C   UNL     1       9.874  11.216  20.403  0.00  0.00    +0.000 C 
BRANCH  12  13
ATOM     13  C   UNL     1      10.992  12.245  20.164  0.00  0.00    +0.000 C 
ATOM     14  C   UNL     1      10.676  13.671  20.622  0.00  0.00    +0.000 C 
ATOM     15  C   UNL     1       9.912  14.477  19.586  0.00  0.00    +0.000 C 
ATOM     16  C   UNL     1      10.623  14.453  18.255  0.00  0.00    +0.000 C 
ATOM     17  O   UNL     1      10.530  15.375  17.451  0.00  0.00    +0.000 OA
ATOM     18  N   UNL     1      11.341  13.324  17.964  0.00  0.00    +0.000 N 
ATOM     19  C   UNL     1      11.513  12.199  18.741  0.00  0.00    +0.000 C 
ATOM     20  O   UNL     1      12.077  11.209  18.289  0.00  0.00    +0.000 OA
ATOM     21  H   UNL     1      11.729  13.281  17.034  0.00  0.00    +0.000 HD
ENDBRANCH  12  13
ENDBRANCH   9  12
ENDBRANCH   7  10
ENDBRANCH   1   7
BRANCH   5  22
ATOM     22  C   UNL     1       4.415   5.828  17.055  0.00  0.00    +0.000 C 
BRANCH  22  23
ATOM     23  N   UNL     1       3.830   4.619  17.610  0.00  0.00    +0.000 N 
ATOM     24  C   UNL     1       3.672   3.450  16.917  0.00  0.00    +0.000 A 
ATOM     25  N   UNL     1       2.685   2.735  17.408  0.00  0.00    +0.000 NA
ATOM     26  C   UNL     1       2.239   3.444  18.497  0.00  0.00    +0.000 A 
ATOM     27  C   UNL     1       1.117   3.231  19.310  0.00  0.00    +0.000 A 
ATOM     28  C   UNL     1       0.882   4.108  20.377  0.00  0.00    +0.000 A 
ATOM     29  C   UNL     1       1.781   5.137  20.670  0.00  0.00    +0.000 A 
ATOM     30  C   UNL     1       2.898   5.376  19.862  0.00  0.00    +0.000 A 
ATOM     31  C   UNL     1       3.054   4.546  18.744  0.00  0.00    +0.000 A 
ENDBRANCH  22  23
ENDBRANCH   5  22
TORSDOF 6
ENDMDL
MODEL 4
REMARK VINA RESULT:      -8.6      3.421      4.794
REMARK  Name = 
REMARK  6 active torsions:
REMARK  status: ('A' for Active; 'I' for Inactive)
REMARK    1  A    between atoms: C_2  and  C_3
REMARK    2  A    between atoms: C_3  and  C_4
REMARK    3  A    between atoms: N_12  and  C_13
REMARK    4  A    between atoms: C_13  and  C_14
REMARK    5  A    between atoms: C_18  and  C_19
REMARK    6  A    between atoms: C_19  and  N_20
REMARK                            x       y       z     vdW  Elec       q    Type
REMARK                         _______ _______ _______ _____ _____    ______ ____
ROOT
ATOM      1  C   UNL     1       1.489   8.306  20.125  0.00  0.00    +0.000 A 
ATOM      2  C   UNL     1       1.214   9.271  19.153  0.00  0.00    +0.000 A 
ATOM      3  C   UNL     1       1.780   9.170  17.880  0.00  0.00    +0.000 A 
ATOM      4  C   UNL     1       2.644   8.111  17.570  0.00  0.00    +0.000 A 
ATOM      5  C   UNL     1       2.940   7.135  18.528  0.00  0.00    +0.000 A 
ATOM      6  C   UNL     1       2.330   7.234  19.791  0.00  0.00    +0.000 A 
ENDROOT
BRANCH   1   7
ATOM      7  C   UNL     1       0.956   8.423  21.526  0.00  0.00    +0.000 C 
BRANCH   7  10
ATOM      8  O   UNL     1       0.394   9.743  23.873  0.00  0.00    +0.000 OA
ATOM      9  C   UNL     1      -0.281  10.012  22.882  0.00  0.00    +0.000 C 
ATOM     10  N   UNL     1      -0.085   9.415  21.658  0.00  0.00    +0.000 N 
ATOM     11  H   UNL     1      -0.850   9.387  20.995  0.00  0.00    +0.000 HD
BRANCH   9  12
ATOM     12  C   UNL     1      -1.358  11.070  22.906  0.00  0.00    +0.000 C 
BRANCH  12  13
ATOM     13  C   UNL     1      -0.859  12.446  22.435  0.00  0.00    +0.000 C 
ATOM     14  C   UNL     1      -1.237  13.622  23.340  0.00  0.00    +0.000 C 
ATOM     15  C   UNL     1      -2.618  14.183  23.046  0.00  0.00    +0.000 C 
ATOM     16  C   UNL     1      -2.759  14.525  21.583  0.00  0.00    +0.000 C 
ATOM     17  O   UNL     1      -3.507  15.416  21.192  0.00  0.00    +0.000 OA
ATOM     18  N   UNL     1      -2.046  13.756  20.703  0.00  0.00    +0.000 N 
ATOM     19  C   UNL     1      -1.196  12.707  20.980  0.00  0.00    +0.000 C 
ATOM     20  O   UNL     1      -0.730  12.025  20.075  0.00  0.00    +0.000 OA
ATOM     21  H   UNL     1      -2.225  13.931  19.726  0.00  0.00    +0.000 HD
ENDBRANCH  12  13
ENDBRANCH   9  12
ENDBRANCH   7  10
ENDBRANCH   1   7
BRANCH   5  22
ATOM     22  C   UNL     1       3.920   6.013  18.235  0.00  0.00    +0.000 C 
BRANCH  22  23
ATOM     23  N   UNL     1       3.247   4.725  18.227  0.00  0.00    +0.000 N 
ATOM     24  C   UNL     1       2.646   4.175  17.128  0.00  0.00    +0.000 A 
ATOM     25  N   UNL     1       1.692   3.341  17.475  0.00  0.00    +0.000 NA
ATOM     26  C   UNL     1       1.730   3.307  18.848  0.00  0.00    +0.000 A 
ATOM     27  C   UNL     1       0.851   2.701  19.757  0.00  0.00    +0.000 A 
ATOM     28  C   UNL     1       1.119   2.810  21.127  0.00  0.00    +0.000 A 
ATOM     29  C   UNL     1       2.273   3.451  21.583  0.00  0.00    +0.000 A 
ATOM     30  C   UNL     1       3.155   4.076  20.694  0.00  0.00    +0.000 A 
ATOM     31  C   UNL     1       2.810   4.037  19.337  0.00  0.00    +0.000 A 
ENDBRANCH  22  23
ENDBRANCH   5  22
TORSDOF 6
ENDMDL
MODEL 5
REMARK VINA RESULT:      -8.5      6.483      9.836
REMARK  Name = 
REMARK  6 active torsions:
REMARK  status: ('A' for Active; 'I' for Inactive)
REMARK    1  A    between atoms: C_2  and  C_3
REMARK    2  A    between atoms: C_3  and  C_4
REMARK    3  A    between atoms: N_12  and  C_13
REMARK    4  A    between atoms: C_13  and  C_14
REMARK    5  A    between atoms: C_18  and  C_19
REMARK    6  A    between atoms: C_19  and  N_20
REMARK                            x       y       z     vdW  Elec       q    Type
REMARK                         _______ _______ _______ _____ _____    ______ ____
ROOT
ATOM      1  C   UNL     1       7.660   7.631  17.888  0.00  0.00    +0.000 A 
ATOM      2  C   UNL     1       8.208   6.769  18.842  0.00  0.00    +0.000 A 
ATOM      3  C   UNL     1       7.604   5.537  19.107  0.00  0.00    +0.000 A 
ATOM      4  C   UNL     1       6.436   5.159  18.432  0.00  0.00    +0.000 A 
ATOM      5  C   UNL     1       5.864   6.008  17.477  0.00  0.00    +0.000 A 
ATOM      6  C   UNL     1       6.508   7.226  17.198  0.00  0.00    +0.000 A 
ENDROOT
BRANCH   1   7
ATOM      7  C   UNL     1       8.240   8.993  17.631  0.00  0.00    +0.000 C 
BRANCH   7  10
ATOM      8  O   UNL     1      10.060  11.056  17.642  0.00  0.00    +0.000 OA
ATOM      9  C   UNL     1       9.612  10.674  18.720  0.00  0.00    +0.000 C 
ATOM     10  N   UNL     1       8.696   9.654  18.832  0.00  0.00    +0.000 N 
ATOM     11  H   UNL     1       8.628   9.145  19.704  0.00  0.00    +0.000 HD
BRANCH   9  12
ATOM     12  C   UNL     1       9.987  11.334  20.026  0.00  0.00    +0.000 C 
BRANCH  12  13
ATOM     13  C   UNL     1       9.022  12.462  20.429  0.00  0.00    +0.000 C 
ATOM     14  C   UNL     1       9.351  13.841  19.850  0.00  0.00    +0.000 C 
ATOM     15  C   UNL     1      10.365  14.610  20.678  0.00  0.00    +0.000 C 
ATOM     16  C   UNL     1       9.933  14.689  22.122  0.00  0.00    +0.000 C 
ATOM     17  O   UNL     1      10.254  15.625  22.847  0.00  0.00    +0.000 OA
ATOM     18  N   UNL     1       9.201  13.635  22.600  0.00  0.00    +0.000 N 
ATOM     19  C   UNL     1       8.791  12.505  21.927  0.00  0.00    +0.000 C 
ATOM     20  O   UNL     1       8.253  11.582  22.526  0.00  0.00    +0.000 OA
ATOM     21  H   UNL     1       9.003  13.655  23.589  0.00  0.00    +0.000 HD
ENDBRANCH  12  13
ENDBRANCH   9  12
ENDBRANCH   7  10
ENDBRANCH   1   7
BRANCH   5  22
ATOM     22  C   UNL     1       4.566   5.648  16.778  0.00  0.00    +0.000 C 
BRANCH  22  23
ATOM     23  N   UNL     1       3.432   5.808  17.674  0.00  0.00    +0.000 N 
ATOM     24  C   UNL     1       3.253   6.878  18.507  0.00  0.00    +0.000 A 
ATOM     25  N   UNL     1       2.514   6.554  19.545  0.00  0.00    +0.000 NA
ATOM     26  C   UNL     1       2.154   5.245  19.331  0.00  0.00    +0.000 A 
ATOM     27  C   UNL     1       1.492   4.346  20.177  0.00  0.00    +0.000 A 
ATOM     28  C   UNL     1       1.235   3.050  19.714  0.00  0.00    +0.000 A 
ATOM     29  C   UNL     1       1.569   2.675  18.410  0.00  0.00    +0.000 A 
ATOM     30  C   UNL     1       2.244   3.552  17.555  0.00  0.00    +0.000 A 
ATOM     31  C   UNL     1       2.578   4.808  18.079  0.00  0.00    +0.000 A 
ENDBRANCH  22  23
ENDBRANCH   5  22
TORSDOF 6
ENDMDL
MODEL 6
REMARK VINA RESULT:      -8.5      2.723      3.724
REMARK  Name = 
REMARK  6 active torsions:
REMARK  status: ('A' for Active; 'I' for Inactive)
REMARK    1  A    between atoms: C_2  and  C_3
REMARK    2  A    between atoms: C_3  and  C_4
REMARK    3  A    between atoms: N_12  and  C_13
REMARK    4  A    between atoms: C_13  and  C_14
REMARK    5  A    between atoms: C_18  and  C_19
REMARK    6  A    between atoms: C_19  and  N_20
REMARK                            x       y       z     vdW  Elec       q    Type
REMARK                         _______ _______ _______ _____ _____    ______ ____
ROOT
ATOM      1  C   UNL     1       1.873   8.657  18.787  0.00  0.00    +0.000 A 
ATOM      2  C   UNL     1       1.561   8.399  20.124  0.00  0.00    +0.000 A 
ATOM      3  C   UNL     1       1.759   7.123  20.660  0.00  0.00    +0.000 A 
ATOM      4  C   UNL     1       2.254   6.086  19.859  0.00  0.00    +0.000 A 
ATOM      5  C   UNL     1       2.567   6.318  18.515  0.00  0.00    +0.000 A 
ATOM      6  C   UNL     1       2.398   7.617  18.005  0.00  0.00    +0.000 A 
ENDROOT
BRANCH   1   7
ATOM      7  C   UNL     1       1.604   9.996  18.159  0.00  0.00    +0.000 C 
BRANCH   7  10
ATOM      8  O   UNL     1      -1.105  10.463  18.066  0.00  0.00    +0.000 OA
ATOM      9  C   UNL     1      -0.442  11.070  18.903  0.00  0.00    +0.000 C 
ATOM     10  N   UNL     1       0.918  10.911  19.040  0.00  0.00    +0.000 N 
ATOM     11  H   UNL     1       1.461  11.653  19.465  0.00  0.00    +0.000 HD
BRANCH   9  12
ATOM     12  C   UNL     1      -1.073  12.010  19.903  0.00  0.00    +0.000 C 
BRANCH  12  13
ATOM     13  C   UNL     1      -0.265  12.134  21.205  0.00  0.00    +0.000 C 
ATOM     14  C   UNL     1      -0.931  11.535  22.447  0.00  0.00    +0.000 C 
ATOM     15  C   UNL     1      -1.898  12.490  23.126  0.00  0.00    +0.000 C 
ATOM     16  C   UNL     1      -1.231  13.812  23.421  0.00  0.00    +0.000 C 
ATOM     17  O   UNL     1      -1.575  14.518  24.364  0.00  0.00    +0.000 OA
ATOM     18  N   UNL     1      -0.250  14.210  22.552  0.00  0.00    +0.000 N 
ATOM     19  C   UNL     1       0.223  13.551  21.439  0.00  0.00    +0.000 C 
ATOM     20  O   UNL     1       1.015  14.096  20.680  0.00  0.00    +0.000 OA
ATOM     21  H   UNL     1       0.117  15.136  22.705  0.00  0.00    +0.000 HD
ENDBRANCH  12  13
ENDBRANCH   9  12
ENDBRANCH   7  10
ENDBRANCH   1   7
BRANCH   5  22
ATOM     22  C   UNL     1       3.047   5.196  17.611  0.00  0.00    +0.000 C 
BRANCH  22  23
ATOM     23  N   UNL     1       4.401   4.795  17.956  0.00  0.00    +0.000 N 
ATOM     24  C   UNL     1       4.708   3.783  18.825  0.00  0.00    +0.000 A 
ATOM     25  N   UNL     1       5.890   3.967  19.368  0.00  0.00    +0.000 NA
ATOM     26  C   UNL     1       6.384   5.103  18.774  0.00  0.00    +0.000 A 
ATOM     27  C   UNL     1       7.536   5.843  19.070  0.00  0.00    +0.000 A 
ATOM     28  C   UNL     1       7.824   6.978  18.300  0.00  0.00    +0.000 A 
ATOM     29  C   UNL     1       7.017   7.330  17.215  0.00  0.00    +0.000 A 
ATOM     30  C   UNL     1       5.855   6.614  16.913  0.00  0.00    +0.000 A 
ATOM     31  C   UNL     1       5.538   5.544  17.760  0.00  0.00    +0.000 A 
ENDBRANCH  22  23
ENDBRANCH   5  22
TORSDOF 6
ENDMDL
MODEL 7
REMARK VINA RESULT:      -8.5      6.744      9.812
REMARK  Name = 
REMARK  6 active torsions:
REMARK  status: ('A' for Active; 'I' for Inactive)
REMARK    1  A    between atoms: C_2  and  C_3
REMARK    2  A    between atoms: C_3  and  C_4
REMARK    3  A    between atoms: N_12  and  C_13
REMARK    4  A    between atoms: C_13  and  C_14
REMARK    5  A    between atoms: C_18  and  C_19
REMARK    6  A    between atoms: C_19  and  N_20
REMARK                            x       y       z     vdW  Elec       q    Type
REMARK                         _______ _______ _______ _____ _____    ______ ____
ROOT
ATOM      1  C   UNL     1       7.680   7.774  17.919  0.00  0.00    +0.000 A 
ATOM      2  C   UNL     1       8.289   6.855  18.777  0.00  0.00    +0.000 A 
ATOM      3  C   UNL     1       7.669   5.634  19.054  0.00  0.00    +0.000 A 
ATOM      4  C   UNL     1       6.425   5.325  18.490  0.00  0.00    +0.000 A 
ATOM      5  C   UNL     1       5.791   6.232  17.633  0.00  0.00    +0.000 A 
ATOM      6  C   UNL     1       6.448   7.438  17.336  0.00  0.00    +0.000 A 
ENDROOT
BRANCH   1   7
ATOM      7  C   UNL     1       8.282   9.126  17.656  0.00  0.00    +0.000 C 
BRANCH   7  10
ATOM      8  O   UNL     1      10.210  11.088  17.700  0.00  0.00    +0.000 OA
ATOM      9  C   UNL     1       9.686  10.767  18.765  0.00  0.00    +0.000 C 
ATOM     10  N   UNL     1       8.710   9.802  18.858  0.00  0.00    +0.000 N 
ATOM     11  H   UNL     1       8.569   9.327  19.741  0.00  0.00    +0.000 HD
BRANCH   9  12
ATOM     12  C   UNL     1      10.029  11.450  20.067  0.00  0.00    +0.000 C 
BRANCH  12  13
ATOM     13  C   UNL     1       9.068  12.599  20.415  0.00  0.00    +0.000 C 
ATOM     14  C   UNL     1       9.476  13.975  19.882  0.00  0.00    +0.000 C 
ATOM     15  C   UNL     1      10.448  14.706  20.793  0.00  0.00    +0.000 C 
ATOM     16  C   UNL     1       9.913  14.779  22.202  0.00  0.00    +0.000 C 
ATOM     17  O   UNL     1      10.206  15.696  22.962  0.00  0.00    +0.000 OA
ATOM     18  N   UNL     1       9.120  13.740  22.610  0.00  0.00    +0.000 N 
ATOM     19  C   UNL     1       8.730  12.630  21.893  0.00  0.00    +0.000 C 
ATOM     20  O   UNL     1       8.124  11.715  22.438  0.00  0.00    +0.000 OA
ATOM     21  H   UNL     1       8.851  13.753  23.582  0.00  0.00    +0.000 HD
ENDBRANCH  12  13
ENDBRANCH   9  12
ENDBRANCH   7  10
ENDBRANCH   1   7
BRANCH   5  22
ATOM     22  C   UNL     1       4.415   5.946  17.059  0.00  0.00    +0.000 C 
BRANCH  22  23
ATOM     23  N   UNL     1       3.856   4.732  17.630  0.00  0.00    +0.000 N 
ATOM     24  C   UNL     1       3.745   3.544  16.960  0.00  0.00    +0.000 A 
ATOM     25  N   UNL     1       2.771   2.811  17.450  0.00  0.00    +0.000 NA
ATOM     26  C   UNL     1       2.285   3.530  18.516  0.00  0.00    +0.000 A 
ATOM     27  C   UNL     1       1.156   3.301  19.314  0.00  0.00    +0.000 A 
ATOM     28  C   UNL     1       0.876   4.194  20.357  0.00  0.00    +0.000 A 
ATOM     29  C   UNL     1       1.739   5.255  20.642  0.00  0.00    +0.000 A 
ATOM     30  C   UNL     1       2.863   5.509  19.848  0.00  0.00    +0.000 A 
ATOM     31  C   UNL     1       3.063   4.661  18.752  0.00  0.00    +0.000 A 
ENDBRANCH  22  23
ENDBRANCH   5  22
TORSDOF 6
ENDMDL
MODEL 8
REMARK VINA RESULT:      -8.4      2.466      3.712
REMARK  Name = 
REMARK  6 active torsions:
REMARK  status: ('A' for Active; 'I' for Inactive)
REMARK    1  A    between atoms: C_2  and  C_3
REMARK    2  A    between atoms: C_3  and  C_4
REMARK    3  A    between atoms: N_12  and  C_13
REMARK    4  A    between atoms: C_13  and  C_14
REMARK    5  A    between atoms: C_18  and  C_19
REMARK    6  A    between atoms: C_19  and  N_20
REMARK                            x       y       z     vdW  Elec       q    Type
REMARK                         _______ _______ _______ _____ _____    ______ ____
ROOT
ATOM      1  C   UNL     1       0.939   9.699  19.741  0.00  0.00    +0.000 A 
ATOM      2  C   UNL     1       1.261   9.900  18.396  0.00  0.00    +0.000 A 
ATOM      3  C   UNL     1       1.975   8.929  17.691  0.00  0.00    +0.000 A 
ATOM      4  C   UNL     1       2.391   7.752  18.327  0.00  0.00    +0.000 A 
ATOM      5  C   UNL     1       2.086   7.530  19.674  0.00  0.00    +0.000 A 
ATOM      6  C   UNL     1       1.334   8.502  20.356  0.00  0.00    +0.000 A 
ENDROOT
BRANCH   1   7
ATOM      7  C   UNL     1       0.236  10.754  20.549  0.00  0.00    +0.000 C 
BRANCH   7  10
ATOM      8  O   UNL     1      -0.685  12.801  18.961  0.00  0.00    +0.000 OA
ATOM      9  C   UNL     1      -1.501  11.987  19.385  0.00  0.00    +0.000 C 
ATOM     10  N   UNL     1      -1.150  10.923  20.184  0.00  0.00    +0.000 N 
ATOM     11  H   UNL     1      -1.850  10.505  20.785  0.00  0.00    +0.000 HD
BRANCH   9  12
ATOM     12  C   UNL     1      -2.964  12.048  19.018  0.00  0.00    +0.000 C 
BRANCH  12  13
ATOM     13  C   UNL     1      -3.457  10.782  18.297  0.00  0.00    +0.000 C 
ATOM     14  C   UNL     1      -2.389  10.025  17.503  0.00  0.00    +0.000 C 
ATOM     15  C   UNL     1      -2.189  10.570  16.100  0.00  0.00    +0.000 C 
ATOM     16  C   UNL     1      -3.501  10.644  15.358  0.00  0.00    +0.000 C 
ATOM     17  O   UNL     1      -3.565  10.545  14.137  0.00  0.00    +0.000 OA
ATOM     18  N   UNL     1      -4.619  10.877  16.115  0.00  0.00    +0.000 N 
ATOM     19  C   UNL     1      -4.707  11.042  17.479  0.00  0.00    +0.000 C 
ATOM     20  O   UNL     1      -5.764  11.379  18.001  0.00  0.00    +0.000 OA
ATOM     21  H   UNL     1      -5.473  11.021  15.597  0.00  0.00    +0.000 HD
ENDBRANCH  12  13
ENDBRANCH   9  12
ENDBRANCH   7  10
ENDBRANCH   1   7
BRANCH   5  22
ATOM     22  C   UNL     1       2.579   6.291  20.401  0.00  0.00    +0.000 C 
BRANCH  22  23
ATOM     23  N   UNL     1       1.948   5.094  19.871  0.00  0.00    +0.000 N 
ATOM     24  C   UNL     1       0.881   4.463  20.450  0.00  0.00    +0.000 A 
ATOM     25  N   UNL     1       0.851   3.189  20.130  0.00  0.00    +0.000 NA
ATOM     26  C   UNL     1       1.901   3.014  19.261  0.00  0.00    +0.000 A 
ATOM     27  C   UNL     1       2.431   1.836  18.718  0.00  0.00    +0.000 A 
ATOM     28  C   UNL     1       3.518   1.930  17.839  0.00  0.00    +0.000 A 
ATOM     29  C   UNL     1       4.025   3.174  17.456  0.00  0.00    +0.000 A 
ATOM     30  C   UNL     1       3.520   4.360  17.999  0.00  0.00    +0.000 A 
ATOM     31  C   UNL     1       2.500   4.232  18.951  0.00  0.00    +0.000 A 
ENDBRANCH  22  23
ENDBRANCH   5  22
TORSDOF 6
ENDMDL
MODEL 9
REMARK VINA RESULT:      -8.4      4.308      9.780
REMARK  Name = 
REMARK  6 active torsions:
REMARK  status: ('A' for Active; 'I' for Inactive)
REMARK    1  A    between atoms: C_2  and  C_3
REMARK    2  A    between atoms: C_3  and  C_4
REMARK    3  A    between atoms: N_12  and  C_13
REMARK    4  A    between atoms: C_13  and  C_14
REMARK    5  A    between atoms: C_18  and  C_19
REMARK    6  A    between atoms: C_19  and  N_20
REMARK                            x       y       z     vdW  Elec       q    Type
REMARK                         _______ _______ _______ _____ _____    ______ ____
ROOT
ATOM      1  C   UNL     1       1.983   7.658  19.592  0.00  0.00    +0.000 A 
ATOM      2  C   UNL     1       2.594   8.018  18.388  0.00  0.00    +0.000 A 
ATOM      3  C   UNL     1       2.172   9.158  17.699  0.00  0.00    +0.000 A 
ATOM      4  C   UNL     1       1.123   9.942  18.197  0.00  0.00    +0.000 A 
ATOM      5  C   UNL     1       0.491   9.598  19.397  0.00  0.00    +0.000 A 
ATOM      6  C   UNL     1       0.955   8.469  20.095  0.00  0.00    +0.000 A 
ENDROOT
BRANCH   1   7
ATOM      7  C   UNL     1       2.361   6.399  20.321  0.00  0.00    +0.000 C 
BRANCH   7  10
ATOM      8  O   UNL     1       2.486   4.290  18.560  0.00  0.00    +0.000 OA
ATOM      9  C   UNL     1       3.542   4.762  18.974  0.00  0.00    +0.000 C 
ATOM     10  N   UNL     1       3.597   5.818  19.853  0.00  0.00    +0.000 N 
ATOM     11  H   UNL     1       4.421   5.939  20.429  0.00  0.00    +0.000 HD
BRANCH   9  12
ATOM     12  C   UNL     1       4.886   4.258  18.505  0.00  0.00    +0.000 C 
BRANCH  12  13
ATOM     13  C   UNL     1       5.785   5.373  17.945  0.00  0.00    +0.000 C 
ATOM     14  C   UNL     1       5.207   6.142  16.754  0.00  0.00    +0.000 C 
ATOM     15  C   UNL     1       5.467   5.463  15.421  0.00  0.00    +0.000 C 
ATOM     16  C   UNL     1       6.936   5.166  15.245  0.00  0.00    +0.000 C 
ATOM     17  O   UNL     1       7.462   5.116  14.138  0.00  0.00    +0.000 OA
ATOM     18  N   UNL     1       7.648   4.905  16.385  0.00  0.00    +0.000 N 
ATOM     19  C   UNL     1       7.199   4.889  17.687  0.00  0.00    +0.000 C 
ATOM     20  O   UNL     1       7.928   4.506  18.595  0.00  0.00    +0.000 OA
ATOM     21  H   UNL     1       8.603   4.613  16.245  0.00  0.00    +0.000 HD
ENDBRANCH  12  13
ENDBRANCH   9  12
ENDBRANCH   7  10
ENDBRANCH   1   7
BRANCH   5  22
ATOM     22  C   UNL     1      -0.688  10.395  19.925  0.00  0.00    +0.000 C 
BRANCH  22  23
ATOM     23  N   UNL     1      -0.275  11.283  20.998  0.00  0.00    +0.000 N 
ATOM     24  C   UNL     1      -0.610  11.112  22.314  0.00  0.00    +0.000 A 
ATOM     25  N   UNL     1      -0.600  12.256  22.960  0.00  0.00    +0.000 NA
ATOM     26  C   UNL     1      -0.177  13.183  22.038  0.00  0.00    +0.000 A 
ATOM     27  C   UNL     1      -0.118  14.580  22.131  0.00  0.00    +0.000 A 
ATOM     28  C   UNL     1       0.363  15.308  21.035  0.00  0.00    +0.000 A 
ATOM     29  C   UNL     1       0.839  14.655  19.895  0.00  0.00    +0.000 A 
ATOM     30  C   UNL     1       0.774  13.263  19.776  0.00  0.00    +0.000 A 
ATOM     31  C   UNL     1       0.196  12.568  20.846  0.00  0.00    +0.000 A 
ENDBRANCH  22  23
ENDBRANCH   5  22
TORSDOF 6
ENDMDL
