MODEL 1
REMARK VINA RESULT:      -8.7      0.000      0.000
REMARK  Name = 
REMARK  6 active torsions:
REMARK  status: ('A' for Active; 'I' for Inactive)
REMARK    1  A    between atoms: C_2  and  C_3
REMARK    2  A    between atoms: C_3  and  O_4
REMARK    3  A    between atoms: O_4  and  C_5
REMARK    4  A    between atoms: C_5  and  C_7
REMARK    5  A    between atoms: C_16  and  O_17
REMARK    6  A    between atoms: N_18  and  C_19
REMARK                            x       y       z     vdW  Elec       q    Type
REMARK                         _______ _______ _______ _____ _____    ______ ____
ROOT
ATOM      1  O   UNL     1       1.873   8.318  18.385  0.00  0.00    +0.000 OA
ATOM      2  C   UNL     1       2.145   7.734  19.434  0.00  0.00    +0.000 C 
ATOM      3  N   UNL     1       2.917   6.588  19.545  0.00  0.00    +0.000 N 
ATOM      4  H   UNL     1       2.929   6.133  20.455  0.00  0.00    +0.000 HD
ENDROOT
BRANCH   3   5
ATOM      5  C   UNL     1       3.612   5.933  18.495  0.00  0.00    +0.000 A 
ATOM      6  C   UNL     1       4.753   6.501  17.912  0.00  0.00    +0.000 A 
ATOM      7  C   UNL     1       5.379   5.796  16.911  0.00  0.00    +0.000 A 
ATOM      8  N   UNL     1       6.482   6.155  16.146  0.00  0.00    +0.000 N 
ATOM      9  C   UNL     1       6.742   5.130  15.227  0.00  0.00    +0.000 A 
ATOM     10  O   UNL     1       7.614   5.117  14.378  0.00  0.00    +0.000 OA
ATOM     11  N   UNL     1       5.790   4.125  15.468  0.00  0.00    +0.000 N 
ATOM     12  C   UNL     1       4.944   4.546  16.490  0.00  0.00    +0.000 A 
ATOM     13  C   UNL     1       3.839   3.942  17.035  0.00  0.00    +0.000 A 
ATOM     14  C   UNL     1       3.161   4.658  18.040  0.00  0.00    +0.000 A 
ATOM     15 BR   UNL     1       1.557   3.891  18.723  0.00  0.00    +0.000 Br
ATOM     16  H   UNL     1       6.990   7.023  16.185  0.00  0.00    +0.000 HD
ATOM     17  H   UNL     1       5.739   3.272  14.935  0.00  0.00    +0.000 HD
ENDBRANCH   3   5
BRANCH   2  18
ATOM     18  C   UNL     1       1.700   8.320  20.771  0.00  0.00    +0.000 C 
BRANCH  18  19
ATOM     19  O   UNL     1       0.366   8.816  20.787  0.00  0.00    +0.000 OA
BRANCH  19  20
ATOM     20  C   UNL     1       0.287  10.167  20.830  0.00  0.00    +0.000 C 
ATOM     21  O   UNL     1       1.084  10.916  21.371  0.00  0.00    +0.000 OA
BRANCH  20  22
ATOM     22  C   UNL     1      -0.835  10.647  19.998  0.00  0.00    +0.000 A 
ATOM     23  C   UNL     1      -1.010  10.011  18.762  0.00  0.00    +0.000 A 
ATOM     24  C   UNL     1      -2.048  10.392  17.904  0.00  0.00    +0.000 A 
ATOM     25  C   UNL     1      -2.235   9.749  16.671  0.00  0.00    +0.000 A 
ATOM     26  C   UNL     1      -3.273  10.128  15.824  0.00  0.00    +0.000 A 
ATOM     27  C   UNL     1      -4.134  11.154  16.194  0.00  0.00    +0.000 A 
ATOM     28  C   UNL     1      -3.958  11.808  17.418  0.00  0.00    +0.000 A 
ATOM     29  C   UNL     1      -2.919  11.437  18.287  0.00  0.00    +0.000 A 
ATOM     30  C   UNL     1      -2.722  12.084  19.519  0.00  0.00    +0.000 A 
ATOM     31  C   UNL     1      -1.684  11.696  20.368  0.00  0.00    +0.000 A 
BRANCH  31  32
ATOM     32  O   UNL     1      -1.492  12.364  21.543  0.00  0.00    +0.000 OA
ATOM     33  H   UNL     1      -2.312  12.817  21.801  0.00  0.00    +0.000 HD
ENDBRANCH  31  32
ENDBRANCH  20  22
ENDBRANCH  19  20
ENDBRANCH  18  19
ENDBRANCH   2  18
TORSDOF 6
ENDMDL
MODEL 2
REMARK VINA RESULT:      -8.5      3.936      5.293
REMARK  Name = 
REMARK  6 active torsions:
REMARK  status: ('A' for Active; 'I' for Inactive)
REMARK    1  A    between atoms: C_2  and  C_3
REMARK    2  A    between atoms: C_3  and  O_4
REMARK    3  A    between atoms: O_4  and  C_5
REMARK    4  A    between atoms: C_5  and  C_7
REMARK    5  A    between atoms: C_16  and  O_17
REMARK    6  A    between atoms: N_18  and  C_19
REMARK                            x       y       z     vdW  Elec       q    Type
REMARK                         _______ _______ _______ _____ _____    ______ ____
ROOT
ATOM      1  O   UNL     1       3.809   2.121  17.993  0.00  0.00    +0.000 OA
ATOM      2  C   UNL     1       4.253   2.841  18.886  0.00  0.00    +0.000 C 
ATOM      3  N   UNL     1       5.264   3.779  18.742  0.00  0.00    +0.000 N 
ATOM      4  H   UNL     1       5.631   4.189  19.597  0.00  0.00    +0.000 HD
ENDROOT
BRANCH   3   5
ATOM      5  C   UNL     1       5.904   4.150  17.530  0.00  0.00    +0.000 A 
ATOM      6  C   UNL     1       5.514   3.600  16.301  0.00  0.00    +0.000 A 
ATOM      7  C   UNL     1       6.172   4.024  15.172  0.00  0.00    +0.000 A 
ATOM      8  N   UNL     1       6.014   3.603  13.857  0.00  0.00    +0.000 N 
ATOM      9  C   UNL     1       6.926   4.298  13.052  0.00  0.00    +0.000 A 
ATOM     10  O   UNL     1       7.090   4.162  11.853  0.00  0.00    +0.000 OA
ATOM     11  N   UNL     1       7.624   5.172  13.901  0.00  0.00    +0.000 N 
ATOM     12  C   UNL     1       7.172   4.987  15.204  0.00  0.00    +0.000 A 
ATOM     13  C   UNL     1       7.584   5.565  16.379  0.00  0.00    +0.000 A 
ATOM     14  C   UNL     1       6.947   5.123  17.554  0.00  0.00    +0.000 A 
ATOM     15 BR   UNL     1       7.588   5.823  19.206  0.00  0.00    +0.000 Br
ATOM     16  H   UNL     1       5.397   2.881  13.522  0.00  0.00    +0.000 HD
ATOM     17  H   UNL     1       8.356   5.786  13.582  0.00  0.00    +0.000 HD
ENDBRANCH   3   5
BRANCH   2  18
ATOM     18  C   UNL     1       3.620   2.813  20.275  0.00  0.00    +0.000 C 
BRANCH  18  19
ATOM     19  O   UNL     1       3.231   4.087  20.775  0.00  0.00    +0.000 OA
BRANCH  19  20
ATOM     20  C   UNL     1       1.962   4.434  20.457  0.00  0.00    +0.000 C 
ATOM     21  O   UNL     1       0.956   3.795  20.720  0.00  0.00    +0.000 OA
BRANCH  20  22
ATOM     22  C   UNL     1       1.927   5.785  19.862  0.00  0.00    +0.000 A 
ATOM     23  C   UNL     1       1.467   6.817  20.690  0.00  0.00    +0.000 A 
ATOM     24  C   UNL     1       1.400   8.134  20.219  0.00  0.00    +0.000 A 
ATOM     25  C   UNL     1       0.952   9.173  21.049  0.00  0.00    +0.000 A 
ATOM     26  C   UNL     1       0.894  10.482  20.577  0.00  0.00    +0.000 A 
ATOM     27  C   UNL     1       1.278  10.769  19.272  0.00  0.00    +0.000 A 
ATOM     28  C   UNL     1       1.722   9.744  18.432  0.00  0.00    +0.000 A 
ATOM     29  C   UNL     1       1.791   8.418  18.891  0.00  0.00    +0.000 A 
ATOM     30  C   UNL     1       2.230   7.372  18.061  0.00  0.00    +0.000 A 
ATOM     31  C   UNL     1       2.294   6.063  18.541  0.00  0.00    +0.000 A 
BRANCH  31  32
ATOM     32  O   UNL     1       2.689   5.059  17.704  0.00  0.00    +0.000 OA
ATOM     33  H   UNL     1       3.383   5.385  17.107  0.00  0.00    +0.000 HD
ENDBRANCH  31  32
ENDBRANCH  20  22
ENDBRANCH  19  20
ENDBRANCH  18  19
ENDBRANCH   2  18
TORSDOF 6
ENDMDL
MODEL 3
REMARK VINA RESULT:      -8.4      2.640      3.043
REMARK  Name = 
REMARK  6 active torsions:
REMARK  status: ('A' for Active; 'I' for Inactive)
REMARK    1  A    between atoms: C_2  and  C_3
REMARK    2  A    between atoms: C_3  and  O_4
REMARK    3  A    between atoms: O_4  and  C_5
REMARK    4  A    between atoms: C_5  and  C_7
REMARK    5  A    between atoms: C_16  and  O_17
REMARK    6  A    between atoms: N_18  and  C_19
REMARK                            x       y       z     vdW  Elec       q    Type
REMARK                         _______ _______ _______ _____ _____    ______ ____
ROOT
ATOM      1  O   UNL     1      -0.512   7.770  21.364  0.00  0.00    +0.000 OA
ATOM      2  C   UNL     1       0.562   8.308  21.630  0.00  0.00    +0.000 C 
ATOM      3  N   UNL     1       1.805   7.905  21.167  0.00  0.00    +0.000 N 
ATOM      4  H   UNL     1       2.616   8.350  21.591  0.00  0.00    +0.000 HD
ENDROOT
BRANCH   3   5
ATOM      5  C   UNL     1       2.063   6.868  20.233  0.00  0.00    +0.000 A 
ATOM      6  C   UNL     1       2.177   5.532  20.641  0.00  0.00    +0.000 A 
ATOM      7  C   UNL     1       2.410   4.584  19.673  0.00  0.00    +0.000 A 
ATOM      8  N   UNL     1       2.611   3.217  19.818  0.00  0.00    +0.000 N 
ATOM      9  C   UNL     1       2.841   2.662  18.552  0.00  0.00    +0.000 A 
ATOM     10  O   UNL     1       3.086   1.496  18.302  0.00  0.00    +0.000 OA
ATOM     11  N   UNL     1       2.748   3.718  17.630  0.00  0.00    +0.000 N 
ATOM     12  C   UNL     1       2.501   4.898  18.324  0.00  0.00    +0.000 A 
ATOM     13  C   UNL     1       2.387   6.189  17.870  0.00  0.00    +0.000 A 
ATOM     14  C   UNL     1       2.180   7.182  18.846  0.00  0.00    +0.000 A 
ATOM     15 BR   UNL     1       2.139   8.991  18.251  0.00  0.00    +0.000 Br
ATOM     16  H   UNL     1       2.648   2.697  20.680  0.00  0.00    +0.000 HD
ATOM     17  H   UNL     1       2.885   3.599  16.639  0.00  0.00    +0.000 HD
ENDBRANCH   3   5
BRANCH   2  18
ATOM     18  C   UNL     1       0.590   9.587  22.463  0.00  0.00    +0.000 C 
BRANCH  18  19
ATOM     19  O   UNL     1      -0.336  10.585  22.049  0.00  0.00    +0.000 OA
BRANCH  19  20
ATOM     20  C   UNL     1       0.035  11.241  20.924  0.00  0.00    +0.000 C 
ATOM     21  O   UNL     1       1.169  11.584  20.635  0.00  0.00    +0.000 OA
BRANCH  20  22
ATOM     22  C   UNL     1      -1.108  11.369  19.998  0.00  0.00    +0.000 A 
ATOM     23  C   UNL     1      -1.036  10.624  18.814  0.00  0.00    +0.000 A 
ATOM     24  C   UNL     1      -2.072  10.676  17.874  0.00  0.00    +0.000 A 
ATOM     25  C   UNL     1      -2.010   9.921  16.693  0.00  0.00    +0.000 A 
ATOM     26  C   UNL     1      -3.047   9.971  15.764  0.00  0.00    +0.000 A 
ATOM     27  C   UNL     1      -4.154  10.777  16.000  0.00  0.00    +0.000 A 
ATOM     28  C   UNL     1      -4.228  11.539  17.171  0.00  0.00    +0.000 A 
ATOM     29  C   UNL     1      -3.194  11.498  18.120  0.00  0.00    +0.000 A 
ATOM     30  C   UNL     1      -3.247  12.259  19.301  0.00  0.00    +0.000 A 
ATOM     31  C   UNL     1      -2.210  12.200  20.233  0.00  0.00    +0.000 A 
BRANCH  31  32
ATOM     32  O   UNL     1      -2.268  12.976  21.354  0.00  0.00    +0.000 OA
ATOM     33  H   UNL     1      -2.034  12.445  22.133  0.00  0.00    +0.000 HD
ENDBRANCH  31  32
ENDBRANCH  20  22
ENDBRANCH  19  20
ENDBRANCH  18  19
ENDBRANCH   2  18
TORSDOF 6
ENDMDL
MODEL 4
REMARK VINA RESULT:      -8.4      2.010      2.977
REMARK  Name = 
REMARK  6 active torsions:
REMARK  status: ('A' for Active; 'I' for Inactive)
REMARK    1  A    between atoms: C_2  and  C_3
REMARK    2  A    between atoms: C_3  and  O_4
REMARK    3  A    between atoms: O_4  and  C_5
REMARK    4  A    between atoms: C_5  and  C_7
REMARK    5  A    between atoms: C_16  and  O_17
REMARK    6  A    between atoms: N_18  and  C_19
REMARK                            x       y       z     vdW  Elec       q    Type
REMARK                         _______ _______ _______ _____ _____    ______ ____
ROOT
ATOM      1  O   UNL     1       2.030   8.016  18.696  0.00  0.00    +0.000 OA
ATOM      2  C   UNL     1       2.246   7.278  19.656  0.00  0.00    +0.000 C 
ATOM      3  N   UNL     1       2.976   6.099  19.622  0.00  0.00    +0.000 N 
ATOM      4  H   UNL     1       2.942   5.517  20.456  0.00  0.00    +0.000 HD
ENDROOT
BRANCH   3   5
ATOM      5  C   UNL     1       3.684   5.577  18.509  0.00  0.00    +0.000 A 
ATOM      6  C   UNL     1       4.834   6.209  18.015  0.00  0.00    +0.000 A 
ATOM      7  C   UNL     1       5.473   5.632  16.944  0.00  0.00    +0.000 A 
ATOM      8  N   UNL     1       6.587   6.080  16.244  0.00  0.00    +0.000 N 
ATOM      9  C   UNL     1       6.858   5.175  15.209  0.00  0.00    +0.000 A 
ATOM     10  O   UNL     1       7.742   5.265  14.376  0.00  0.00    +0.000 OA
ATOM     11  N   UNL     1       5.902   4.151  15.312  0.00  0.00    +0.000 N 
ATOM     12  C   UNL     1       5.043   4.445  16.366  0.00  0.00    +0.000 A 
ATOM     13  C   UNL     1       3.930   3.780  16.818  0.00  0.00    +0.000 A 
ATOM     14  C   UNL     1       3.239   4.369  17.893  0.00  0.00    +0.000 A 
ATOM     15 BR   UNL     1       1.625   3.528  18.455  0.00  0.00    +0.000 Br
ATOM     16  H   UNL     1       7.095   6.935  16.397  0.00  0.00    +0.000 HD
ATOM     17  H   UNL     1       5.858   3.370  14.677  0.00  0.00    +0.000 HD
ENDBRANCH   3   5
BRANCH   2  18
ATOM     18  C   UNL     1       1.774   7.681  21.051  0.00  0.00    +0.000 C 
BRANCH  18  19
ATOM     19  O   UNL     1       0.602   8.486  21.071  0.00  0.00    +0.000 OA
BRANCH  19  20
ATOM     20  C   UNL     1       0.650   9.497  21.970  0.00  0.00    +0.000 C 
ATOM     21  O   UNL     1       1.462   9.617  22.872  0.00  0.00    +0.000 OA
BRANCH  20  22
ATOM     22  C   UNL     1      -0.339  10.539  21.633  0.00  0.00    +0.000 A 
ATOM     23  C   UNL     1      -1.119  11.023  22.691  0.00  0.00    +0.000 A 
ATOM     24  C   UNL     1      -2.083  12.015  22.472  0.00  0.00    +0.000 A 
ATOM     25  C   UNL     1      -2.857  12.512  23.532  0.00  0.00    +0.000 A 
ATOM     26  C   UNL     1      -3.809  13.504  23.310  0.00  0.00    +0.000 A 
ATOM     27  C   UNL     1      -4.003  14.009  22.030  0.00  0.00    +0.000 A 
ATOM     28  C   UNL     1      -3.242  13.520  20.963  0.00  0.00    +0.000 A 
ATOM     29  C   UNL     1      -2.275  12.523  21.168  0.00  0.00    +0.000 A 
ATOM     30  C   UNL     1      -1.503  12.015  20.109  0.00  0.00    +0.000 A 
ATOM     31  C   UNL     1      -0.544  11.027  20.337  0.00  0.00    +0.000 A 
BRANCH  31  32
ATOM     32  O   UNL     1       0.167  10.525  19.285  0.00  0.00    +0.000 OA
ATOM     33  H   UNL     1       0.469  11.252  18.716  0.00  0.00    +0.000 HD
ENDBRANCH  31  32
ENDBRANCH  20  22
ENDBRANCH  19  20
ENDBRANCH  18  19
ENDBRANCH   2  18
TORSDOF 6
ENDMDL
MODEL 5
REMARK VINA RESULT:      -8.4      6.469      9.291
REMARK  Name = 
REMARK  6 active torsions:
REMARK  status: ('A' for Active; 'I' for Inactive)
REMARK    1  A    between atoms: C_2  and  C_3
REMARK    2  A    between atoms: C_3  and  O_4
REMARK    3  A    between atoms: O_4  and  C_5
REMARK    4  A    between atoms: C_5  and  C_7
REMARK    5  A    between atoms: C_16  and  O_17
REMARK    6  A    between atoms: N_18  and  C_19
REMARK                            x       y       z     vdW  Elec       q    Type
REMARK                         _______ _______ _______ _____ _____    ______ ____
ROOT
ATOM      1  O   UNL     1       7.719   9.103  17.341  0.00  0.00    +0.000 OA
ATOM      2  C   UNL     1       8.388   8.659  18.273  0.00  0.00    +0.000 C 
ATOM      3  N   UNL     1       9.298   9.379  19.032  0.00  0.00    +0.000 N 
ATOM      4  H   UNL     1       9.888   8.844  19.665  0.00  0.00    +0.000 HD
ENDROOT
BRANCH   3   5
ATOM      5  C   UNL     1       9.557  10.771  18.942  0.00  0.00    +0.000 A 
ATOM      6  C   UNL     1      10.033  11.349  17.757  0.00  0.00    +0.000 A 
ATOM      7  C   UNL     1      10.242  12.708  17.746  0.00  0.00    +0.000 A 
ATOM      8  N   UNL     1      10.750  13.507  16.729  0.00  0.00    +0.000 N 
ATOM      9  C   UNL     1      10.810  14.829  17.187  0.00  0.00    +0.000 A 
ATOM     10  O   UNL     1      11.232  15.794  16.575  0.00  0.00    +0.000 OA
ATOM     11  N   UNL     1      10.300  14.823  18.496  0.00  0.00    +0.000 N 
ATOM     12  C   UNL     1       9.970  13.517  18.842  0.00  0.00    +0.000 A 
ATOM     13  C   UNL     1       9.493  13.002  20.022  0.00  0.00    +0.000 A 
ATOM     14  C   UNL     1       9.302  11.609  20.069  0.00  0.00    +0.000 A 
ATOM     15 BR   UNL     1       8.756  10.861  21.735  0.00  0.00    +0.000 Br
ATOM     16  H   UNL     1      11.081  13.203  15.828  0.00  0.00    +0.000 HD
ATOM     17  H   UNL     1      10.241  15.649  19.070  0.00  0.00    +0.000 HD
ENDBRANCH   3   5
BRANCH   2  18
ATOM     18  C   UNL     1       8.181   7.221  18.744  0.00  0.00    +0.000 C 
BRANCH  18  19
ATOM     19  O   UNL     1       6.873   6.706  18.523  0.00  0.00    +0.000 OA
BRANCH  19  20
ATOM     20  C   UNL     1       6.857   5.519  17.872  0.00  0.00    +0.000 C 
ATOM     21  O   UNL     1       7.817   4.970  17.356  0.00  0.00    +0.000 OA
BRANCH  20  22
ATOM     22  C   UNL     1       5.531   4.882  17.990  0.00  0.00    +0.000 A 
ATOM     23  C   UNL     1       4.746   5.275  19.082  0.00  0.00    +0.000 A 
ATOM     24  C   UNL     1       3.471   4.730  19.277  0.00  0.00    +0.000 A 
ATOM     25  C   UNL     1       2.677   5.131  20.362  0.00  0.00    +0.000 A 
ATOM     26  C   UNL     1       1.406   4.591  20.548  0.00  0.00    +0.000 A 
ATOM     27  C   UNL     1       0.916   3.643  19.658  0.00  0.00    +0.000 A 
ATOM     28  C   UNL     1       1.698   3.230  18.575  0.00  0.00    +0.000 A 
ATOM     29  C   UNL     1       2.979   3.766  18.369  0.00  0.00    +0.000 A 
ATOM     30  C   UNL     1       3.783   3.362  17.289  0.00  0.00    +0.000 A 
ATOM     31  C   UNL     1       5.052   3.912  17.102  0.00  0.00    +0.000 A 
BRANCH  31  32
ATOM     32  O   UNL     1       5.828   3.475  16.066  0.00  0.00    +0.000 OA
ATOM     33  H   UNL     1       6.023   4.216  15.468  0.00  0.00    +0.000 HD
ENDBRANCH  31  32
ENDBRANCH  20  22
ENDBRANCH  19  20
ENDBRANCH  18  19
ENDBRANCH   2  18
TORSDOF 6
ENDMDL
MODEL 6
REMARK VINA RESULT:      -8.3      3.586      4.880
REMARK  Name = 
REMARK  6 active torsions:
REMARK  status: ('A' for Active; 'I' for Inactive)
REMARK    1  A    between atoms: C_2  and  C_3
REMARK    2  A    between atoms: C_3  and  O_4
REMARK    3  A    between atoms: O_4  and  C_5
REMARK    4  A    between atoms: C_5  and  C_7
REMARK    5  A    between atoms: C_16  and  O_17
REMARK    6  A    between atoms: N_18  and  C_19
REMARK                            x       y       z     vdW  Elec       q    Type
REMARK                         _______ _______ _______ _____ _____    ______ ____
ROOT
ATOM      1  O   UNL     1       2.262   3.283  16.884  0.00  0.00    +0.000 OA
ATOM      2  C   UNL     1       2.867   3.289  17.955  0.00  0.00    +0.000 C 
ATOM      3  N   UNL     1       4.213   3.579  18.123  0.00  0.00    +0.000 N 
ATOM      4  H   UNL     1       4.608   3.396  19.042  0.00  0.00    +0.000 HD
ENDROOT
BRANCH   3   5
ATOM      5  C   UNL     1       5.114   4.014  17.116  0.00  0.00    +0.000 A 
ATOM      6  C   UNL     1       4.987   3.581  15.788  0.00  0.00    +0.000 A 
ATOM      7  C   UNL     1       5.890   4.061  14.870  0.00  0.00    +0.000 A 
ATOM      8  N   UNL     1       6.012   3.753  13.520  0.00  0.00    +0.000 N 
ATOM      9  C   UNL     1       7.098   4.465  12.995  0.00  0.00    +0.000 A 
ATOM     10  O   UNL     1       7.518   4.416  11.853  0.00  0.00    +0.000 OA
ATOM     11  N   UNL     1       7.619   5.235  14.049  0.00  0.00    +0.000 N 
ATOM     12  C   UNL     1       6.886   4.970  15.201  0.00  0.00    +0.000 A 
ATOM     13  C   UNL     1       7.047   5.433  16.484  0.00  0.00    +0.000 A 
ATOM     14  C   UNL     1       6.154   4.931  17.450  0.00  0.00    +0.000 A 
ATOM     15 BR   UNL     1       6.437   5.467  19.256  0.00  0.00    +0.000 Br
ATOM     16  H   UNL     1       5.463   3.091  12.997  0.00  0.00    +0.000 HD
ATOM     17  H   UNL     1       8.421   5.836  13.950  0.00  0.00    +0.000 HD
ENDBRANCH   3   5
BRANCH   2  18
ATOM     18  C   UNL     1       2.112   3.053  19.261  0.00  0.00    +0.000 C 
BRANCH  18  19
ATOM     19  O   UNL     1       1.317   4.151  19.693  0.00  0.00    +0.000 OA
BRANCH  19  20
ATOM     20  C   UNL     1       1.905   4.908  20.649  0.00  0.00    +0.000 C 
ATOM     21  O   UNL     1       2.616   4.499  21.552  0.00  0.00    +0.000 OA
BRANCH  20  22
ATOM     22  C   UNL     1       1.694   6.343  20.375  0.00  0.00    +0.000 A 
ATOM     23  C   UNL     1       0.946   7.054  21.323  0.00  0.00    +0.000 A 
ATOM     24  C   UNL     1       0.695   8.421  21.155  0.00  0.00    +0.000 A 
ATOM     25  C   UNL     1      -0.043   9.139  22.109  0.00  0.00    +0.000 A 
ATOM     26  C   UNL     1      -0.284  10.500  21.940  0.00  0.00    +0.000 A 
ATOM     27  C   UNL     1       0.204  11.160  20.818  0.00  0.00    +0.000 A 
ATOM     28  C   UNL     1       0.937  10.457  19.857  0.00  0.00    +0.000 A 
ATOM     29  C   UNL     1       1.193   9.085  20.012  0.00  0.00    +0.000 A 
ATOM     30  C   UNL     1       1.924   8.359  19.056  0.00  0.00    +0.000 A 
ATOM     31  C   UNL     1       2.170   6.996  19.232  0.00  0.00    +0.000 A 
BRANCH  31  32
ATOM     32  O   UNL     1       2.851   6.306  18.271  0.00  0.00    +0.000 OA
ATOM     33  H   UNL     1       2.696   5.353  18.380  0.00  0.00    +0.000 HD
ENDBRANCH  31  32
ENDBRANCH  20  22
ENDBRANCH  19  20
ENDBRANCH  18  19
ENDBRANCH   2  18
TORSDOF 6
ENDMDL
MODEL 7
REMARK VINA RESULT:      -8.2      3.609      9.338
REMARK  Name = 
REMARK  6 active torsions:
REMARK  status: ('A' for Active; 'I' for Inactive)
REMARK    1  A    between atoms: C_2  and  C_3
REMARK    2  A    between atoms: C_3  and  O_4
REMARK    3  A    between atoms: O_4  and  C_5
REMARK    4  A    between atoms: C_5  and  C_7
REMARK    5  A    between atoms: C_16  and  O_17
REMARK    6  A    between atoms: N_18  and  C_19
REMARK                            x       y       z     vdW  Elec       q    Type
REMARK                         _______ _______ _______ _____ _____    ______ ____
ROOT
ATOM      1  O   UNL     1       0.541   5.104  20.514  0.00  0.00    +0.000 OA
ATOM      2  C   UNL     1       1.721   5.419  20.370  0.00  0.00    +0.000 C 
ATOM      3  N   UNL     1       2.218   6.714  20.362  0.00  0.00    +0.000 N 
ATOM      4  H   UNL     1       3.189   6.828  20.080  0.00  0.00    +0.000 HD
ENDROOT
BRANCH   3   5
ATOM      5  C   UNL     1       1.483   7.901  20.612  0.00  0.00    +0.000 A 
ATOM      6  C   UNL     1       0.866   8.129  21.850  0.00  0.00    +0.000 A 
ATOM      7  C   UNL     1       0.186   9.312  22.019  0.00  0.00    +0.000 A 
ATOM      8  N   UNL     1      -0.544   9.752  23.116  0.00  0.00    +0.000 N 
ATOM      9  C   UNL     1      -1.085  11.010  22.818  0.00  0.00    +0.000 A 
ATOM     10  O   UNL     1      -1.806  11.681  23.535  0.00  0.00    +0.000 OA
ATOM     11  N   UNL     1      -0.645  11.338  21.525  0.00  0.00    +0.000 N 
ATOM     12  C   UNL     1       0.119  10.286  21.032  0.00  0.00    +0.000 A 
ATOM     13  C   UNL     1       0.714  10.117  19.806  0.00  0.00    +0.000 A 
ATOM     14  C   UNL     1       1.389   8.899  19.597  0.00  0.00    +0.000 A 
ATOM     15 BR   UNL     1       2.117   8.595  17.862  0.00  0.00    +0.000 Br
ATOM     16  H   UNL     1      -0.719   9.248  23.970  0.00  0.00    +0.000 HD
ATOM     17  H   UNL     1      -0.900  12.191  21.055  0.00  0.00    +0.000 HD
ENDBRANCH   3   5
BRANCH   2  18
ATOM     18  C   UNL     1       2.795   4.338  20.276  0.00  0.00    +0.000 C 
BRANCH  18  19
ATOM     19  O   UNL     1       4.061   4.797  19.817  0.00  0.00    +0.000 OA
BRANCH  19  20
ATOM     20  C   UNL     1       4.883   3.805  19.400  0.00  0.00    +0.000 C 
ATOM     21  O   UNL     1       4.940   2.678  19.863  0.00  0.00    +0.000 OA
BRANCH  20  22
ATOM     22  C   UNL     1       5.621   4.218  18.190  0.00  0.00    +0.000 A 
ATOM     23  C   UNL     1       5.145   3.718  16.970  0.00  0.00    +0.000 A 
ATOM     24  C   UNL     1       5.776   4.055  15.766  0.00  0.00    +0.000 A 
ATOM     25  C   UNL     1       5.295   3.568  14.542  0.00  0.00    +0.000 A 
ATOM     26  C   UNL     1       5.922   3.912  13.346  0.00  0.00    +0.000 A 
ATOM     27  C   UNL     1       7.036   4.742  13.359  0.00  0.00    +0.000 A 
ATOM     28  C   UNL     1       7.530   5.233  14.572  0.00  0.00    +0.000 A 
ATOM     29  C   UNL     1       6.909   4.900  15.787  0.00  0.00    +0.000 A 
ATOM     30  C   UNL     1       7.391   5.378  17.017  0.00  0.00    +0.000 A 
ATOM     31  C   UNL     1       6.755   5.037  18.212  0.00  0.00    +0.000 A 
BRANCH  31  32
ATOM     32  O   UNL     1       7.265   5.485  19.397  0.00  0.00    +0.000 OA
ATOM     33  H   UNL     1       7.055   4.853  20.104  0.00  0.00    +0.000 HD
ENDBRANCH  31  32
ENDBRANCH  20  22
ENDBRANCH  19  20
ENDBRANCH  18  19
ENDBRANCH   2  18
TORSDOF 6
ENDMDL
MODEL 8
REMARK VINA RESULT:      -8.1      2.297      3.152
REMARK  Name = 
REMARK  6 active torsions:
REMARK  status: ('A' for Active; 'I' for Inactive)
REMARK    1  A    between atoms: C_2  and  C_3
REMARK    2  A    between atoms: C_3  and  O_4
REMARK    3  A    between atoms: O_4  and  C_5
REMARK    4  A    between atoms: C_5  and  C_7
REMARK    5  A    between atoms: C_16  and  O_17
REMARK    6  A    between atoms: N_18  and  C_19
REMARK                            x       y       z     vdW  Elec       q    Type
REMARK                         _______ _______ _______ _____ _____    ______ ____
ROOT
ATOM      1  O   UNL     1       2.789   9.211  17.118  0.00  0.00    +0.000 OA
ATOM      2  C   UNL     1       1.963   8.768  17.916  0.00  0.00    +0.000 C 
ATOM      3  N   UNL     1       2.044   7.549  18.572  0.00  0.00    +0.000 N 
ATOM      4  H   UNL     1       1.216   7.249  19.081  0.00  0.00    +0.000 HD
ENDROOT
BRANCH   3   5
ATOM      5  C   UNL     1       3.128   6.635  18.523  0.00  0.00    +0.000 A 
ATOM      6  C   UNL     1       4.178   6.798  17.609  0.00  0.00    +0.000 A 
ATOM      7  C   UNL     1       5.200   5.879  17.636  0.00  0.00    +0.000 A 
ATOM      8  N   UNL     1       6.316   5.787  16.814  0.00  0.00    +0.000 N 
ATOM      9  C   UNL     1       7.065   4.668  17.200  0.00  0.00    +0.000 A 
ATOM     10  O   UNL     1       8.090   4.262  16.681  0.00  0.00    +0.000 OA
ATOM     11  N   UNL     1       6.395   4.096  18.294  0.00  0.00    +0.000 N 
ATOM     12  C   UNL     1       5.242   4.831  18.546  0.00  0.00    +0.000 A 
ATOM     13  C   UNL     1       4.244   4.633  19.469  0.00  0.00    +0.000 A 
ATOM     14  C   UNL     1       3.170   5.542  19.440  0.00  0.00    +0.000 A 
ATOM     15 BR   UNL     1       1.719   5.213  20.630  0.00  0.00    +0.000 Br
ATOM     16  H   UNL     1       6.542   6.377  16.030  0.00  0.00    +0.000 HD
ATOM     17  H   UNL     1       6.713   3.263  18.763  0.00  0.00    +0.000 HD
ENDBRANCH   3   5
BRANCH   2  18
ATOM     18  C   UNL     1       0.768   9.623  18.330  0.00  0.00    +0.000 C 
BRANCH  18  19
ATOM     19  O   UNL     1       0.962  10.376  19.522  0.00  0.00    +0.000 OA
BRANCH  19  20
ATOM     20  C   UNL     1       0.504   9.760  20.637  0.00  0.00    +0.000 C 
ATOM     21  O   UNL     1       0.910   8.703  21.092  0.00  0.00    +0.000 OA
BRANCH  20  22
ATOM     22  C   UNL     1      -0.476  10.615  21.336  0.00  0.00    +0.000 A 
ATOM     23  C   UNL     1      -1.268  11.442  20.529  0.00  0.00    +0.000 A 
ATOM     24  C   UNL     1      -2.229  12.287  21.098  0.00  0.00    +0.000 A 
ATOM     25  C   UNL     1      -3.033  13.106  20.292  0.00  0.00    +0.000 A 
ATOM     26  C   UNL     1      -3.992  13.939  20.863  0.00  0.00    +0.000 A 
ATOM     27  C   UNL     1      -4.157  13.968  22.242  0.00  0.00    +0.000 A 
ATOM     28  C   UNL     1      -3.359  13.160  23.059  0.00  0.00    +0.000 A 
ATOM     29  C   UNL     1      -2.390  12.311  22.501  0.00  0.00    +0.000 A 
ATOM     30  C   UNL     1      -1.575  11.494  23.304  0.00  0.00    +0.000 A 
ATOM     31  C   UNL     1      -0.621  10.655  22.727  0.00  0.00    +0.000 A 
BRANCH  31  32
ATOM     32  O   UNL     1       0.183   9.899  23.532  0.00  0.00    +0.000 OA
ATOM     33  H   UNL     1       0.567   9.169  23.018  0.00  0.00    +0.000 HD
ENDBRANCH  31  32
ENDBRANCH  20  22
ENDBRANCH  19  20
ENDBRANCH  18  19
ENDBRANCH   2  18
TORSDOF 6
ENDMDL
MODEL 9
REMARK VINA RESULT:      -8.1      1.929      3.166
REMARK  Name = 
REMARK  6 active torsions:
REMARK  status: ('A' for Active; 'I' for Inactive)
REMARK    1  A    between atoms: C_2  and  C_3
REMARK    2  A    between atoms: C_3  and  O_4
REMARK    3  A    between atoms: O_4  and  C_5
REMARK    4  A    between atoms: C_5  and  C_7
REMARK    5  A    between atoms: C_16  and  O_17
REMARK    6  A    between atoms: N_18  and  C_19
REMARK                            x       y       z     vdW  Elec       q    Type
REMARK                         _______ _______ _______ _____ _____    ______ ____
ROOT
ATOM      1  O   UNL     1       1.955   9.056  17.428  0.00  0.00    +0.000 OA
ATOM      2  C   UNL     1       1.838   8.519  18.529  0.00  0.00    +0.000 C 
ATOM      3  N   UNL     1       2.373   7.293  18.893  0.00  0.00    +0.000 N 
ATOM      4  H   UNL     1       2.066   6.908  19.783  0.00  0.00    +0.000 HD
ENDROOT
BRANCH   3   5
ATOM      5  C   UNL     1       3.228   6.479  18.106  0.00  0.00    +0.000 A 
ATOM      6  C   UNL     1       4.293   7.029  17.380  0.00  0.00    +0.000 A 
ATOM      7  C   UNL     1       5.086   6.171  16.656  0.00  0.00    +0.000 A 
ATOM      8  N   UNL     1       6.158   6.464  15.822  0.00  0.00    +0.000 N 
ATOM      9  C   UNL     1       6.639   5.267  15.274  0.00  0.00    +0.000 A 
ATOM     10  O   UNL     1       7.551   5.146  14.476  0.00  0.00    +0.000 OA
ATOM     11  N   UNL     1       5.853   4.236  15.814  0.00  0.00    +0.000 N 
ATOM     12  C   UNL     1       4.890   4.797  16.647  0.00  0.00    +0.000 A 
ATOM     13  C   UNL     1       3.868   4.206  17.350  0.00  0.00    +0.000 A 
ATOM     14  C   UNL     1       3.023   5.067  18.074  0.00  0.00    +0.000 A 
ATOM     15 BR   UNL     1       1.529   4.280  18.956  0.00  0.00    +0.000 Br
ATOM     16  H   UNL     1       6.513   7.377  15.588  0.00  0.00    +0.000 HD
ATOM     17  H   UNL     1       5.976   3.265  15.577  0.00  0.00    +0.000 HD
ENDBRANCH   3   5
BRANCH   2  18
ATOM     18  C   UNL     1       1.130   9.254  19.665  0.00  0.00    +0.000 C 
BRANCH  18  19
ATOM     19  O   UNL     1       0.134  10.179  19.243  0.00  0.00    +0.000 OA
BRANCH  19  20
ATOM     20  C   UNL     1       0.236  11.395  19.829  0.00  0.00    +0.000 C 
ATOM     21  O   UNL     1       1.237  12.093  19.866  0.00  0.00    +0.000 OA
BRANCH  20  22
ATOM     22  C   UNL     1      -1.083  11.852  20.309  0.00  0.00    +0.000 A 
ATOM     23  C   UNL     1      -1.297  11.792  21.693  0.00  0.00    +0.000 A 
ATOM     24  C   UNL     1      -2.514  12.206  22.245  0.00  0.00    +0.000 A 
ATOM     25  C   UNL     1      -2.728  12.160  23.631  0.00  0.00    +0.000 A 
ATOM     26  C   UNL     1      -3.939  12.580  24.177  0.00  0.00    +0.000 A 
ATOM     27  C   UNL     1      -4.951  13.046  23.346  0.00  0.00    +0.000 A 
ATOM     28  C   UNL     1      -4.755  13.094  21.963  0.00  0.00    +0.000 A 
ATOM     29  C   UNL     1      -3.540  12.679  21.395  0.00  0.00    +0.000 A 
ATOM     30  C   UNL     1      -3.323  12.714  20.007  0.00  0.00    +0.000 A 
ATOM     31  C   UNL     1      -2.106  12.300  19.465  0.00  0.00    +0.000 A 
BRANCH  31  32
ATOM     32  O   UNL     1      -1.934  12.310  18.111  0.00  0.00    +0.000 OA
ATOM     33  H   UNL     1      -1.176  12.872  17.881  0.00  0.00    +0.000 HD
ENDBRANCH  31  32
ENDBRANCH  20  22
ENDBRANCH  19  20
ENDBRANCH  18  19
ENDBRANCH   2  18
TORSDOF 6
ENDMDL
