MODEL 1
REMARK VINA RESULT:      -9.0      0.000      0.000
REMARK  Name = 
REMARK  5 active torsions:
REMARK  status: ('A' for Active; 'I' for Inactive)
REMARK    1  A    between atoms: C_1  and  C_2
REMARK    2  A    between atoms: C_4  and  C_5
REMARK    3  A    between atoms: C_9  and  N_10
REMARK    4  A    between atoms: C_11  and  C_13
REMARK    5  A    between atoms: C_25  and  C_26
REMARK                            x       y       z     vdW  Elec       q    Type
REMARK                         _______ _______ _______ _____ _____    ______ ____
ROOT
ATOM      1  N   UNL     1       2.205   8.279  18.783  0.00  0.00    +0.000 N 
ATOM      2  C   UNL     1       2.472   7.031  19.358  0.00  0.00    +0.000 C 
ATOM      3  O   UNL     1       1.851   6.502  20.273  0.00  0.00    +0.000 OA
ATOM      4  H   UNL     1       2.753   8.556  17.982  0.00  0.00    +0.000 HD
ENDROOT
BRANCH   2   5
ATOM      5  C   UNL     1       3.608   6.252  18.753  0.00  0.00    +0.000 A 
ATOM      6  C   UNL     1       4.358   5.362  19.523  0.00  0.00    +0.000 A 
ATOM      7  C   UNL     1       5.538   4.822  19.019  0.00  0.00    +0.000 A 
ATOM      8  C   UNL     1       5.928   5.069  17.696  0.00  0.00    +0.000 A 
ATOM      9  C   UNL     1       7.139   4.604  17.186  0.00  0.00    +0.000 A 
ATOM     10  N   UNL     1       7.478   4.630  15.882  0.00  0.00    +0.000 NA
ATOM     11  C   UNL     1       6.570   5.168  15.043  0.00  0.00    +0.000 A 
ATOM     12  C   UNL     1       5.396   5.785  15.462  0.00  0.00    +0.000 A 
ATOM     13  C   UNL     1       5.069   5.771  16.831  0.00  0.00    +0.000 A 
ATOM     14  C   UNL     1       3.934   6.410  17.389  0.00  0.00    +0.000 A 
ENDBRANCH   2   5
BRANCH   1  19
ATOM     15  C   UNL     1      -0.921  10.332  18.528  0.00  0.00    +0.000 A 
ATOM     16  C   UNL     1      -0.899  10.964  19.782  0.00  0.00    +0.000 A 
ATOM     17  C   UNL     1       0.128  10.734  20.688  0.00  0.00    +0.000 A 
ATOM     18  C   UNL     1       1.160   9.860  20.361  0.00  0.00    +0.000 A 
ATOM     19  C   UNL     1       1.177   9.197  19.134  0.00  0.00    +0.000 A 
ATOM     20  C   UNL     1       0.129   9.445  18.213  0.00  0.00    +0.000 A 
BRANCH  15  24
ATOM     21  C   UNL     1      -5.229  12.019  16.837  0.00  0.00    +0.000 C 
ATOM     22  C   UNL     1      -3.913  11.343  16.853  0.00  0.00    +0.000 A 
ATOM     23  N   UNL     1      -3.116  11.381  17.967  0.00  0.00    +0.000 NA
ATOM     24  C   UNL     1      -2.058  10.658  17.656  0.00  0.00    +0.000 A 
ATOM     25  O   UNL     1      -2.085  10.151  16.383  0.00  0.00    +0.000 OA
ATOM     26  C   UNL     1      -3.293  10.596  15.877  0.00  0.00    +0.000 A 
ATOM     27  C   UNL     1      -3.684  10.205  14.512  0.00  0.00    +0.000 C 
ENDBRANCH  15  24
ENDBRANCH   1  19
TORSDOF 3
ENDMDL
MODEL 2
REMARK VINA RESULT:      -8.9      6.384      8.659
REMARK  Name = 
REMARK  5 active torsions:
REMARK  status: ('A' for Active; 'I' for Inactive)
REMARK    1  A    between atoms: C_1  and  C_2
REMARK    2  A    between atoms: C_4  and  C_5
REMARK    3  A    between atoms: C_9  and  N_10
REMARK    4  A    between atoms: C_11  and  C_13
REMARK    5  A    between atoms: C_25  and  C_26
REMARK                            x       y       z     vdW  Elec       q    Type
REMARK                         _______ _______ _______ _____ _____    ______ ____
ROOT
ATOM      1  N   UNL     1       7.043   7.760  17.255  0.00  0.00    +0.000 N 
ATOM      2  C   UNL     1       8.019   8.055  18.215  0.00  0.00    +0.000 C 
ATOM      3  O   UNL     1       8.581   7.254  18.953  0.00  0.00    +0.000 OA
ATOM      4  H   UNL     1       6.722   8.512  16.663  0.00  0.00    +0.000 HD
ENDROOT
BRANCH   2   5
ATOM      5  C   UNL     1       8.445   9.495  18.305  0.00  0.00    +0.000 A 
ATOM      6  C   UNL     1       7.846  10.471  17.506  0.00  0.00    +0.000 A 
ATOM      7  C   UNL     1       8.396  11.748  17.432  0.00  0.00    +0.000 A 
ATOM      8  C   UNL     1       9.482  12.106  18.241  0.00  0.00    +0.000 A 
ATOM      9  C   UNL     1      10.100  13.352  18.135  0.00  0.00    +0.000 A 
ATOM     10  N   UNL     1      11.005  13.830  19.013  0.00  0.00    +0.000 NA
ATOM     11  C   UNL     1      11.328  13.017  20.037  0.00  0.00    +0.000 A 
ATOM     12  C   UNL     1      10.878  11.706  20.159  0.00  0.00    +0.000 A 
ATOM     13  C   UNL     1       9.952  11.213  19.220  0.00  0.00    +0.000 A 
ATOM     14  C   UNL     1       9.461   9.883  19.203  0.00  0.00    +0.000 A 
ENDBRANCH   2   5
BRANCH   1  19
ATOM     15  C   UNL     1       4.871   4.712  17.465  0.00  0.00    +0.000 A 
ATOM     16  C   UNL     1       5.331   4.009  16.341  0.00  0.00    +0.000 A 
ATOM     17  C   UNL     1       6.344   4.516  15.537  0.00  0.00    +0.000 A 
ATOM     18  C   UNL     1       6.921   5.745  15.839  0.00  0.00    +0.000 A 
ATOM     19  C   UNL     1       6.490   6.490  16.938  0.00  0.00    +0.000 A 
ATOM     20  C   UNL     1       5.462   5.960  17.756  0.00  0.00    +0.000 A 
BRANCH  15  24
ATOM     21  C   UNL     1       0.701   2.414  18.727  0.00  0.00    +0.000 C 
ATOM     22  C   UNL     1       2.007   3.095  18.865  0.00  0.00    +0.000 A 
ATOM     23  N   UNL     1       2.729   3.466  17.761  0.00  0.00    +0.000 NA
ATOM     24  C   UNL     1       3.798   4.072  18.238  0.00  0.00    +0.000 A 
ATOM     25  O   UNL     1       3.851   4.111  19.608  0.00  0.00    +0.000 OA
ATOM     26  C   UNL     1       2.684   3.481  20.001  0.00  0.00    +0.000 A 
ATOM     27  C   UNL     1       2.382   3.369  21.438  0.00  0.00    +0.000 C 
ENDBRANCH  15  24
ENDBRANCH   1  19
TORSDOF 3
ENDMDL
MODEL 3
REMARK VINA RESULT:      -8.9      0.670      1.201
REMARK  Name = 
REMARK  5 active torsions:
REMARK  status: ('A' for Active; 'I' for Inactive)
REMARK    1  A    between atoms: C_1  and  C_2
REMARK    2  A    between atoms: C_4  and  C_5
REMARK    3  A    between atoms: C_9  and  N_10
REMARK    4  A    between atoms: C_11  and  C_13
REMARK    5  A    between atoms: C_25  and  C_26
REMARK                            x       y       z     vdW  Elec       q    Type
REMARK                         _______ _______ _______ _____ _____    ______ ____
ROOT
ATOM      1  N   UNL     1       2.276   8.280  18.602  0.00  0.00    +0.000 N 
ATOM      2  C   UNL     1       2.537   7.057  19.233  0.00  0.00    +0.000 C 
ATOM      3  O   UNL     1       1.893   6.558  20.149  0.00  0.00    +0.000 OA
ATOM      4  H   UNL     1       2.845   8.531  17.808  0.00  0.00    +0.000 HD
ENDROOT
BRANCH   2   5
ATOM      5  C   UNL     1       3.696   6.266  18.691  0.00  0.00    +0.000 A 
ATOM      6  C   UNL     1       4.424   5.406  19.515  0.00  0.00    +0.000 A 
ATOM      7  C   UNL     1       5.623   4.857  19.068  0.00  0.00    +0.000 A 
ATOM      8  C   UNL     1       6.055   5.064  17.752  0.00  0.00    +0.000 A 
ATOM      9  C   UNL     1       7.286   4.589  17.298  0.00  0.00    +0.000 A 
ATOM     10  N   UNL     1       7.667   4.575  16.005  0.00  0.00    +0.000 NA
ATOM     11  C   UNL     1       6.786   5.080  15.119  0.00  0.00    +0.000 A 
ATOM     12  C   UNL     1       5.595   5.703  15.479  0.00  0.00    +0.000 A 
ATOM     13  C   UNL     1       5.223   5.732  16.837  0.00  0.00    +0.000 A 
ATOM     14  C   UNL     1       4.066   6.382  17.335  0.00  0.00    +0.000 A 
ENDBRANCH   2   5
BRANCH   1  19
ATOM     15  C   UNL     1      -0.907  10.224  18.222  0.00  0.00    +0.000 A 
ATOM     16  C   UNL     1      -0.879  10.970  19.411  0.00  0.00    +0.000 A 
ATOM     17  C   UNL     1       0.170  10.850  20.314  0.00  0.00    +0.000 A 
ATOM     18  C   UNL     1       1.219   9.975  20.048  0.00  0.00    +0.000 A 
ATOM     19  C   UNL     1       1.231   9.201  18.887  0.00  0.00    +0.000 A 
ATOM     20  C   UNL     1       0.161   9.336  17.969  0.00  0.00    +0.000 A 
BRANCH  15  24
ATOM     21  C   UNL     1      -3.942  10.240  14.342  0.00  0.00    +0.000 C 
ATOM     22  C   UNL     1      -3.431  10.501  15.707  0.00  0.00    +0.000 A 
ATOM     23  N   UNL     1      -2.231   9.985  16.120  0.00  0.00    +0.000 NA
ATOM     24  C   UNL     1      -2.067  10.439  17.347  0.00  0.00    +0.000 A 
ATOM     25  O   UNL     1      -3.103  11.216  17.796  0.00  0.00    +0.000 OA
ATOM     26  C   UNL     1      -3.975  11.254  16.723  0.00  0.00    +0.000 A 
ATOM     27  C   UNL     1      -5.212  12.045  16.835  0.00  0.00    +0.000 C 
ENDBRANCH  15  24
ENDBRANCH   1  19
TORSDOF 3
ENDMDL
MODEL 4
REMARK VINA RESULT:      -8.9      6.422      8.681
REMARK  Name = 
REMARK  5 active torsions:
REMARK  status: ('A' for Active; 'I' for Inactive)
REMARK    1  A    between atoms: C_1  and  C_2
REMARK    2  A    between atoms: C_4  and  C_5
REMARK    3  A    between atoms: C_9  and  N_10
REMARK    4  A    between atoms: C_11  and  C_13
REMARK    5  A    between atoms: C_25  and  C_26
REMARK                            x       y       z     vdW  Elec       q    Type
REMARK                         _______ _______ _______ _____ _____    ______ ____
ROOT
ATOM      1  N   UNL     1       7.065   7.807  17.276  0.00  0.00    +0.000 N 
ATOM      2  C   UNL     1       8.043   8.104  18.233  0.00  0.00    +0.000 C 
ATOM      3  O   UNL     1       8.587   7.307  18.990  0.00  0.00    +0.000 OA
ATOM      4  H   UNL     1       6.760   8.552  16.667  0.00  0.00    +0.000 HD
ENDROOT
BRANCH   2   5
ATOM      5  C   UNL     1       8.495   9.537  18.296  0.00  0.00    +0.000 A 
ATOM      6  C   UNL     1       7.884  10.516  17.511  0.00  0.00    +0.000 A 
ATOM      7  C   UNL     1       8.452  11.783  17.406  0.00  0.00    +0.000 A 
ATOM      8  C   UNL     1       9.571  12.130  18.173  0.00  0.00    +0.000 A 
ATOM      9  C   UNL     1      10.205  13.364  18.035  0.00  0.00    +0.000 A 
ATOM     10  N   UNL     1      11.149  13.835  18.876  0.00  0.00    +0.000 NA
ATOM     11  C   UNL     1      11.494  13.024  19.895  0.00  0.00    +0.000 A 
ATOM     12  C   UNL     1      11.027  11.722  20.045  0.00  0.00    +0.000 A 
ATOM     13  C   UNL     1      10.061  11.237  19.143  0.00  0.00    +0.000 A 
ATOM     14  C   UNL     1       9.549   9.915  19.155  0.00  0.00    +0.000 A 
ENDBRANCH   2   5
BRANCH   1  19
ATOM     15  C   UNL     1       4.910   4.757  17.600  0.00  0.00    +0.000 A 
ATOM     16  C   UNL     1       5.290   4.067  16.437  0.00  0.00    +0.000 A 
ATOM     17  C   UNL     1       6.244   4.584  15.570  0.00  0.00    +0.000 A 
ATOM     18  C   UNL     1       6.842   5.810  15.847  0.00  0.00    +0.000 A 
ATOM     19  C   UNL     1       6.490   6.541  16.982  0.00  0.00    +0.000 A 
ATOM     20  C   UNL     1       5.521   6.001  17.865  0.00  0.00    +0.000 A 
BRANCH  15  24
ATOM     21  C   UNL     1       2.516   2.795  21.432  0.00  0.00    +0.000 C 
ATOM     22  C   UNL     1       2.800   3.225  20.045  0.00  0.00    +0.000 A 
ATOM     23  N   UNL     1       3.938   3.926  19.744  0.00  0.00    +0.000 NA
ATOM     24  C   UNL     1       3.894   4.107  18.438  0.00  0.00    +0.000 A 
ATOM     25  O   UNL     1       2.775   3.586  17.842  0.00  0.00    +0.000 OA
ATOM     26  C   UNL     1       2.079   3.014  18.891  0.00  0.00    +0.000 A 
ATOM     27  C   UNL     1       0.813   2.314  18.612  0.00  0.00    +0.000 C 
ENDBRANCH  15  24
ENDBRANCH   1  19
TORSDOF 3
ENDMDL
MODEL 5
REMARK VINA RESULT:      -8.8      3.136      9.218
REMARK  Name = 
REMARK  5 active torsions:
REMARK  status: ('A' for Active; 'I' for Inactive)
REMARK    1  A    between atoms: C_1  and  C_2
REMARK    2  A    between atoms: C_4  and  C_5
REMARK    3  A    between atoms: C_9  and  N_10
REMARK    4  A    between atoms: C_11  and  C_13
REMARK    5  A    between atoms: C_25  and  C_26
REMARK                            x       y       z     vdW  Elec       q    Type
REMARK                         _______ _______ _______ _____ _____    ______ ____
ROOT
ATOM      1  N   UNL     1       4.117   6.948  17.519  0.00  0.00    +0.000 N 
ATOM      2  C   UNL     1       3.264   6.679  18.596  0.00  0.00    +0.000 C 
ATOM      3  O   UNL     1       3.271   5.673  19.297  0.00  0.00    +0.000 OA
ATOM      4  H   UNL     1       4.050   7.854  17.079  0.00  0.00    +0.000 HD
ENDROOT
BRANCH   2   5
ATOM      5  C   UNL     1       2.279   7.760  18.946  0.00  0.00    +0.000 A 
ATOM      6  C   UNL     1       1.832   8.663  17.980  0.00  0.00    +0.000 A 
ATOM      7  C   UNL     1       1.104   9.788  18.357  0.00  0.00    +0.000 A 
ATOM      8  C   UNL     1       0.711   9.970  19.689  0.00  0.00    +0.000 A 
ATOM      9  C   UNL     1       0.046  11.122  20.110  0.00  0.00    +0.000 A 
ATOM     10  N   UNL     1      -0.535  11.268  21.318  0.00  0.00    +0.000 NA
ATOM     11  C   UNL     1      -0.429  10.221  22.160  0.00  0.00    +0.000 A 
ATOM     12  C   UNL     1       0.328   9.084  21.893  0.00  0.00    +0.000 A 
ATOM     13  C   UNL     1       0.949   8.958  20.636  0.00  0.00    +0.000 A 
ATOM     14  C   UNL     1       1.789   7.878  20.264  0.00  0.00    +0.000 A 
ENDBRANCH   2   5
BRANCH   1  19
ATOM     15  C   UNL     1       5.991   4.692  15.183  0.00  0.00    +0.000 A 
ATOM     16  C   UNL     1       7.179   4.521  15.912  0.00  0.00    +0.000 A 
ATOM     17  C   UNL     1       7.358   5.121  17.152  0.00  0.00    +0.000 A 
ATOM     18  C   UNL     1       6.348   5.912  17.693  0.00  0.00    +0.000 A 
ATOM     19  C   UNL     1       5.155   6.124  17.003  0.00  0.00    +0.000 A 
ATOM     20  C   UNL     1       4.979   5.501  15.742  0.00  0.00    +0.000 A 
BRANCH  15  24
ATOM     21  C   UNL     1       7.187   2.282  11.057  0.00  0.00    +0.000 C 
ATOM     22  C   UNL     1       6.361   2.978  12.069  0.00  0.00    +0.000 A 
ATOM     23  N   UNL     1       6.906   3.402  13.252  0.00  0.00    +0.000 NA
ATOM     24  C   UNL     1       5.920   4.006  13.886  0.00  0.00    +0.000 A 
ATOM     25  O   UNL     1       4.730   3.993  13.206  0.00  0.00    +0.000 OA
ATOM     26  C   UNL     1       5.031   3.330  12.030  0.00  0.00    +0.000 A 
ATOM     27  C   UNL     1       3.975   3.157  11.017  0.00  0.00    +0.000 C 
ENDBRANCH  15  24
ENDBRANCH   1  19
TORSDOF 3
ENDMDL
MODEL 6
REMARK VINA RESULT:      -8.8      3.329      9.153
REMARK  Name = 
REMARK  5 active torsions:
REMARK  status: ('A' for Active; 'I' for Inactive)
REMARK    1  A    between atoms: C_1  and  C_2
REMARK    2  A    between atoms: C_4  and  C_5
REMARK    3  A    between atoms: C_9  and  N_10
REMARK    4  A    between atoms: C_11  and  C_13
REMARK    5  A    between atoms: C_25  and  C_26
REMARK                            x       y       z     vdW  Elec       q    Type
REMARK                         _______ _______ _______ _____ _____    ______ ____
ROOT
ATOM      1  N   UNL     1       4.248   6.959  17.715  0.00  0.00    +0.000 N 
ATOM      2  C   UNL     1       2.984   6.628  18.219  0.00  0.00    +0.000 C 
ATOM      3  O   UNL     1       2.487   5.508  18.261  0.00  0.00    +0.000 OA
ATOM      4  H   UNL     1       4.560   7.914  17.816  0.00  0.00    +0.000 HD
ENDROOT
BRANCH   2   5
ATOM      5  C   UNL     1       2.189   7.761  18.808  0.00  0.00    +0.000 A 
ATOM      6  C   UNL     1       1.823   8.861  18.029  0.00  0.00    +0.000 A 
ATOM      7  C   UNL     1       1.290   9.997  18.630  0.00  0.00    +0.000 A 
ATOM      8  C   UNL     1       1.004  10.012  20.002  0.00  0.00    +0.000 A 
ATOM      9  C   UNL     1       0.540  11.159  20.645  0.00  0.00    +0.000 A 
ATOM     10  N   UNL     1       0.056  11.184  21.904  0.00  0.00    +0.000 NA
ATOM     11  C   UNL     1       0.056  10.009  22.564  0.00  0.00    +0.000 A 
ATOM     12  C   UNL     1       0.622   8.840  22.068  0.00  0.00    +0.000 A 
ATOM     13  C   UNL     1       1.146   8.836  20.761  0.00  0.00    +0.000 A 
ATOM     14  C   UNL     1       1.797   7.728  20.163  0.00  0.00    +0.000 A 
ENDBRANCH   2   5
BRANCH   1  19
ATOM     15  C   UNL     1       5.925   4.711  15.228  0.00  0.00    +0.000 A 
ATOM     16  C   UNL     1       7.095   4.394  15.938  0.00  0.00    +0.000 A 
ATOM     17  C   UNL     1       7.323   4.895  17.213  0.00  0.00    +0.000 A 
ATOM     18  C   UNL     1       6.384   5.731  17.809  0.00  0.00    +0.000 A 
ATOM     19  C   UNL     1       5.212   6.086  17.141  0.00  0.00    +0.000 A 
ATOM     20  C   UNL     1       4.985   5.564  15.844  0.00  0.00    +0.000 A 
BRANCH  15  24
ATOM     21  C   UNL     1       4.085   3.001  10.991  0.00  0.00    +0.000 C 
ATOM     22  C   UNL     1       5.074   3.342  12.038  0.00  0.00    +0.000 A 
ATOM     23  N   UNL     1       4.698   4.019  13.168  0.00  0.00    +0.000 NA
ATOM     24  C   UNL     1       5.796   4.118  13.890  0.00  0.00    +0.000 A 
ATOM     25  O   UNL     1       6.903   3.565  13.299  0.00  0.00    +0.000 OA
ATOM     26  C   UNL     1       6.421   3.062  12.104  0.00  0.00    +0.000 A 
ATOM     27  C   UNL     1       7.344   2.351  11.204  0.00  0.00    +0.000 C 
ENDBRANCH  15  24
ENDBRANCH   1  19
TORSDOF 3
ENDMDL
MODEL 7
REMARK VINA RESULT:      -8.3      3.595      9.312
REMARK  Name = 
REMARK  5 active torsions:
REMARK  status: ('A' for Active; 'I' for Inactive)
REMARK    1  A    between atoms: C_1  and  C_2
REMARK    2  A    between atoms: C_4  and  C_5
REMARK    3  A    between atoms: C_9  and  N_10
REMARK    4  A    between atoms: C_11  and  C_13
REMARK    5  A    between atoms: C_25  and  C_26
REMARK                            x       y       z     vdW  Elec       q    Type
REMARK                         _______ _______ _______ _____ _____    ______ ____
ROOT
ATOM      1  N   UNL     1       1.251   6.959  21.010  0.00  0.00    +0.000 N 
ATOM      2  C   UNL     1       1.289   8.243  20.453  0.00  0.00    +0.000 C 
ATOM      3  O   UNL     1       1.723   8.544  19.347  0.00  0.00    +0.000 OA
ATOM      4  H   UNL     1       0.792   6.846  21.902  0.00  0.00    +0.000 HD
ENDROOT
BRANCH   2   5
ATOM      5  C   UNL     1       0.690   9.344  21.284  0.00  0.00    +0.000 A 
ATOM      6  C   UNL     1       0.051   9.063  22.493  0.00  0.00    +0.000 A 
ATOM      7  C   UNL     1      -0.692  10.048  23.138  0.00  0.00    +0.000 A 
ATOM      8  C   UNL     1      -0.712  11.361  22.649  0.00  0.00    +0.000 A 
ATOM      9  C   UNL     1      -1.504  12.351  23.230  0.00  0.00    +0.000 A 
ATOM     10  N   UNL     1      -1.416  13.665  22.941  0.00  0.00    +0.000 NA
ATOM     11  C   UNL     1      -0.506  14.009  22.008  0.00  0.00    +0.000 A 
ATOM     12  C   UNL     1       0.234  13.091  21.271  0.00  0.00    +0.000 A 
ATOM     13  C   UNL     1       0.112  11.720  21.567  0.00  0.00    +0.000 A 
ATOM     14  C   UNL     1       0.767  10.685  20.854  0.00  0.00    +0.000 A 
ENDBRANCH   2   5
BRANCH   1  19
ATOM     15  C   UNL     1       3.318   4.591  18.967  0.00  0.00    +0.000 A 
ATOM     16  C   UNL     1       2.687   3.379  19.289  0.00  0.00    +0.000 A 
ATOM     17  C   UNL     1       1.595   3.339  20.148  0.00  0.00    +0.000 A 
ATOM     18  C   UNL     1       1.110   4.516  20.708  0.00  0.00    +0.000 A 
ATOM     19  C   UNL     1       1.709   5.745  20.431  0.00  0.00    +0.000 A 
ATOM     20  C   UNL     1       2.817   5.776  19.548  0.00  0.00    +0.000 A 
BRANCH  15  24
ATOM     21  C   UNL     1       6.095   3.904  14.957  0.00  0.00    +0.000 C 
ATOM     22  C   UNL     1       5.731   4.213  16.358  0.00  0.00    +0.000 A 
ATOM     23  N   UNL     1       4.420   4.247  16.754  0.00  0.00    +0.000 NA
ATOM     24  C   UNL     1       4.459   4.505  18.047  0.00  0.00    +0.000 A 
ATOM     25  O   UNL     1       5.727   4.671  18.543  0.00  0.00    +0.000 OA
ATOM     26  C   UNL     1       6.540   4.473  17.442  0.00  0.00    +0.000 A 
ATOM     27  C   UNL     1       8.001   4.541  17.611  0.00  0.00    +0.000 C 
ENDBRANCH  15  24
ENDBRANCH   1  19
TORSDOF 3
ENDMDL
MODEL 8
REMARK VINA RESULT:      -8.2      3.117      9.188
REMARK  Name = 
REMARK  5 active torsions:
REMARK  status: ('A' for Active; 'I' for Inactive)
REMARK    1  A    between atoms: C_1  and  C_2
REMARK    2  A    between atoms: C_4  and  C_5
REMARK    3  A    between atoms: C_9  and  N_10
REMARK    4  A    between atoms: C_11  and  C_13
REMARK    5  A    between atoms: C_25  and  C_26
REMARK                            x       y       z     vdW  Elec       q    Type
REMARK                         _______ _______ _______ _____ _____    ______ ____
ROOT
ATOM      1  N   UNL     1       3.052   7.083  18.920  0.00  0.00    +0.000 N 
ATOM      2  C   UNL     1       2.061   7.108  19.909  0.00  0.00    +0.000 C 
ATOM      3  O   UNL     1       1.749   6.183  20.651  0.00  0.00    +0.000 OA
ATOM      4  H   UNL     1       3.255   7.944  18.435  0.00  0.00    +0.000 HD
ENDROOT
BRANCH   2   5
ATOM      5  C   UNL     1       1.351   8.419  20.102  0.00  0.00    +0.000 A 
ATOM      6  C   UNL     1       1.312   9.370  19.081  0.00  0.00    +0.000 A 
ATOM      7  C   UNL     1       0.853  10.659  19.341  0.00  0.00    +0.000 A 
ATOM      8  C   UNL     1       0.319  10.986  20.594  0.00  0.00    +0.000 A 
ATOM      9  C   UNL     1      -0.079  12.285  20.908  0.00  0.00    +0.000 A 
ATOM     10  N   UNL     1      -0.783  12.622  22.008  0.00  0.00    +0.000 NA
ATOM     11  C   UNL     1      -1.088  11.615  22.850  0.00  0.00    +0.000 A 
ATOM     12  C   UNL     1      -0.623  10.312  22.703  0.00  0.00    +0.000 A 
ATOM     13  C   UNL     1       0.132   9.983  21.561  0.00  0.00    +0.000 A 
ATOM     14  C   UNL     1       0.708   8.709  21.324  0.00  0.00    +0.000 A 
ENDBRANCH   2   5
BRANCH   1  19
ATOM     15  C   UNL     1       5.305   4.908  16.859  0.00  0.00    +0.000 A 
ATOM     16  C   UNL     1       5.591   3.900  17.794  0.00  0.00    +0.000 A 
ATOM     17  C   UNL     1       5.045   3.924  19.071  0.00  0.00    +0.000 A 
ATOM     18  C   UNL     1       4.198   4.963  19.444  0.00  0.00    +0.000 A 
ATOM     19  C   UNL     1       3.893   5.996  18.557  0.00  0.00    +0.000 A 
ATOM     20  C   UNL     1       4.448   5.958  17.254  0.00  0.00    +0.000 A 
BRANCH  15  24
ATOM     21  C   UNL     1       8.238   5.551  12.954  0.00  0.00    +0.000 C 
ATOM     22  C   UNL     1       7.159   5.000  13.805  0.00  0.00    +0.000 A 
ATOM     23  N   UNL     1       6.996   5.424  15.097  0.00  0.00    +0.000 NA
ATOM     24  C   UNL     1       5.940   4.771  15.541  0.00  0.00    +0.000 A 
ATOM     25  O   UNL     1       5.393   3.909  14.626  0.00  0.00    +0.000 OA
ATOM     26  C   UNL     1       6.188   4.071  13.506  0.00  0.00    +0.000 A 
ATOM     27  C   UNL     1       5.867   3.310  12.286  0.00  0.00    +0.000 C 
ENDBRANCH  15  24
ENDBRANCH   1  19
TORSDOF 3
ENDMDL
MODEL 9
REMARK VINA RESULT:      -8.2      6.318      8.382
REMARK  Name = 
REMARK  5 active torsions:
REMARK  status: ('A' for Active; 'I' for Inactive)
REMARK    1  A    between atoms: C_1  and  C_2
REMARK    2  A    between atoms: C_4  and  C_5
REMARK    3  A    between atoms: C_9  and  N_10
REMARK    4  A    between atoms: C_11  and  C_13
REMARK    5  A    between atoms: C_25  and  C_26
REMARK                            x       y       z     vdW  Elec       q    Type
REMARK                         _______ _______ _______ _____ _____    ______ ____
ROOT
ATOM      1  N   UNL     1       6.933   7.806  17.229  0.00  0.00    +0.000 N 
ATOM      2  C   UNL     1       7.951   7.987  18.173  0.00  0.00    +0.000 C 
ATOM      3  O   UNL     1       8.483   7.112  18.846  0.00  0.00    +0.000 OA
ATOM      4  H   UNL     1       6.642   8.608  16.690  0.00  0.00    +0.000 HD
ENDROOT
BRANCH   2   5
ATOM      5  C   UNL     1       8.465   9.391  18.330  0.00  0.00    +0.000 A 
ATOM      6  C   UNL     1       9.550   9.667  19.165  0.00  0.00    +0.000 A 
ATOM      7  C   UNL     1       9.873  10.984  19.480  0.00  0.00    +0.000 A 
ATOM      8  C   UNL     1       9.193  12.050  18.876  0.00  0.00    +0.000 A 
ATOM      9  C   UNL     1       9.443  13.376  19.226  0.00  0.00    +0.000 A 
ATOM     10  N   UNL     1       8.979  14.445  18.547  0.00  0.00    +0.000 NA
ATOM     11  C   UNL     1       8.206  14.178  17.476  0.00  0.00    +0.000 A 
ATOM     12  C   UNL     1       7.782  12.901  17.123  0.00  0.00    +0.000 A 
ATOM     13  C   UNL     1       8.257  11.798  17.858  0.00  0.00    +0.000 A 
ATOM     14  C   UNL     1       7.857  10.456  17.634  0.00  0.00    +0.000 A 
ENDBRANCH   2   5
BRANCH   1  19
ATOM     15  C   UNL     1       4.643   4.841  17.376  0.00  0.00    +0.000 A 
ATOM     16  C   UNL     1       4.974   4.218  16.162  0.00  0.00    +0.000 A 
ATOM     17  C   UNL     1       5.940   4.751  15.318  0.00  0.00    +0.000 A 
ATOM     18  C   UNL     1       6.598   5.925  15.669  0.00  0.00    +0.000 A 
ATOM     19  C   UNL     1       6.295   6.590  16.858  0.00  0.00    +0.000 A 
ATOM     20  C   UNL     1       5.314   6.035  17.716  0.00  0.00    +0.000 A 
BRANCH  15  24
ATOM     21  C   UNL     1       0.659   2.298  18.764  0.00  0.00    +0.000 C 
ATOM     22  C   UNL     1       1.893   3.108  18.864  0.00  0.00    +0.000 A 
ATOM     23  N   UNL     1       2.613   3.436  17.745  0.00  0.00    +0.000 NA
ATOM     24  C   UNL     1       3.608   4.182  18.184  0.00  0.00    +0.000 A 
ATOM     25  O   UNL     1       3.613   4.358  19.544  0.00  0.00    +0.000 OA
ATOM     26  C   UNL     1       2.496   3.663  19.971  0.00  0.00    +0.000 A 
ATOM     27  C   UNL     1       2.159   3.663  21.404  0.00  0.00    +0.000 C 
ENDBRANCH  15  24
ENDBRANCH   1  19
TORSDOF 3
ENDMDL
