MODEL 1
REMARK VINA RESULT:      -8.7      0.000      0.000
REMARK  Name = 
REMARK  5 active torsions:
REMARK  status: ('A' for Active; 'I' for Inactive)
REMARK    1  A    between atoms: N_3  and  C_4
REMARK    2  A    between atoms: C_4  and  C_5
REMARK    3  A    between atoms: C_5  and  C_6
REMARK    4  A    between atoms: C_6  and  C_7
REMARK    5  A    between atoms: N_23  and  C_24
REMARK                            x       y       z     vdW  Elec       q    Type
REMARK                         _______ _______ _______ _____ _____    ______ ____
ROOT
ATOM      1  O   UNL     1       1.406   5.192  20.309  0.00  0.00    +0.000 OA
ATOM      2  C   UNL     1       1.907   5.937  19.471  0.00  0.00    +0.000 C 
ATOM      3  N   UNL     1       2.306   5.485  18.238  0.00  0.00    +0.000 N 
ATOM      4  N   UNL     1       2.160   7.270  19.720  0.00  0.00    +0.000 N 
ATOM      5  C   UNL     1       1.938   7.748  21.098  0.00  0.00    +0.000 C 
ATOM      6  C   UNL     1       0.602   8.506  21.225  0.00  0.00    +0.000 C 
ATOM      7  C   UNL     1       0.559   9.509  20.132  0.00  0.00    +0.000 A 
ATOM      8  C   UNL     1       1.250   9.374  18.946  0.00  0.00    +0.000 A 
ATOM      9  N   UNL     1       0.836  10.325  18.069  0.00  0.00    +0.000 NA
ATOM     10  N   UNL     1      -0.118  11.037  18.668  0.00  0.00    +0.000 NA
ATOM     11  N   UNL     1      -0.235  10.616  19.959  0.00  0.00    +0.000 N 
ATOM     12  C   UNL     1       2.252   8.306  18.660  0.00  0.00    +0.000 C 
ATOM     13  H   UNL     1       3.135   5.939  17.895  0.00  0.00    +0.000 HD
ENDROOT
BRANCH  11  14
ATOM     14  C   UNL     1      -1.036  11.310  20.893  0.00  0.00    +0.000 A 
ATOM     15  C   UNL     1      -2.073  12.134  20.439  0.00  0.00    +0.000 A 
ATOM     16  C   UNL     1      -2.872  12.816  21.360  0.00  0.00    +0.000 A 
ATOM     17  C   UNL     1      -2.616  12.706  22.728  0.00  0.00    +0.000 A 
ATOM     18  C   UNL     1      -1.564  11.915  23.180  0.00  0.00    +0.000 A 
ATOM     19  C   UNL     1      -0.776  11.214  22.266  0.00  0.00    +0.000 A 
ENDBRANCH  11  14
BRANCH   3  20
ATOM     20  C   UNL     1       2.193   4.062  17.992  0.00  0.00    +0.000 C 
BRANCH  20  21
ATOM     21  C   UNL     1       3.509   3.303  17.971  0.00  0.00    +0.000 C 
ATOM     22  C   UNL     1       3.519   1.809  18.272  0.00  0.00    +0.000 C 
ATOM     23  C   UNL     1       4.123   2.771  19.255  0.00  0.00    +0.000 C 
BRANCH  21  24
ATOM     24  C   UNL     1       4.435   3.741  16.834  0.00  0.00    +0.000 C 
BRANCH  24  25
ATOM     25  C   UNL     1       5.448   4.793  17.233  0.00  0.00    +0.000 A 
ATOM     26  C   UNL     1       6.637   4.449  17.892  0.00  0.00    +0.000 A 
ATOM     27  C   UNL     1       7.587   5.427  18.198  0.00  0.00    +0.000 A 
ATOM     28  C   UNL     1       7.352   6.749  17.843  0.00  0.00    +0.000 A 
ATOM     29  F   UNL     1       8.271   7.683  18.123  0.00  0.00    +0.000 F 
ATOM     30  C   UNL     1       6.180   7.115  17.194  0.00  0.00    +0.000 A 
ATOM     31  C   UNL     1       5.229   6.138  16.890  0.00  0.00    +0.000 A 
ENDBRANCH  24  25
ENDBRANCH  21  24
ENDBRANCH  20  21
ENDBRANCH   3  20
TORSDOF 5
ENDMDL
MODEL 2
REMARK VINA RESULT:      -8.7      0.110      1.252
REMARK  Name = 
REMARK  5 active torsions:
REMARK  status: ('A' for Active; 'I' for Inactive)
REMARK    1  A    between atoms: N_3  and  C_4
REMARK    2  A    between atoms: C_4  and  C_5
REMARK    3  A    between atoms: C_5  and  C_6
REMARK    4  A    between atoms: C_6  and  C_7
REMARK    5  A    between atoms: N_23  and  C_24
REMARK                            x       y       z     vdW  Elec       q    Type
REMARK                         _______ _______ _______ _____ _____    ______ ____
ROOT
ATOM      1  O   UNL     1       1.419   5.176  20.219  0.00  0.00    +0.000 OA
ATOM      2  C   UNL     1       1.921   5.942  19.401  0.00  0.00    +0.000 C 
ATOM      3  N   UNL     1       2.326   5.522  18.159  0.00  0.00    +0.000 N 
ATOM      4  N   UNL     1       2.167   7.270  19.684  0.00  0.00    +0.000 N 
ATOM      5  C   UNL     1       1.937   7.714  21.072  0.00  0.00    +0.000 C 
ATOM      6  C   UNL     1       0.597   8.462  21.212  0.00  0.00    +0.000 C 
ATOM      7  C   UNL     1       0.554   9.491  20.144  0.00  0.00    +0.000 A 
ATOM      8  C   UNL     1       1.251   9.389  18.958  0.00  0.00    +0.000 A 
ATOM      9  N   UNL     1       0.837  10.359  18.103  0.00  0.00    +0.000 NA
ATOM     10  N   UNL     1      -0.123  11.052  18.714  0.00  0.00    +0.000 NA
ATOM     11  N   UNL     1      -0.243  10.599  19.994  0.00  0.00    +0.000 N 
ATOM     12  C   UNL     1       2.258   8.332  18.650  0.00  0.00    +0.000 C 
ATOM     13  H   UNL     1       3.155   5.988  17.831  0.00  0.00    +0.000 HD
ENDROOT
BRANCH  11  14
ATOM     14  C   UNL     1      -1.051  11.267  20.942  0.00  0.00    +0.000 A 
ATOM     15  C   UNL     1      -0.848  11.037  22.308  0.00  0.00    +0.000 A 
ATOM     16  C   UNL     1      -1.641  11.701  23.248  0.00  0.00    +0.000 A 
ATOM     17  C   UNL     1      -2.656  12.563  22.828  0.00  0.00    +0.000 A 
ATOM     18  C   UNL     1      -2.881  12.765  21.470  0.00  0.00    +0.000 A 
ATOM     19  C   UNL     1      -2.079  12.122  20.526  0.00  0.00    +0.000 A 
ENDBRANCH  11  14
BRANCH   3  20
ATOM     20  C   UNL     1       2.220   4.105  17.879  0.00  0.00    +0.000 C 
BRANCH  20  21
ATOM     21  C   UNL     1       3.537   3.347  17.877  0.00  0.00    +0.000 C 
ATOM     22  C   UNL     1       3.550   1.865  18.231  0.00  0.00    +0.000 C 
ATOM     23  C   UNL     1       4.159   2.861  19.175  0.00  0.00    +0.000 C 
BRANCH  21  24
ATOM     24  C   UNL     1       4.456   3.744  16.720  0.00  0.00    +0.000 C 
BRANCH  24  25
ATOM     25  C   UNL     1       5.499   4.778  17.087  0.00  0.00    +0.000 A 
ATOM     26  C   UNL     1       5.312   6.138  16.796  0.00  0.00    +0.000 A 
ATOM     27  C   UNL     1       6.259   7.086  17.195  0.00  0.00    +0.000 A 
ATOM     28  C   UNL     1       7.390   6.677  17.889  0.00  0.00    +0.000 A 
ATOM     29  F   UNL     1       8.288   7.589  18.286  0.00  0.00    +0.000 F 
ATOM     30  C   UNL     1       7.599   5.337  18.186  0.00  0.00    +0.000 A 
ATOM     31  C   UNL     1       6.655   4.388  17.784  0.00  0.00    +0.000 A 
ENDBRANCH  24  25
ENDBRANCH  21  24
ENDBRANCH  20  21
ENDBRANCH   3  20
TORSDOF 5
ENDMDL
MODEL 3
REMARK VINA RESULT:      -8.5      2.003      2.932
REMARK  Name = 
REMARK  5 active torsions:
REMARK  status: ('A' for Active; 'I' for Inactive)
REMARK    1  A    between atoms: N_3  and  C_4
REMARK    2  A    between atoms: C_4  and  C_5
REMARK    3  A    between atoms: C_5  and  C_6
REMARK    4  A    between atoms: C_6  and  C_7
REMARK    5  A    between atoms: N_23  and  C_24
REMARK                            x       y       z     vdW  Elec       q    Type
REMARK                         _______ _______ _______ _____ _____    ______ ____
ROOT
ATOM      1  O   UNL     1       1.419   8.345  21.515  0.00  0.00    +0.000 OA
ATOM      2  C   UNL     1       1.492   8.485  20.298  0.00  0.00    +0.000 C 
ATOM      3  N   UNL     1       2.022   7.517  19.482  0.00  0.00    +0.000 N 
ATOM      4  N   UNL     1       1.101   9.644  19.660  0.00  0.00    +0.000 N 
ATOM      5  C   UNL     1       0.719  10.783  20.515  0.00  0.00    +0.000 C 
ATOM      6  C   UNL     1      -0.812  10.928  20.613  0.00  0.00    +0.000 C 
ATOM      7  C   UNL     1      -1.348  10.895  19.229  0.00  0.00    +0.000 A 
ATOM      8  C   UNL     1      -0.705  10.274  18.178  0.00  0.00    +0.000 A 
ATOM      9  N   UNL     1      -1.539  10.218  17.107  0.00  0.00    +0.000 NA
ATOM     10  N   UNL     1      -2.698  10.766  17.470  0.00  0.00    +0.000 NA
ATOM     11  N   UNL     1      -2.570  11.270  18.730  0.00  0.00    +0.000 N 
ATOM     12  C   UNL     1       0.670   9.700  18.239  0.00  0.00    +0.000 C 
ATOM     13  H   UNL     1       2.535   7.889  18.701  0.00  0.00    +0.000 HD
ENDROOT
BRANCH  11  14
ATOM     14  C   UNL     1      -3.577  12.074  19.310  0.00  0.00    +0.000 A 
ATOM     15  C   UNL     1      -4.887  12.003  18.820  0.00  0.00    +0.000 A 
ATOM     16  C   UNL     1      -5.886  12.792  19.396  0.00  0.00    +0.000 A 
ATOM     17  C   UNL     1      -5.575  13.674  20.432  0.00  0.00    +0.000 A 
ATOM     18  C   UNL     1      -4.267  13.771  20.897  0.00  0.00    +0.000 A 
ATOM     19  C   UNL     1      -3.267  12.971  20.340  0.00  0.00    +0.000 A 
ENDBRANCH  11  14
BRANCH   3  20
ATOM     20  C   UNL     1       2.579   6.346  20.129  0.00  0.00    +0.000 C 
BRANCH  20  21
ATOM     21  C   UNL     1       2.196   5.017  19.500  0.00  0.00    +0.000 C 
ATOM     22  C   UNL     1       1.080   4.187  20.121  0.00  0.00    +0.000 C 
ATOM     23  C   UNL     1       2.500   3.705  20.204  0.00  0.00    +0.000 C 
BRANCH  21  24
ATOM     24  C   UNL     1       2.202   5.054  17.970  0.00  0.00    +0.000 C 
BRANCH  24  25
ATOM     25  C   UNL     1       3.584   5.004  17.356  0.00  0.00    +0.000 A 
ATOM     26  C   UNL     1       4.168   3.788  16.968  0.00  0.00    +0.000 A 
ATOM     27  C   UNL     1       5.420   3.768  16.348  0.00  0.00    +0.000 A 
ATOM     28  C   UNL     1       6.089   4.961  16.111  0.00  0.00    +0.000 A 
ATOM     29  F   UNL     1       7.282   4.942  15.502  0.00  0.00    +0.000 F 
ATOM     30  C   UNL     1       5.534   6.177  16.488  0.00  0.00    +0.000 A 
ATOM     31  C   UNL     1       4.283   6.199  17.111  0.00  0.00    +0.000 A 
ENDBRANCH  24  25
ENDBRANCH  21  24
ENDBRANCH  20  21
ENDBRANCH   3  20
TORSDOF 5
ENDMDL
MODEL 4
REMARK VINA RESULT:      -8.4      1.983      3.110
REMARK  Name = 
REMARK  5 active torsions:
REMARK  status: ('A' for Active; 'I' for Inactive)
REMARK    1  A    between atoms: N_3  and  C_4
REMARK    2  A    between atoms: C_4  and  C_5
REMARK    3  A    between atoms: C_5  and  C_6
REMARK    4  A    between atoms: C_6  and  C_7
REMARK    5  A    between atoms: N_23  and  C_24
REMARK                            x       y       z     vdW  Elec       q    Type
REMARK                         _______ _______ _______ _____ _____    ______ ____
ROOT
ATOM      1  O   UNL     1       1.381   8.447  21.618  0.00  0.00    +0.000 OA
ATOM      2  C   UNL     1       1.433   8.547  20.395  0.00  0.00    +0.000 C 
ATOM      3  N   UNL     1       1.920   7.542  19.599  0.00  0.00    +0.000 N 
ATOM      4  N   UNL     1       1.059   9.697  19.730  0.00  0.00    +0.000 N 
ATOM      5  C   UNL     1       0.723  10.871  20.557  0.00  0.00    +0.000 C 
ATOM      6  C   UNL     1      -0.802  11.059  20.681  0.00  0.00    +0.000 C 
ATOM      7  C   UNL     1      -1.366  10.998  19.310  0.00  0.00    +0.000 A 
ATOM      8  C   UNL     1      -0.762  10.329  18.266  0.00  0.00    +0.000 A 
ATOM      9  N   UNL     1      -1.619  10.263  17.214  0.00  0.00    +0.000 NA
ATOM     10  N   UNL     1      -2.756  10.851  17.583  0.00  0.00    +0.000 NA
ATOM     11  N   UNL     1      -2.589  11.390  18.824  0.00  0.00    +0.000 N 
ATOM     12  C   UNL     1       0.599   9.722  18.317  0.00  0.00    +0.000 C 
ATOM     13  H   UNL     1       2.426   7.877  18.796  0.00  0.00    +0.000 HD
ENDROOT
BRANCH  11  14
ATOM     14  C   UNL     1      -3.562  12.237  19.399  0.00  0.00    +0.000 A 
ATOM     15  C   UNL     1      -3.187  13.144  20.398  0.00  0.00    +0.000 A 
ATOM     16  C   UNL     1      -4.146  13.988  20.965  0.00  0.00    +0.000 A 
ATOM     17  C   UNL     1      -5.480  13.904  20.562  0.00  0.00    +0.000 A 
ATOM     18  C   UNL     1      -5.861  12.980  19.594  0.00  0.00    +0.000 A 
ATOM     19  C   UNL     1      -4.905  12.148  19.009  0.00  0.00    +0.000 A 
ENDBRANCH  11  14
BRANCH   3  20
ATOM     20  C   UNL     1       2.461   6.377  20.270  0.00  0.00    +0.000 C 
BRANCH  20  21
ATOM     21  C   UNL     1       2.129   5.045  19.619  0.00  0.00    +0.000 C 
ATOM     22  C   UNL     1       1.069   4.147  20.245  0.00  0.00    +0.000 C 
ATOM     23  C   UNL     1       2.513   3.734  20.286  0.00  0.00    +0.000 C 
BRANCH  21  24
ATOM     24  C   UNL     1       2.097   5.115  18.091  0.00  0.00    +0.000 C 
BRANCH  24  25
ATOM     25  C   UNL     1       3.465   5.093  17.443  0.00  0.00    +0.000 A 
ATOM     26  C   UNL     1       4.242   6.256  17.337  0.00  0.00    +0.000 A 
ATOM     27  C   UNL     1       5.527   6.204  16.789  0.00  0.00    +0.000 A 
ATOM     28  C   UNL     1       6.039   4.990  16.351  0.00  0.00    +0.000 A 
ATOM     29  F   UNL     1       7.277   4.938  15.841  0.00  0.00    +0.000 F 
ATOM     30  C   UNL     1       5.288   3.825  16.441  0.00  0.00    +0.000 A 
ATOM     31  C   UNL     1       4.002   3.876  16.986  0.00  0.00    +0.000 A 
ENDBRANCH  24  25
ENDBRANCH  21  24
ENDBRANCH  20  21
ENDBRANCH   3  20
TORSDOF 5
ENDMDL
MODEL 5
REMARK VINA RESULT:      -8.3      2.742      3.520
REMARK  Name = 
REMARK  5 active torsions:
REMARK  status: ('A' for Active; 'I' for Inactive)
REMARK    1  A    between atoms: N_3  and  C_4
REMARK    2  A    between atoms: C_4  and  C_5
REMARK    3  A    between atoms: C_5  and  C_6
REMARK    4  A    between atoms: C_6  and  C_7
REMARK    5  A    between atoms: N_23  and  C_24
REMARK                            x       y       z     vdW  Elec       q    Type
REMARK                         _______ _______ _______ _____ _____    ______ ____
ROOT
ATOM      1  O   UNL     1       3.054   7.953  17.867  0.00  0.00    +0.000 OA
ATOM      2  C   UNL     1       2.363   7.891  18.881  0.00  0.00    +0.000 C 
ATOM      3  N   UNL     1       2.563   6.934  19.844  0.00  0.00    +0.000 N 
ATOM      4  N   UNL     1       1.298   8.739  19.104  0.00  0.00    +0.000 N 
ATOM      5  C   UNL     1       0.921   9.646  18.004  0.00  0.00    +0.000 C 
ATOM      6  C   UNL     1       1.449  11.075  18.242  0.00  0.00    +0.000 C 
ATOM      7  C   UNL     1       1.059  11.464  19.620  0.00  0.00    +0.000 A 
ATOM      8  C   UNL     1       0.830  10.556  20.633  0.00  0.00    +0.000 A 
ATOM      9  N   UNL     1       0.717  11.215  21.815  0.00  0.00    +0.000 NA
ATOM     10  N   UNL     1       0.896  12.512  21.572  0.00  0.00    +0.000 NA
ATOM     11  N   UNL     1       1.010  12.695  20.226  0.00  0.00    +0.000 N 
ATOM     12  C   UNL     1       0.779   9.076  20.455  0.00  0.00    +0.000 C 
ATOM     13  H   UNL     1       1.711   6.612  20.270  0.00  0.00    +0.000 HD
ENDROOT
BRANCH  11  14
ATOM     14  C   UNL     1       1.022  13.987  19.654  0.00  0.00    +0.000 A 
ATOM     15  C   UNL     1       2.245  14.612  19.381  0.00  0.00    +0.000 A 
ATOM     16  C   UNL     1       2.261  15.887  18.809  0.00  0.00    +0.000 A 
ATOM     17  C   UNL     1       1.063  16.550  18.542  0.00  0.00    +0.000 A 
ATOM     18  C   UNL     1      -0.154  15.945  18.843  0.00  0.00    +0.000 A 
ATOM     19  C   UNL     1      -0.177  14.663  19.396  0.00  0.00    +0.000 A 
ENDBRANCH  11  14
BRANCH   3  20
ATOM     20  C   UNL     1       3.576   5.934  19.575  0.00  0.00    +0.000 C 
BRANCH  20  21
ATOM     21  C   UNL     1       3.054   4.518  19.397  0.00  0.00    +0.000 C 
ATOM     22  C   UNL     1       1.702   4.295  18.730  0.00  0.00    +0.000 C 
ATOM     23  C   UNL     1       1.862   4.020  20.198  0.00  0.00    +0.000 C 
BRANCH  21  24
ATOM     24  C   UNL     1       4.144   3.522  18.998  0.00  0.00    +0.000 C 
BRANCH  24  25
ATOM     25  C   UNL     1       5.035   4.001  17.872  0.00  0.00    +0.000 A 
ATOM     26  C   UNL     1       6.341   4.454  18.115  0.00  0.00    +0.000 A 
ATOM     27  C   UNL     1       7.169   4.836  17.056  0.00  0.00    +0.000 A 
ATOM     28  C   UNL     1       6.696   4.763  15.753  0.00  0.00    +0.000 A 
ATOM     29  F   UNL     1       7.496   5.114  14.737  0.00  0.00    +0.000 F 
ATOM     30  C   UNL     1       5.406   4.321  15.486  0.00  0.00    +0.000 A 
ATOM     31  C   UNL     1       4.577   3.942  16.544  0.00  0.00    +0.000 A 
ENDBRANCH  24  25
ENDBRANCH  21  24
ENDBRANCH  20  21
ENDBRANCH   3  20
TORSDOF 5
ENDMDL
MODEL 6
REMARK VINA RESULT:      -8.3      2.663      4.298
REMARK  Name = 
REMARK  5 active torsions:
REMARK  status: ('A' for Active; 'I' for Inactive)
REMARK    1  A    between atoms: N_3  and  C_4
REMARK    2  A    between atoms: C_4  and  C_5
REMARK    3  A    between atoms: C_5  and  C_6
REMARK    4  A    between atoms: C_6  and  C_7
REMARK    5  A    between atoms: N_23  and  C_24
REMARK                            x       y       z     vdW  Elec       q    Type
REMARK                         _______ _______ _______ _____ _____    ______ ____
ROOT
ATOM      1  O   UNL     1       1.759   9.907  17.519  0.00  0.00    +0.000 OA
ATOM      2  C   UNL     1       1.616   9.035  18.372  0.00  0.00    +0.000 C 
ATOM      3  N   UNL     1       2.508   8.003  18.519  0.00  0.00    +0.000 N 
ATOM      4  N   UNL     1       0.521   8.992  19.211  0.00  0.00    +0.000 N 
ATOM      5  C   UNL     1      -0.561   9.960  18.952  0.00  0.00    +0.000 C 
ATOM      6  C   UNL     1      -0.501  11.150  19.930  0.00  0.00    +0.000 C 
ATOM      7  C   UNL     1      -0.392  10.589  21.300  0.00  0.00    +0.000 A 
ATOM      8  C   UNL     1       0.142   9.348  21.575  0.00  0.00    +0.000 A 
ATOM      9  N   UNL     1       0.313   9.214  22.916  0.00  0.00    +0.000 NA
ATOM     10  N   UNL     1      -0.077  10.353  23.486  0.00  0.00    +0.000 NA
ATOM     11  N   UNL     1      -0.600  11.169  22.527  0.00  0.00    +0.000 N 
ATOM     12  C   UNL     1       0.528   8.339  20.546  0.00  0.00    +0.000 C 
ATOM     13  H   UNL     1       2.074   7.133  18.777  0.00  0.00    +0.000 HD
ENDROOT
BRANCH  11  14
ATOM     14  C   UNL     1      -1.265  12.370  22.860  0.00  0.00    +0.000 A 
ATOM     15  C   UNL     1      -0.577  13.587  22.782  0.00  0.00    +0.000 A 
ATOM     16  C   UNL     1      -1.234  14.777  23.104  0.00  0.00    +0.000 A 
ATOM     17  C   UNL     1      -2.560  14.752  23.535  0.00  0.00    +0.000 A 
ATOM     18  C   UNL     1      -3.236  13.540  23.646  0.00  0.00    +0.000 A 
ATOM     19  C   UNL     1      -2.592  12.349  23.306  0.00  0.00    +0.000 A 
ENDBRANCH  11  14
BRANCH   3  20
ATOM     20  C   UNL     1       3.592   7.931  17.560  0.00  0.00    +0.000 C 
BRANCH  20  21
ATOM     21  C   UNL     1       4.463   6.691  17.661  0.00  0.00    +0.000 C 
ATOM     22  C   UNL     1       5.918   6.757  17.215  0.00  0.00    +0.000 C 
ATOM     23  C   UNL     1       4.929   5.961  16.413  0.00  0.00    +0.000 C 
BRANCH  21  24
ATOM     24  C   UNL     1       4.214   5.886  18.939  0.00  0.00    +0.000 C 
BRANCH  24  25
ATOM     25  C   UNL     1       3.123   4.844  18.810  0.00  0.00    +0.000 A 
ATOM     26  C   UNL     1       3.162   3.867  17.804  0.00  0.00    +0.000 A 
ATOM     27  C   UNL     1       2.177   2.877  17.738  0.00  0.00    +0.000 A 
ATOM     28  C   UNL     1       1.155   2.861  18.677  0.00  0.00    +0.000 A 
ATOM     29  F   UNL     1       0.220   1.902  18.622  0.00  0.00    +0.000 F 
ATOM     30  C   UNL     1       1.092   3.820  19.680  0.00  0.00    +0.000 A 
ATOM     31  C   UNL     1       2.075   4.811  19.746  0.00  0.00    +0.000 A 
ENDBRANCH  24  25
ENDBRANCH  21  24
ENDBRANCH  20  21
ENDBRANCH   3  20
TORSDOF 5
ENDMDL
MODEL 7
REMARK VINA RESULT:      -8.2      1.900      3.011
REMARK  Name = 
REMARK  5 active torsions:
REMARK  status: ('A' for Active; 'I' for Inactive)
REMARK    1  A    between atoms: N_3  and  C_4
REMARK    2  A    between atoms: C_4  and  C_5
REMARK    3  A    between atoms: C_5  and  C_6
REMARK    4  A    between atoms: C_6  and  C_7
REMARK    5  A    between atoms: N_23  and  C_24
REMARK                            x       y       z     vdW  Elec       q    Type
REMARK                         _______ _______ _______ _____ _____    ______ ____
ROOT
ATOM      1  O   UNL     1       1.366   8.552  22.036  0.00  0.00    +0.000 OA
ATOM      2  C   UNL     1       1.315   8.651  20.813  0.00  0.00    +0.000 C 
ATOM      3  N   UNL     1       1.606   7.599  19.982  0.00  0.00    +0.000 N 
ATOM      4  N   UNL     1       1.015   9.839  20.178  0.00  0.00    +0.000 N 
ATOM      5  C   UNL     1       0.897  11.041  21.025  0.00  0.00    +0.000 C 
ATOM      6  C   UNL     1      -0.577  11.404  21.291  0.00  0.00    +0.000 C 
ATOM      7  C   UNL     1      -1.271  11.414  19.979  0.00  0.00    +0.000 A 
ATOM      8  C   UNL     1      -0.849  10.685  18.887  0.00  0.00    +0.000 A 
ATOM      9  N   UNL     1      -1.802  10.723  17.921  0.00  0.00    +0.000 NA
ATOM     10  N   UNL     1      -2.824  11.437  18.391  0.00  0.00    +0.000 NA
ATOM     11  N   UNL     1      -2.480  11.948  19.607  0.00  0.00    +0.000 N 
ATOM     12  C   UNL     1       0.432   9.923  18.815  0.00  0.00    +0.000 C 
ATOM     13  H   UNL     1       2.069   7.877  19.133  0.00  0.00    +0.000 HD
ENDROOT
BRANCH  11  14
ATOM     14  C   UNL     1      -3.291  12.900  20.265  0.00  0.00    +0.000 A 
ATOM     15  C   UNL     1      -2.728  14.107  20.697  0.00  0.00    +0.000 A 
ATOM     16  C   UNL     1      -3.528  15.054  21.342  0.00  0.00    +0.000 A 
ATOM     17  C   UNL     1      -4.875  14.784  21.588  0.00  0.00    +0.000 A 
ATOM     18  C   UNL     1      -5.428  13.570  21.190  0.00  0.00    +0.000 A 
ATOM     19  C   UNL     1      -4.639  12.628  20.526  0.00  0.00    +0.000 A 
ENDBRANCH  11  14
BRANCH   3  20
ATOM     20  C   UNL     1       2.068   6.377  20.607  0.00  0.00    +0.000 C 
BRANCH  20  21
ATOM     21  C   UNL     1       1.986   5.134  19.736  0.00  0.00    +0.000 C 
ATOM     22  C   UNL     1       0.995   4.033  20.093  0.00  0.00    +0.000 C 
ATOM     23  C   UNL     1       2.469   3.789  20.250  0.00  0.00    +0.000 C 
BRANCH  21  24
ATOM     24  C   UNL     1       2.102   5.441  18.242  0.00  0.00    +0.000 C 
BRANCH  24  25
ATOM     25  C   UNL     1       3.487   5.218  17.672  0.00  0.00    +0.000 A 
ATOM     26  C   UNL     1       3.832   4.012  17.042  0.00  0.00    +0.000 A 
ATOM     27  C   UNL     1       5.096   3.847  16.470  0.00  0.00    +0.000 A 
ATOM     28  C   UNL     1       6.015   4.886  16.521  0.00  0.00    +0.000 A 
ATOM     29  F   UNL     1       7.221   4.732  15.957  0.00  0.00    +0.000 F 
ATOM     30  C   UNL     1       5.699   6.088  17.142  0.00  0.00    +0.000 A 
ATOM     31  C   UNL     1       4.436   6.253  17.717  0.00  0.00    +0.000 A 
ENDBRANCH  24  25
ENDBRANCH  21  24
ENDBRANCH  20  21
ENDBRANCH   3  20
TORSDOF 5
ENDMDL
MODEL 8
REMARK VINA RESULT:      -8.2      2.691      4.318
REMARK  Name = 
REMARK  5 active torsions:
REMARK  status: ('A' for Active; 'I' for Inactive)
REMARK    1  A    between atoms: N_3  and  C_4
REMARK    2  A    between atoms: C_4  and  C_5
REMARK    3  A    between atoms: C_5  and  C_6
REMARK    4  A    between atoms: C_6  and  C_7
REMARK    5  A    between atoms: N_23  and  C_24
REMARK                            x       y       z     vdW  Elec       q    Type
REMARK                         _______ _______ _______ _____ _____    ______ ____
ROOT
ATOM      1  O   UNL     1       1.818   9.886  17.506  0.00  0.00    +0.000 OA
ATOM      2  C   UNL     1       1.613   9.026  18.358  0.00  0.00    +0.000 C 
ATOM      3  N   UNL     1       2.448   7.950  18.525  0.00  0.00    +0.000 N 
ATOM      4  N   UNL     1       0.502   9.042  19.176  0.00  0.00    +0.000 N 
ATOM      5  C   UNL     1      -0.524  10.065  18.893  0.00  0.00    +0.000 C 
ATOM      6  C   UNL     1      -0.421  11.253  19.868  0.00  0.00    +0.000 C 
ATOM      7  C   UNL     1      -0.368  10.693  21.241  0.00  0.00    +0.000 A 
ATOM      8  C   UNL     1       0.096   9.426  21.530  0.00  0.00    +0.000 A 
ATOM      9  N   UNL     1       0.233   9.290  22.875  0.00  0.00    +0.000 NA
ATOM     10  N   UNL     1      -0.108  10.449  23.434  0.00  0.00    +0.000 NA
ATOM     11  N   UNL     1      -0.569  11.287  22.463  0.00  0.00    +0.000 N 
ATOM     12  C   UNL     1       0.449   8.395  20.512  0.00  0.00    +0.000 C 
ATOM     13  H   UNL     1       1.965   7.104  18.778  0.00  0.00    +0.000 HD
ENDROOT
BRANCH  11  14
ATOM     14  C   UNL     1      -1.178  12.522  22.779  0.00  0.00    +0.000 A 
ATOM     15  C   UNL     1      -2.511  12.547  23.205  0.00  0.00    +0.000 A 
ATOM     16  C   UNL     1      -3.115  13.767  23.525  0.00  0.00    +0.000 A 
ATOM     17  C   UNL     1      -2.403  14.959  23.388  0.00  0.00    +0.000 A 
ATOM     18  C   UNL     1      -1.088  14.939  22.931  0.00  0.00    +0.000 A 
ATOM     19  C   UNL     1      -0.473  13.723  22.630  0.00  0.00    +0.000 A 
ENDBRANCH  11  14
BRANCH   3  20
ATOM     20  C   UNL     1       3.545   7.818  17.588  0.00  0.00    +0.000 C 
BRANCH  20  21
ATOM     21  C   UNL     1       4.385   6.563  17.749  0.00  0.00    +0.000 C 
ATOM     22  C   UNL     1       5.836   6.566  17.283  0.00  0.00    +0.000 C 
ATOM     23  C   UNL     1       4.816   5.752  16.539  0.00  0.00    +0.000 C 
BRANCH  21  24
ATOM     24  C   UNL     1       4.133   5.838  19.073  0.00  0.00    +0.000 C 
BRANCH  24  25
ATOM     25  C   UNL     1       3.094   4.740  18.987  0.00  0.00    +0.000 A 
ATOM     26  C   UNL     1       1.994   4.707  19.856  0.00  0.00    +0.000 A 
ATOM     27  C   UNL     1       1.014   3.719  19.723  0.00  0.00    +0.000 A 
ATOM     28  C   UNL     1       1.130   2.766  18.720  0.00  0.00    +0.000 A 
ATOM     29  F   UNL     1       0.181   1.830  18.583  0.00  0.00    +0.000 F 
ATOM     30  C   UNL     1       2.212   2.776  17.849  0.00  0.00    +0.000 A 
ATOM     31  C   UNL     1       3.194   3.761  17.983  0.00  0.00    +0.000 A 
ENDBRANCH  24  25
ENDBRANCH  21  24
ENDBRANCH  20  21
ENDBRANCH   3  20
TORSDOF 5
ENDMDL
MODEL 9
REMARK VINA RESULT:      -8.2      2.746      3.568
REMARK  Name = 
REMARK  5 active torsions:
REMARK  status: ('A' for Active; 'I' for Inactive)
REMARK    1  A    between atoms: N_3  and  C_4
REMARK    2  A    between atoms: C_4  and  C_5
REMARK    3  A    between atoms: C_5  and  C_6
REMARK    4  A    between atoms: C_6  and  C_7
REMARK    5  A    between atoms: N_23  and  C_24
REMARK                            x       y       z     vdW  Elec       q    Type
REMARK                         _______ _______ _______ _____ _____    ______ ____
ROOT
ATOM      1  O   UNL     1       2.890   8.063  17.852  0.00  0.00    +0.000 OA
ATOM      2  C   UNL     1       2.226   8.006  18.883  0.00  0.00    +0.000 C 
ATOM      3  N   UNL     1       2.450   7.053  19.844  0.00  0.00    +0.000 N 
ATOM      4  N   UNL     1       1.169   8.858  19.132  0.00  0.00    +0.000 N 
ATOM      5  C   UNL     1       0.765   9.762  18.039  0.00  0.00    +0.000 C 
ATOM      6  C   UNL     1       1.302  11.190  18.257  0.00  0.00    +0.000 C 
ATOM      7  C   UNL     1       0.950  11.585  19.643  0.00  0.00    +0.000 A 
ATOM      8  C   UNL     1       0.746  10.682  20.666  0.00  0.00    +0.000 A 
ATOM      9  N   UNL     1       0.666  11.345  21.848  0.00  0.00    +0.000 NA
ATOM     10  N   UNL     1       0.842  12.642  21.595  0.00  0.00    +0.000 NA
ATOM     11  N   UNL     1       0.921  12.819  20.246  0.00  0.00    +0.000 N 
ATOM     12  C   UNL     1       0.688   9.201  20.495  0.00  0.00    +0.000 C 
ATOM     13  H   UNL     1       1.608   6.735  20.295  0.00  0.00    +0.000 HD
ENDROOT
BRANCH  11  14
ATOM     14  C   UNL     1       0.920  14.108  19.668  0.00  0.00    +0.000 A 
ATOM     15  C   UNL     1      -0.297  14.752  19.414  0.00  0.00    +0.000 A 
ATOM     16  C   UNL     1      -0.302  16.030  18.849  0.00  0.00    +0.000 A 
ATOM     17  C   UNL     1       0.901  16.650  18.506  0.00  0.00    +0.000 A 
ATOM     18  C   UNL     1       2.111  15.998  18.726  0.00  0.00    +0.000 A 
ATOM     19  C   UNL     1       2.123  14.729  19.309  0.00  0.00    +0.000 A 
ENDBRANCH  11  14
BRANCH   3  20
ATOM     20  C   UNL     1       3.452   6.049  19.553  0.00  0.00    +0.000 C 
BRANCH  20  21
ATOM     21  C   UNL     1       3.012   4.612  19.777  0.00  0.00    +0.000 C 
ATOM     22  C   UNL     1       1.617   4.179  19.344  0.00  0.00    +0.000 C 
ATOM     23  C   UNL     1       1.947   4.275  20.807  0.00  0.00    +0.000 C 
BRANCH  21  24
ATOM     24  C   UNL     1       4.121   3.595  19.499  0.00  0.00    +0.000 C 
BRANCH  24  25
ATOM     25  C   UNL     1       4.980   3.930  18.298  0.00  0.00    +0.000 A 
ATOM     26  C   UNL     1       4.507   3.749  16.990  0.00  0.00    +0.000 A 
ATOM     27  C   UNL     1       5.292   4.120  15.894  0.00  0.00    +0.000 A 
ATOM     28  C   UNL     1       6.547   4.676  16.104  0.00  0.00    +0.000 A 
ATOM     29  F   UNL     1       7.292   5.046  15.054  0.00  0.00    +0.000 F 
ATOM     30  C   UNL     1       7.039   4.862  17.390  0.00  0.00    +0.000 A 
ATOM     31  C   UNL     1       6.256   4.488  18.486  0.00  0.00    +0.000 A 
ENDBRANCH  24  25
ENDBRANCH  21  24
ENDBRANCH  20  21
ENDBRANCH   3  20
TORSDOF 5
ENDMDL
