MODEL 1
REMARK VINA RESULT:      -9.4      0.000      0.000
REMARK  Name = 
REMARK  3 active torsions:
REMARK  status: ('A' for Active; 'I' for Inactive)
REMARK    1  A    between atoms: S_2  and  C_4
REMARK    2  A    between atoms: S_2  and  N_16
REMARK    3  A    between atoms: C_8  and  C_9
REMARK                            x       y       z     vdW  Elec       q    Type
REMARK                         _______ _______ _______ _____ _____    ______ ____
ROOT
ATOM      1  O   UNL     1       2.135   5.309  21.202  0.00  0.00    +0.000 OA
ATOM      2  S   UNL     1       2.198   5.428  19.761  0.00  0.00    +0.000 S 
ATOM      3  O   UNL     1       1.308   4.699  18.895  0.00  0.00    +0.000 OA
ENDROOT
BRANCH   2   4
ATOM      4  N   UNL     1       3.805   5.030  19.299  0.00  0.00    +0.000 NA
ATOM      5  C   UNL     1       4.307   5.375  17.916  0.00  0.00    +0.000 C 
ATOM      6  C   UNL     1       5.416   4.334  17.547  0.00  0.00    +0.000 C 
ATOM      7  C   UNL     1       6.811   5.006  17.776  0.00  0.00    +0.000 C 
ATOM      8  C   UNL     1       7.283   5.802  16.507  0.00  0.00    +0.000 C 
ATOM      9  N   UNL     1       6.221   6.145  15.554  0.00  0.00    +0.000 NA
ATOM     10  C   UNL     1       5.506   4.969  15.076  0.00  0.00    +0.000 C 
ATOM     11  C   UNL     1       5.543   3.837  16.079  0.00  0.00    +0.000 C 
ATOM     12  C   UNL     1       4.961   3.141  18.407  0.00  0.00    +0.000 C 
ATOM     13  C   UNL     1       3.772   2.396  17.767  0.00  0.00    +0.000 C 
ATOM     14  O   UNL     1       3.028   1.796  18.809  0.00  0.00    +0.000 OA
ATOM     15  C   UNL     1       3.264   2.564  19.992  0.00  0.00    +0.000 C 
ATOM     16  C   UNL     1       4.301   3.661  19.673  0.00  0.00    +0.000 C 
ATOM     17  H   UNL     1       5.569   6.811  15.966  0.00  0.00    +0.000 HD
ENDBRANCH   2   4
BRANCH   2  18
ATOM     18  C   UNL     1       2.003   7.149  19.383  0.00  0.00    +0.000 A 
ATOM     19  C   UNL     1       2.285   7.657  18.114  0.00  0.00    +0.000 A 
ATOM     20  C   UNL     1       2.015   8.998  17.846  0.00  0.00    +0.000 A 
ATOM     21  C   UNL     1       1.392   9.790  18.817  0.00  0.00    +0.000 A 
ATOM     22  C   UNL     1       1.093   9.269  20.087  0.00  0.00    +0.000 A 
ATOM     23  C   UNL     1       1.537   7.980  20.393  0.00  0.00    +0.000 A 
BRANCH  22  24
ATOM     24  C   UNL     1       0.098   9.882  20.984  0.00  0.00    +0.000 A 
ATOM     25  C   UNL     1      -0.095   9.324  22.261  0.00  0.00    +0.000 A 
ATOM     26  C   UNL     1      -0.769  10.022  23.261  0.00  0.00    +0.000 A 
ATOM     27  C   UNL     1      -1.271  11.291  22.998  0.00  0.00    +0.000 A 
ATOM     28  C   UNL     1      -1.143  11.841  21.725  0.00  0.00    +0.000 A 
ATOM     29  C   UNL     1      -0.471  11.137  20.721  0.00  0.00    +0.000 A 
ENDBRANCH  22  24
ENDBRANCH   2  18
TORSDOF 3
ENDMDL
MODEL 2
REMARK VINA RESULT:      -9.2      0.857      1.328
REMARK  Name = 
REMARK  3 active torsions:
REMARK  status: ('A' for Active; 'I' for Inactive)
REMARK    1  A    between atoms: S_2  and  C_4
REMARK    2  A    between atoms: S_2  and  N_16
REMARK    3  A    between atoms: C_8  and  C_9
REMARK                            x       y       z     vdW  Elec       q    Type
REMARK                         _______ _______ _______ _____ _____    ______ ____
ROOT
ATOM      1  O   UNL     1       1.504   5.429  20.725  0.00  0.00    +0.000 OA
ATOM      2  S   UNL     1       2.059   5.709  19.418  0.00  0.00    +0.000 S 
ATOM      3  O   UNL     1       1.566   5.070  18.226  0.00  0.00    +0.000 OA
ENDROOT
BRANCH   2   4
ATOM      4  N   UNL     1       3.744   5.389  19.514  0.00  0.00    +0.000 NA
ATOM      5  C   UNL     1       4.687   5.948  18.473  0.00  0.00    +0.000 C 
ATOM      6  C   UNL     1       5.911   4.977  18.380  0.00  0.00    +0.000 C 
ATOM      7  C   UNL     1       7.092   5.604  19.194  0.00  0.00    +0.000 C 
ATOM      8  C   UNL     1       7.940   6.590  18.314  0.00  0.00    +0.000 C 
ATOM      9  N   UNL     1       7.270   7.080  17.103  0.00  0.00    +0.000 NA
ATOM     10  C   UNL     1       6.841   5.995  16.231  0.00  0.00    +0.000 C 
ATOM     11  C   UNL     1       6.581   4.719  17.001  0.00  0.00    +0.000 C 
ATOM     12  C   UNL     1       5.247   3.664  18.831  0.00  0.00    +0.000 C 
ATOM     13  C   UNL     1       4.409   3.030  17.702  0.00  0.00    +0.000 C 
ATOM     14  O   UNL     1       3.377   2.274  18.305  0.00  0.00    +0.000 OA
ATOM     15  C   UNL     1       3.132   2.845  19.593  0.00  0.00    +0.000 C 
ATOM     16  C   UNL     1       4.151   3.978  19.836  0.00  0.00    +0.000 C 
ATOM     17  H   UNL     1       6.478   7.673  17.346  0.00  0.00    +0.000 HD
ENDBRANCH   2   4
BRANCH   2  18
ATOM     18  C   UNL     1       1.917   7.460  19.170  0.00  0.00    +0.000 A 
ATOM     19  C   UNL     1       1.979   8.026  17.896  0.00  0.00    +0.000 A 
ATOM     20  C   UNL     1       1.759   9.395  17.752  0.00  0.00    +0.000 A 
ATOM     21  C   UNL     1       1.399  10.163  18.865  0.00  0.00    +0.000 A 
ATOM     22  C   UNL     1       1.320   9.584  20.143  0.00  0.00    +0.000 A 
ATOM     23  C   UNL     1       1.721   8.254  20.291  0.00  0.00    +0.000 A 
BRANCH  22  24
ATOM     24  C   UNL     1       0.569  10.201  21.250  0.00  0.00    +0.000 A 
ATOM     25  C   UNL     1      -0.043  11.450  21.038  0.00  0.00    +0.000 A 
ATOM     26  C   UNL     1      -1.016  11.936  21.910  0.00  0.00    +0.000 A 
ATOM     27  C   UNL     1      -1.388  11.183  23.017  0.00  0.00    +0.000 A 
ATOM     28  C   UNL     1      -0.757   9.970  23.279  0.00  0.00    +0.000 A 
ATOM     29  C   UNL     1       0.222   9.486  22.407  0.00  0.00    +0.000 A 
ENDBRANCH  22  24
ENDBRANCH   2  18
TORSDOF 3
ENDMDL
MODEL 3
REMARK VINA RESULT:      -7.9      7.902     11.551
REMARK  Name = 
REMARK  3 active torsions:
REMARK  status: ('A' for Active; 'I' for Inactive)
REMARK    1  A    between atoms: S_2  and  C_4
REMARK    2  A    between atoms: S_2  and  N_16
REMARK    3  A    between atoms: C_8  and  C_9
REMARK                            x       y       z     vdW  Elec       q    Type
REMARK                         _______ _______ _______ _____ _____    ______ ____
ROOT
ATOM      1  O   UNL     1      -3.478  13.398  24.445  0.00  0.00    +0.000 OA
ATOM      2  S   UNL     1      -3.624  13.485  23.008  0.00  0.00    +0.000 S 
ATOM      3  O   UNL     1      -3.595  14.745  22.313  0.00  0.00    +0.000 OA
ENDROOT
BRANCH   2   4
ATOM      4  N   UNL     1      -5.107  12.712  22.611  0.00  0.00    +0.000 NA
ATOM      5  C   UNL     1      -5.398  12.308  21.184  0.00  0.00    +0.000 C 
ATOM      6  C   UNL     1      -6.952  12.323  21.001  0.00  0.00    +0.000 C 
ATOM      7  C   UNL     1      -7.468  10.849  21.092  0.00  0.00    +0.000 C 
ATOM      8  C   UNL     1      -7.415  10.132  19.695  0.00  0.00    +0.000 C 
ATOM      9  N   UNL     1      -6.530  10.757  18.705  0.00  0.00    +0.000 NA
ATOM     10  C   UNL     1      -6.878  12.149  18.454  0.00  0.00    +0.000 C 
ATOM     11  C   UNL     1      -7.559  12.786  19.645  0.00  0.00    +0.000 C 
ATOM     12  C   UNL     1      -7.339  13.365  22.066  0.00  0.00    +0.000 C 
ATOM     13  C   UNL     1      -7.069  14.805  21.582  0.00  0.00    +0.000 C 
ATOM     14  O   UNL     1      -6.820  15.603  22.722  0.00  0.00    +0.000 OA
ATOM     15  C   UNL     1      -6.323  14.735  23.745  0.00  0.00    +0.000 C 
ATOM     16  C   UNL     1      -6.356  13.284  23.223  0.00  0.00    +0.000 C 
ATOM     17  H   UNL     1      -5.556  10.683  18.996  0.00  0.00    +0.000 HD
ENDBRANCH   2   4
BRANCH   2  18
ATOM     18  C   UNL     1      -2.352  12.470  22.304  0.00  0.00    +0.000 A 
ATOM     19  C   UNL     1      -1.551  11.645  23.094  0.00  0.00    +0.000 A 
ATOM     20  C   UNL     1      -0.638  10.793  22.475  0.00  0.00    +0.000 A 
ATOM     21  C   UNL     1      -0.595  10.715  21.079  0.00  0.00    +0.000 A 
ATOM     22  C   UNL     1      -1.416  11.535  20.287  0.00  0.00    +0.000 A 
ATOM     23  C   UNL     1      -2.190  12.507  20.925  0.00  0.00    +0.000 A 
BRANCH  22  24
ATOM     24  C   UNL     1      -1.725  11.228  18.880  0.00  0.00    +0.000 A 
ATOM     25  C   UNL     1      -0.942  10.270  18.209  0.00  0.00    +0.000 A 
ATOM     26  C   UNL     1      -1.363   9.706  17.006  0.00  0.00    +0.000 A 
ATOM     27  C   UNL     1      -2.573  10.096  16.447  0.00  0.00    +0.000 A 
ATOM     28  C   UNL     1      -3.339  11.084  17.063  0.00  0.00    +0.000 A 
ATOM     29  C   UNL     1      -2.913  11.653  18.266  0.00  0.00    +0.000 A 
ENDBRANCH  22  24
ENDBRANCH   2  18
TORSDOF 3
ENDMDL
MODEL 4
REMARK VINA RESULT:      -7.7      7.971     11.755
REMARK  Name = 
REMARK  3 active torsions:
REMARK  status: ('A' for Active; 'I' for Inactive)
REMARK    1  A    between atoms: S_2  and  C_4
REMARK    2  A    between atoms: S_2  and  N_16
REMARK    3  A    between atoms: C_8  and  C_9
REMARK                            x       y       z     vdW  Elec       q    Type
REMARK                         _______ _______ _______ _____ _____    ______ ____
ROOT
ATOM      1  O   UNL     1      -3.586  11.888  23.732  0.00  0.00    +0.000 OA
ATOM      2  S   UNL     1      -3.605  12.833  22.636  0.00  0.00    +0.000 S 
ATOM      3  O   UNL     1      -3.432  14.247  22.844  0.00  0.00    +0.000 OA
ENDROOT
BRANCH   2   4
ATOM      4  N   UNL     1      -5.099  12.613  21.815  0.00  0.00    +0.000 NA
ATOM      5  C   UNL     1      -5.362  13.322  20.507  0.00  0.00    +0.000 C 
ATOM      6  C   UNL     1      -6.909  13.525  20.386  0.00  0.00    +0.000 C 
ATOM      7  C   UNL     1      -7.471  12.421  19.430  0.00  0.00    +0.000 C 
ATOM      8  C   UNL     1      -7.400  12.870  17.926  0.00  0.00    +0.000 C 
ATOM      9  N   UNL     1      -6.470  13.970  17.646  0.00  0.00    +0.000 NA
ATOM     10  C   UNL     1      -6.768  15.160  18.431  0.00  0.00    +0.000 C 
ATOM     11  C   UNL     1      -7.463  14.822  19.731  0.00  0.00    +0.000 C 
ATOM     12  C   UNL     1      -7.294  13.552  21.876  0.00  0.00    +0.000 C 
ATOM     13  C   UNL     1      -6.968  14.913  22.526  0.00  0.00    +0.000 C 
ATOM     14  O   UNL     1      -6.727  14.687  23.901  0.00  0.00    +0.000 OA
ATOM     15  C   UNL     1      -6.285  13.333  24.035  0.00  0.00    +0.000 C 
ATOM     16  C   UNL     1      -6.347  12.651  22.653  0.00  0.00    +0.000 C 
ATOM     17  H   UNL     1      -5.507  13.676  17.804  0.00  0.00    +0.000 HD
ENDBRANCH   2   4
BRANCH   2  18
ATOM     18  C   UNL     1      -2.351  12.314  21.494  0.00  0.00    +0.000 A 
ATOM     19  C   UNL     1      -1.060  11.997  21.918  0.00  0.00    +0.000 A 
ATOM     20  C   UNL     1      -0.147  11.497  20.992  0.00  0.00    +0.000 A 
ATOM     21  C   UNL     1      -0.556  11.243  19.679  0.00  0.00    +0.000 A 
ATOM     22  C   UNL     1      -1.862  11.547  19.261  0.00  0.00    +0.000 A 
ATOM     23  C   UNL     1      -2.703  12.214  20.155  0.00  0.00    +0.000 A 
BRANCH  22  24
ATOM     24  C   UNL     1      -2.475  10.944  18.064  0.00  0.00    +0.000 A 
ATOM     25  C   UNL     1      -3.675  11.489  17.572  0.00  0.00    +0.000 A 
ATOM     26  C   UNL     1      -4.135  11.188  16.292  0.00  0.00    +0.000 A 
ATOM     27  C   UNL     1      -3.405  10.327  15.481  0.00  0.00    +0.000 A 
ATOM     28  C   UNL     1      -2.243   9.730  15.966  0.00  0.00    +0.000 A 
ATOM     29  C   UNL     1      -1.786  10.029  17.253  0.00  0.00    +0.000 A 
ENDBRANCH  22  24
ENDBRANCH   2  18
TORSDOF 3
ENDMDL
MODEL 5
REMARK VINA RESULT:      -7.6      1.167      1.388
REMARK  Name = 
REMARK  3 active torsions:
REMARK  status: ('A' for Active; 'I' for Inactive)
REMARK    1  A    between atoms: S_2  and  C_4
REMARK    2  A    between atoms: S_2  and  N_16
REMARK    3  A    between atoms: C_8  and  C_9
REMARK                            x       y       z     vdW  Elec       q    Type
REMARK                         _______ _______ _______ _____ _____    ______ ____
ROOT
ATOM      1  O   UNL     1       1.370   6.130  20.714  0.00  0.00    +0.000 OA
ATOM      2  S   UNL     1       1.969   6.313  19.409  0.00  0.00    +0.000 S 
ATOM      3  O   UNL     1       1.458   5.656  18.235  0.00  0.00    +0.000 OA
ENDROOT
BRANCH   2   4
ATOM      4  N   UNL     1       3.627   5.885  19.558  0.00  0.00    +0.000 NA
ATOM      5  C   UNL     1       4.593   6.175  18.433  0.00  0.00    +0.000 C 
ATOM      6  C   UNL     1       5.738   5.111  18.512  0.00  0.00    +0.000 C 
ATOM      7  C   UNL     1       6.975   5.778  19.199  0.00  0.00    +0.000 C 
ATOM      8  C   UNL     1       7.883   6.524  18.156  0.00  0.00    +0.000 C 
ATOM      9  N   UNL     1       7.234   6.842  16.879  0.00  0.00    +0.000 NA
ATOM     10  C   UNL     1       6.709   5.657  16.214  0.00  0.00    +0.000 C 
ATOM     11  C   UNL     1       6.365   4.561  17.199  0.00  0.00    +0.000 C 
ATOM     12  C   UNL     1       4.983   3.954  19.190  0.00  0.00    +0.000 C 
ATOM     13  C   UNL     1       4.081   3.198  18.193  0.00  0.00    +0.000 C 
ATOM     14  O   UNL     1       3.004   2.643  18.922  0.00  0.00    +0.000 OA
ATOM     15  C   UNL     1       2.823   3.450  20.089  0.00  0.00    +0.000 C 
ATOM     16  C   UNL     1       3.929   4.526  20.124  0.00  0.00    +0.000 C 
ATOM     17  H   UNL     1       6.493   7.529  17.013  0.00  0.00    +0.000 HD
ENDBRANCH   2   4
BRANCH   2  18
ATOM     18  C   UNL     1       1.953   8.056  19.081  0.00  0.00    +0.000 A 
ATOM     19  C   UNL     1       2.537   8.591  17.932  0.00  0.00    +0.000 A 
ATOM     20  C   UNL     1       2.403   9.955  17.677  0.00  0.00    +0.000 A 
ATOM     21  C   UNL     1       1.622  10.748  18.524  0.00  0.00    +0.000 A 
ATOM     22  C   UNL     1       1.021  10.201  19.669  0.00  0.00    +0.000 A 
ATOM     23  C   UNL     1       1.317   8.877  20.003  0.00  0.00    +0.000 A 
BRANCH  22  24
ATOM     24  C   UNL     1      -0.116  10.841  20.353  0.00  0.00    +0.000 A 
ATOM     25  C   UNL     1       0.049  11.271  21.683  0.00  0.00    +0.000 A 
ATOM     26  C   UNL     1      -0.853  12.152  22.276  0.00  0.00    +0.000 A 
ATOM     27  C   UNL     1      -1.945  12.613  21.551  0.00  0.00    +0.000 A 
ATOM     28  C   UNL     1      -2.162  12.158  20.253  0.00  0.00    +0.000 A 
ATOM     29  C   UNL     1      -1.259  11.271  19.661  0.00  0.00    +0.000 A 
ENDBRANCH  22  24
ENDBRANCH   2  18
TORSDOF 3
ENDMDL
MODEL 6
REMARK VINA RESULT:      -7.6      7.264     11.273
REMARK  Name = 
REMARK  3 active torsions:
REMARK  status: ('A' for Active; 'I' for Inactive)
REMARK    1  A    between atoms: S_2  and  C_4
REMARK    2  A    between atoms: S_2  and  N_16
REMARK    3  A    between atoms: C_8  and  C_9
REMARK                            x       y       z     vdW  Elec       q    Type
REMARK                         _______ _______ _______ _____ _____    ______ ____
ROOT
ATOM      1  O   UNL     1      -1.193  12.821  23.467  0.00  0.00    +0.000 OA
ATOM      2  S   UNL     1      -1.803  13.108  22.187  0.00  0.00    +0.000 S 
ATOM      3  O   UNL     1      -1.719  14.409  21.575  0.00  0.00    +0.000 OA
ENDROOT
BRANCH   2   4
ATOM      4  N   UNL     1      -3.470  12.715  22.331  0.00  0.00    +0.000 NA
ATOM      5  C   UNL     1      -4.429  13.038  21.208  0.00  0.00    +0.000 C 
ATOM      6  C   UNL     1      -5.843  13.248  21.845  0.00  0.00    +0.000 C 
ATOM      7  C   UNL     1      -6.673  11.940  21.629  0.00  0.00    +0.000 C 
ATOM      8  C   UNL     1      -7.412  11.947  20.243  0.00  0.00    +0.000 C 
ATOM      9  N   UNL     1      -6.880  12.894  19.257  0.00  0.00    +0.000 NA
ATOM     10  C   UNL     1      -6.885  14.266  19.748  0.00  0.00    +0.000 C 
ATOM     11  C   UNL     1      -6.796  14.327  21.256  0.00  0.00    +0.000 C 
ATOM     12  C   UNL     1      -5.436  13.704  23.258  0.00  0.00    +0.000 C 
ATOM     13  C   UNL     1      -4.991  15.181  23.276  0.00  0.00    +0.000 C 
ATOM     14  O   UNL     1      -4.075  15.341  24.340  0.00  0.00    +0.000 OA
ATOM     15  C   UNL     1      -3.470  14.066  24.573  0.00  0.00    +0.000 C 
ATOM     16  C   UNL     1      -4.131  13.027  23.644  0.00  0.00    +0.000 C 
ATOM     17  H   UNL     1      -5.939  12.625  18.971  0.00  0.00    +0.000 HD
ENDBRANCH   2   4
BRANCH   2  18
ATOM     18  C   UNL     1      -1.134  11.942  21.030  0.00  0.00    +0.000 A 
ATOM     19  C   UNL     1      -0.155  11.021  21.402  0.00  0.00    +0.000 A 
ATOM     20  C   UNL     1       0.258  10.062  20.479  0.00  0.00    +0.000 A 
ATOM     21  C   UNL     1      -0.368   9.983  19.231  0.00  0.00    +0.000 A 
ATOM     22  C   UNL     1      -1.366  10.901  18.867  0.00  0.00    +0.000 A 
ATOM     23  C   UNL     1      -1.636  11.962  19.736  0.00  0.00    +0.000 A 
BRANCH  22  24
ATOM     24  C   UNL     1      -2.332  10.639  17.786  0.00  0.00    +0.000 A 
ATOM     25  C   UNL     1      -3.518  11.395  17.741  0.00  0.00    +0.000 A 
ATOM     26  C   UNL     1      -4.311  11.428  16.596  0.00  0.00    +0.000 A 
ATOM     27  C   UNL     1      -3.936  10.697  15.475  0.00  0.00    +0.000 A 
ATOM     28  C   UNL     1      -2.798   9.896  15.514  0.00  0.00    +0.000 A 
ATOM     29  C   UNL     1      -2.006   9.859  16.665  0.00  0.00    +0.000 A 
ENDBRANCH  22  24
ENDBRANCH   2  18
TORSDOF 3
ENDMDL
MODEL 7
REMARK VINA RESULT:      -7.6      2.463      4.373
REMARK  Name = 
REMARK  3 active torsions:
REMARK  status: ('A' for Active; 'I' for Inactive)
REMARK    1  A    between atoms: S_2  and  C_4
REMARK    2  A    between atoms: S_2  and  N_16
REMARK    3  A    between atoms: C_8  and  C_9
REMARK                            x       y       z     vdW  Elec       q    Type
REMARK                         _______ _______ _______ _____ _____    ______ ____
ROOT
ATOM      1  O   UNL     1       3.628   7.586  16.278  0.00  0.00    +0.000 OA
ATOM      2  S   UNL     1       3.763   7.089  17.631  0.00  0.00    +0.000 S 
ATOM      3  O   UNL     1       5.007   7.164  18.352  0.00  0.00    +0.000 OA
ENDROOT
BRANCH   2   4
ATOM      4  N   UNL     1       3.284   5.439  17.604  0.00  0.00    +0.000 NA
ATOM      5  C   UNL     1       2.524   4.847  18.768  0.00  0.00    +0.000 C 
ATOM      6  C   UNL     1       2.851   3.317  18.812  0.00  0.00    +0.000 C 
ATOM      7  C   UNL     1       1.654   2.544  18.167  0.00  0.00    +0.000 C 
ATOM      8  C   UNL     1       0.535   2.228  19.222  0.00  0.00    +0.000 C 
ATOM      9  N   UNL     1       0.576   3.045  20.440  0.00  0.00    +0.000 NA
ATOM     10  C   UNL     1       1.854   2.942  21.133  0.00  0.00    +0.000 C 
ATOM     11  C   UNL     1       2.984   2.601  20.187  0.00  0.00    +0.000 C 
ATOM     12  C   UNL     1       4.241   3.321  18.150  0.00  0.00    +0.000 C 
ATOM     13  C   UNL     1       5.339   3.785  19.130  0.00  0.00    +0.000 C 
ATOM     14  O   UNL     1       6.377   4.368  18.367  0.00  0.00    +0.000 OA
ATOM     15  C   UNL     1       5.793   4.844  17.152  0.00  0.00    +0.000 C 
ATOM     16  C   UNL     1       4.304   4.442  17.127  0.00  0.00    +0.000 C 
ATOM     17  H   UNL     1       0.369   4.020  20.227  0.00  0.00    +0.000 HD
ENDBRANCH   2   4
BRANCH   2  18
ATOM     18  C   UNL     1       2.541   7.926  18.606  0.00  0.00    +0.000 A 
ATOM     19  C   UNL     1       2.152   7.451  19.858  0.00  0.00    +0.000 A 
ATOM     20  C   UNL     1       1.264   8.206  20.623  0.00  0.00    +0.000 A 
ATOM     21  C   UNL     1       0.844   9.460  20.166  0.00  0.00    +0.000 A 
ATOM     22  C   UNL     1       1.254   9.943  18.912  0.00  0.00    +0.000 A 
ATOM     23  C   UNL     1       1.995   9.092  18.087  0.00  0.00    +0.000 A 
BRANCH  22  24
ATOM     24  C   UNL     1       1.203  11.371  18.554  0.00  0.00    +0.000 A 
ATOM     25  C   UNL     1       0.022  12.091  18.813  0.00  0.00    +0.000 A 
ATOM     26  C   UNL     1       0.007  13.484  18.800  0.00  0.00    +0.000 A 
ATOM     27  C   UNL     1       1.174  14.184  18.518  0.00  0.00    +0.000 A 
ATOM     28  C   UNL     1       2.341  13.494  18.203  0.00  0.00    +0.000 A 
ATOM     29  C   UNL     1       2.354  12.097  18.211  0.00  0.00    +0.000 A 
ENDBRANCH  22  24
ENDBRANCH   2  18
TORSDOF 3
ENDMDL
MODEL 8
REMARK VINA RESULT:      -7.5      7.270     11.190
REMARK  Name = 
REMARK  3 active torsions:
REMARK  status: ('A' for Active; 'I' for Inactive)
REMARK    1  A    between atoms: S_2  and  C_4
REMARK    2  A    between atoms: S_2  and  N_16
REMARK    3  A    between atoms: C_8  and  C_9
REMARK                            x       y       z     vdW  Elec       q    Type
REMARK                         _______ _______ _______ _____ _____    ______ ____
ROOT
ATOM      1  O   UNL     1       1.068  14.101  22.107  0.00  0.00    +0.000 OA
ATOM      2  S   UNL     1      -0.252  13.838  21.576  0.00  0.00    +0.000 S 
ATOM      3  O   UNL     1      -0.866  14.696  20.596  0.00  0.00    +0.000 OA
ENDROOT
BRANCH   2   4
ATOM      4  N   UNL     1      -1.320  13.744  22.919  0.00  0.00    +0.000 NA
ATOM      5  C   UNL     1      -2.786  13.442  22.707  0.00  0.00    +0.000 C 
ATOM      6  C   UNL     1      -3.575  14.101  23.887  0.00  0.00    +0.000 C 
ATOM      7  C   UNL     1      -3.915  12.985  24.929  0.00  0.00    +0.000 C 
ATOM      8  C   UNL     1      -5.261  12.256  24.575  0.00  0.00    +0.000 C 
ATOM      9  N   UNL     1      -5.709  12.412  23.186  0.00  0.00    +0.000 NA
ATOM     10  C   UNL     1      -5.872  13.809  22.811  0.00  0.00    +0.000 C 
ATOM     11  C   UNL     1      -4.976  14.721  23.620  0.00  0.00    +0.000 C 
ATOM     12  C   UNL     1      -2.615  15.251  24.244  0.00  0.00    +0.000 C 
ATOM     13  C   UNL     1      -2.734  16.424  23.249  0.00  0.00    +0.000 C 
ATOM     14  O   UNL     1      -1.487  17.088  23.216  0.00  0.00    +0.000 OA
ATOM     15  C   UNL     1      -0.489  16.134  23.590  0.00  0.00    +0.000 C 
ATOM     16  C   UNL     1      -1.186  14.811  23.969  0.00  0.00    +0.000 C 
ATOM     17  H   UNL     1      -5.065  11.947  22.546  0.00  0.00    +0.000 HD
ENDBRANCH   2   4
BRANCH   2  18
ATOM     18  C   UNL     1      -0.207  12.205  20.885  0.00  0.00    +0.000 A 
ATOM     19  C   UNL     1       0.328  11.126  21.590  0.00  0.00    +0.000 A 
ATOM     20  C   UNL     1       0.243   9.848  21.040  0.00  0.00    +0.000 A 
ATOM     21  C   UNL     1      -0.445   9.653  19.837  0.00  0.00    +0.000 A 
ATOM     22  C   UNL     1      -0.998  10.740  19.140  0.00  0.00    +0.000 A 
ATOM     23  C   UNL     1      -0.743  12.028  19.617  0.00  0.00    +0.000 A 
BRANCH  22  24
ATOM     24  C   UNL     1      -2.057  10.581  18.130  0.00  0.00    +0.000 A 
ATOM     25  C   UNL     1      -3.215  11.373  18.233  0.00  0.00    +0.000 A 
ATOM     26  C   UNL     1      -4.098  11.508  17.164  0.00  0.00    +0.000 A 
ATOM     27  C   UNL     1      -3.843  10.843  15.970  0.00  0.00    +0.000 A 
ATOM     28  C   UNL     1      -2.734  10.007  15.862  0.00  0.00    +0.000 A 
ATOM     29  C   UNL     1      -1.852   9.869  16.937  0.00  0.00    +0.000 A 
ENDBRANCH  22  24
ENDBRANCH   2  18
TORSDOF 3
ENDMDL
MODEL 9
REMARK VINA RESULT:      -7.5      7.186      9.933
REMARK  Name = 
REMARK  3 active torsions:
REMARK  status: ('A' for Active; 'I' for Inactive)
REMARK    1  A    between atoms: S_2  and  C_4
REMARK    2  A    between atoms: S_2  and  N_16
REMARK    3  A    between atoms: C_8  and  C_9
REMARK                            x       y       z     vdW  Elec       q    Type
REMARK                         _______ _______ _______ _____ _____    ______ ____
ROOT
ATOM      1  O   UNL     1      -0.225  10.545  18.520  0.00  0.00    +0.000 OA
ATOM      2  S   UNL     1      -0.989  11.751  18.755  0.00  0.00    +0.000 S 
ATOM      3  O   UNL     1      -0.473  13.057  18.437  0.00  0.00    +0.000 OA
ENDROOT
BRANCH   2   4
ATOM      4  N   UNL     1      -1.411  11.756  20.420  0.00  0.00    +0.000 NA
ATOM      5  C   UNL     1      -2.391  12.775  20.955  0.00  0.00    +0.000 C 
ATOM      6  C   UNL     1      -2.044  13.013  22.462  0.00  0.00    +0.000 C 
ATOM      7  C   UNL     1      -3.054  12.191  23.330  0.00  0.00    +0.000 C 
ATOM      8  C   UNL     1      -4.367  13.005  23.612  0.00  0.00    +0.000 C 
ATOM      9  N   UNL     1      -4.611  14.133  22.706  0.00  0.00    +0.000 NA
ATOM     10  C   UNL     1      -3.512  15.088  22.705  0.00  0.00    +0.000 C 
ATOM     11  C   UNL     1      -2.195  14.438  23.068  0.00  0.00    +0.000 C 
ATOM     12  C   UNL     1      -0.544  12.666  22.451  0.00  0.00    +0.000 C 
ATOM     13  C   UNL     1       0.304  13.817  21.870  0.00  0.00    +0.000 C 
ATOM     14  O   UNL     1       1.468  13.249  21.303  0.00  0.00    +0.000 OA
ATOM     15  C   UNL     1       1.150  11.902  20.943  0.00  0.00    +0.000 C 
ATOM     16  C   UNL     1      -0.289  11.592  21.406  0.00  0.00    +0.000 C 
ATOM     17  H   UNL     1      -4.791  13.801  21.759  0.00  0.00    +0.000 HD
ENDBRANCH   2   4
BRANCH   2  18
ATOM     18  C   UNL     1      -2.517  11.564  17.874  0.00  0.00    +0.000 A 
ATOM     19  C   UNL     1      -2.555  11.081  16.565  0.00  0.00    +0.000 A 
ATOM     20  C   UNL     1      -3.791  10.859  15.961  0.00  0.00    +0.000 A 
ATOM     21  C   UNL     1      -4.968  11.040  16.695  0.00  0.00    +0.000 A 
ATOM     22  C   UNL     1      -4.924  11.509  18.019  0.00  0.00    +0.000 A 
ATOM     23  C   UNL     1      -3.688  11.897  18.542  0.00  0.00    +0.000 A 
BRANCH  22  24
ATOM     24  C   UNL     1      -6.042  11.331  18.962  0.00  0.00    +0.000 A 
ATOM     25  C   UNL     1      -6.701  10.089  19.003  0.00  0.00    +0.000 A 
ATOM     26  C   UNL     1      -7.535   9.747  20.065  0.00  0.00    +0.000 A 
ATOM     27  C   UNL     1      -7.732  10.648  21.105  0.00  0.00    +0.000 A 
ATOM     28  C   UNL     1      -7.137  11.905  21.060  0.00  0.00    +0.000 A 
ATOM     29  C   UNL     1      -6.305  12.249  19.991  0.00  0.00    +0.000 A 
ENDBRANCH  22  24
ENDBRANCH   2  18
TORSDOF 3
ENDMDL
