MODEL 1
REMARK VINA RESULT:      -8.3      0.000      0.000
REMARK  Name = 
REMARK  5 active torsions:
REMARK  status: ('A' for Active; 'I' for Inactive)
REMARK    1  A    between atoms: C_1  and  C_2
REMARK    2  A    between atoms: C_10  and  C_11
REMARK    3  A    between atoms: C_15  and  C_17
REMARK    4  A    between atoms: N_19  and  C_20
REMARK    5  A    between atoms: C_23  and  C_24
REMARK                            x       y       z     vdW  Elec       q    Type
REMARK                         _______ _______ _______ _____ _____    ______ ____
ROOT
ATOM      1  C   UNL     1       5.043   4.711  17.107  0.00  0.00    +0.000 C 
ATOM      2  C   UNL     1       5.071   3.601  17.868  0.00  0.00    +0.000 C 
ATOM      3  C   UNL     1       4.058   3.256  18.922  0.00  0.00    +0.000 C 
ATOM      4  N   UNL     1       3.086   4.326  19.102  0.00  0.00    +0.000 N 
ATOM      5  C   UNL     1       2.457   4.448  20.340  0.00  0.00    +0.000 C 
ATOM      6  O   UNL     1       2.599   3.671  21.280  0.00  0.00    +0.000 OA
ATOM      7  C   UNL     1       2.704   5.066  17.897  0.00  0.00    +0.000 C 
ATOM      8  C   UNL     1       3.927   5.714  17.241  0.00  0.00    +0.000 C 
ENDROOT
BRANCH   1  18
ATOM      9  C   UNL     1       7.579   6.620  17.429  0.00  0.00    +0.000 C 
ATOM     10  C   UNL     1       7.108   5.826  16.265  0.00  0.00    +0.000 A 
ATOM     11  N   UNL     1       7.803   5.820  15.078  0.00  0.00    +0.000 N 
ATOM     12  C   UNL     1       7.177   5.021  14.150  0.00  0.00    +0.000 A 
ATOM     13  C   UNL     1       7.538   4.723  12.831  0.00  0.00    +0.000 A 
ATOM     14  C   UNL     1       6.696   3.875  12.105  0.00  0.00    +0.000 A 
ATOM     15  C   UNL     1       5.537   3.354  12.677  0.00  0.00    +0.000 A 
ATOM     16  C   UNL     1       5.197   3.657  14.000  0.00  0.00    +0.000 A 
ATOM     17  C   UNL     1       6.034   4.508  14.758  0.00  0.00    +0.000 A 
ATOM     18  C   UNL     1       6.011   5.003  16.097  0.00  0.00    +0.000 A 
ATOM     19  H   UNL     1       8.659   6.331  14.903  0.00  0.00    +0.000 HD
ENDBRANCH   1  18
BRANCH   5  20
ATOM     20  C   UNL     1       1.511   5.643  20.551  0.00  0.00    +0.000 C 
ATOM     21  O   UNL     1       0.308   5.412  20.626  0.00  0.00    +0.000 OA
ATOM     22  N   UNL     1       2.151   6.870  20.588  0.00  0.00    +0.000 N 
ATOM     23  H   UNL     1       3.122   6.873  20.300  0.00  0.00    +0.000 HD
BRANCH  22  24
ATOM     24  C   UNL     1       1.493   8.112  20.751  0.00  0.00    +0.000 A 
ATOM     25  C   UNL     1       1.062   8.573  21.999  0.00  0.00    +0.000 A 
ATOM     26  C   UNL     1       0.332   9.757  22.123  0.00  0.00    +0.000 A 
ATOM     27  C   UNL     1       0.036  10.521  20.998  0.00  0.00    +0.000 A 
ATOM     28  C   UNL     1       0.508  10.104  19.748  0.00  0.00    +0.000 A 
ATOM     29  C   UNL     1       1.244   8.911  19.627  0.00  0.00    +0.000 A 
BRANCH  27  30
ATOM     30  C   UNL     1      -0.757  11.715  21.131  0.00  0.00    +0.000 C 
ATOM     31  N   UNL     1      -1.380  12.687  21.247  0.00  0.00    +0.000 NA
ENDBRANCH  27  30
ENDBRANCH  22  24
ENDBRANCH   5  20
TORSDOF 4
ENDMDL
MODEL 2
REMARK VINA RESULT:      -8.2      2.307      9.363
REMARK  Name = 
REMARK  5 active torsions:
REMARK  status: ('A' for Active; 'I' for Inactive)
REMARK    1  A    between atoms: C_1  and  C_2
REMARK    2  A    between atoms: C_10  and  C_11
REMARK    3  A    between atoms: C_15  and  C_17
REMARK    4  A    between atoms: N_19  and  C_20
REMARK    5  A    between atoms: C_23  and  C_24
REMARK                            x       y       z     vdW  Elec       q    Type
REMARK                         _______ _______ _______ _____ _____    ______ ____
ROOT
ATOM      1  C   UNL     1       0.677   9.981  19.248  0.00  0.00    +0.000 C 
ATOM      2  C   UNL     1       0.756   9.418  20.468  0.00  0.00    +0.000 C 
ATOM      3  C   UNL     1       1.493   8.147  20.783  0.00  0.00    +0.000 C 
ATOM      4  N   UNL     1       2.032   7.529  19.580  0.00  0.00    +0.000 N 
ATOM      5  C   UNL     1       2.233   6.149  19.577  0.00  0.00    +0.000 C 
ATOM      6  O   UNL     1       2.063   5.412  20.545  0.00  0.00    +0.000 OA
ATOM      7  C   UNL     1       2.507   8.442  18.537  0.00  0.00    +0.000 C 
ATOM      8  C   UNL     1       1.381   9.368  18.065  0.00  0.00    +0.000 C 
ENDROOT
BRANCH   1  18
ATOM      9  C   UNL     1      -2.285  10.250  18.095  0.00  0.00    +0.000 C 
ATOM     10  C   UNL     1      -1.304  11.293  18.492  0.00  0.00    +0.000 A 
ATOM     11  N   UNL     1      -1.611  12.631  18.409  0.00  0.00    +0.000 N 
ATOM     12  C   UNL     1      -0.552  13.402  18.826  0.00  0.00    +0.000 A 
ATOM     13  C   UNL     1      -0.433  14.793  18.914  0.00  0.00    +0.000 A 
ATOM     14  C   UNL     1       0.783  15.313  19.369  0.00  0.00    +0.000 A 
ATOM     15  C   UNL     1       1.837  14.469  19.714  0.00  0.00    +0.000 A 
ATOM     16  C   UNL     1       1.697  13.080  19.628  0.00  0.00    +0.000 A 
ATOM     17  C   UNL     1       0.476  12.529  19.175  0.00  0.00    +0.000 A 
ATOM     18  C   UNL     1      -0.015  11.203  18.983  0.00  0.00    +0.000 A 
ATOM     19  H   UNL     1      -2.494  13.005  18.086  0.00  0.00    +0.000 HD
ENDBRANCH   1  18
BRANCH   5  20
ATOM     20  C   UNL     1       2.705   5.494  18.268  0.00  0.00    +0.000 C 
ATOM     21  O   UNL     1       1.920   4.752  17.685  0.00  0.00    +0.000 OA
ATOM     22  N   UNL     1       4.011   5.798  17.923  0.00  0.00    +0.000 N 
ATOM     23  H   UNL     1       4.563   6.258  18.637  0.00  0.00    +0.000 HD
BRANCH  22  24
ATOM     24  C   UNL     1       4.674   5.300  16.777  0.00  0.00    +0.000 A 
ATOM     25  C   UNL     1       5.127   6.136  15.751  0.00  0.00    +0.000 A 
ATOM     26  C   UNL     1       5.694   5.614  14.587  0.00  0.00    +0.000 A 
ATOM     27  C   UNL     1       5.843   4.239  14.432  0.00  0.00    +0.000 A 
ATOM     28  C   UNL     1       5.447   3.391  15.472  0.00  0.00    +0.000 A 
ATOM     29  C   UNL     1       4.876   3.920  16.644  0.00  0.00    +0.000 A 
BRANCH  27  30
ATOM     30  C   UNL     1       6.386   3.710  13.209  0.00  0.00    +0.000 C 
ATOM     31  N   UNL     1       6.817   3.265  12.227  0.00  0.00    +0.000 NA
ENDBRANCH  27  30
ENDBRANCH  22  24
ENDBRANCH   5  20
TORSDOF 4
ENDMDL
MODEL 3
REMARK VINA RESULT:      -7.9      2.448      9.360
REMARK  Name = 
REMARK  5 active torsions:
REMARK  status: ('A' for Active; 'I' for Inactive)
REMARK    1  A    between atoms: C_1  and  C_2
REMARK    2  A    between atoms: C_10  and  C_11
REMARK    3  A    between atoms: C_15  and  C_17
REMARK    4  A    between atoms: N_19  and  C_20
REMARK    5  A    between atoms: C_23  and  C_24
REMARK                            x       y       z     vdW  Elec       q    Type
REMARK                         _______ _______ _______ _____ _____    ______ ____
ROOT
ATOM      1  C   UNL     1       0.036   9.739  19.541  0.00  0.00    +0.000 C 
ATOM      2  C   UNL     1       0.404   9.273  20.749  0.00  0.00    +0.000 C 
ATOM      3  C   UNL     1       1.437   8.208  20.981  0.00  0.00    +0.000 C 
ATOM      4  N   UNL     1       1.926   7.653  19.727  0.00  0.00    +0.000 N 
ATOM      5  C   UNL     1       2.421   6.350  19.727  0.00  0.00    +0.000 C 
ATOM      6  O   UNL     1       2.552   5.647  20.726  0.00  0.00    +0.000 OA
ATOM      7  C   UNL     1       2.041   8.587  18.605  0.00  0.00    +0.000 C 
ATOM      8  C   UNL     1       0.686   9.226  18.282  0.00  0.00    +0.000 C 
ENDROOT
BRANCH   1  18
ATOM      9  C   UNL     1       0.173  12.695  20.734  0.00  0.00    +0.000 C 
ATOM     10  C   UNL     1      -0.848  12.046  19.871  0.00  0.00    +0.000 A 
ATOM     11  N   UNL     1      -1.957  12.736  19.438  0.00  0.00    +0.000 N 
ATOM     12  C   UNL     1      -2.757  11.934  18.659  0.00  0.00    +0.000 A 
ATOM     13  C   UNL     1      -3.963  12.224  18.011  0.00  0.00    +0.000 A 
ATOM     14  C   UNL     1      -4.573  11.197  17.286  0.00  0.00    +0.000 A 
ATOM     15  C   UNL     1      -3.999   9.928  17.220  0.00  0.00    +0.000 A 
ATOM     16  C   UNL     1      -2.789   9.659  17.867  0.00  0.00    +0.000 A 
ATOM     17  C   UNL     1      -2.148  10.682  18.604  0.00  0.00    +0.000 A 
ATOM     18  C   UNL     1      -0.936  10.769  19.352  0.00  0.00    +0.000 A 
ATOM     19  H   UNL     1      -2.162  13.702  19.657  0.00  0.00    +0.000 HD
ENDBRANCH   1  18
BRANCH   5  20
ATOM     20  C   UNL     1       2.838   5.739  18.378  0.00  0.00    +0.000 C 
ATOM     21  O   UNL     1       1.985   5.131  17.738  0.00  0.00    +0.000 OA
ATOM     22  N   UNL     1       4.175   5.919  18.067  0.00  0.00    +0.000 N 
ATOM     23  H   UNL     1       4.763   6.264  18.816  0.00  0.00    +0.000 HD
BRANCH  22  24
ATOM     24  C   UNL     1       4.797   5.431  16.893  0.00  0.00    +0.000 A 
ATOM     25  C   UNL     1       5.111   6.261  15.812  0.00  0.00    +0.000 A 
ATOM     26  C   UNL     1       5.639   5.742  14.628  0.00  0.00    +0.000 A 
ATOM     27  C   UNL     1       5.886   4.378  14.508  0.00  0.00    +0.000 A 
ATOM     28  C   UNL     1       5.631   3.541  15.599  0.00  0.00    +0.000 A 
ATOM     29  C   UNL     1       5.100   4.067  16.791  0.00  0.00    +0.000 A 
BRANCH  27  30
ATOM     30  C   UNL     1       6.386   3.847  13.267  0.00  0.00    +0.000 C 
ATOM     31  N   UNL     1       6.787   3.437  12.257  0.00  0.00    +0.000 NA
ENDBRANCH  27  30
ENDBRANCH  22  24
ENDBRANCH   5  20
TORSDOF 4
ENDMDL
MODEL 4
REMARK VINA RESULT:      -7.8      3.543      5.492
REMARK  Name = 
REMARK  5 active torsions:
REMARK  status: ('A' for Active; 'I' for Inactive)
REMARK    1  A    between atoms: C_1  and  C_2
REMARK    2  A    between atoms: C_10  and  C_11
REMARK    3  A    between atoms: C_15  and  C_17
REMARK    4  A    between atoms: N_19  and  C_20
REMARK    5  A    between atoms: C_23  and  C_24
REMARK                            x       y       z     vdW  Elec       q    Type
REMARK                         _______ _______ _______ _____ _____    ______ ____
ROOT
ATOM      1  C   UNL     1       2.578   6.930  18.777  0.00  0.00    +0.000 C 
ATOM      2  C   UNL     1       2.228   6.793  20.069  0.00  0.00    +0.000 C 
ATOM      3  C   UNL     1       1.449   7.805  20.860  0.00  0.00    +0.000 C 
ATOM      4  N   UNL     1       1.204   9.015  20.088  0.00  0.00    +0.000 N 
ATOM      5  C   UNL     1       1.021  10.215  20.775  0.00  0.00    +0.000 C 
ATOM      6  O   UNL     1       0.971  10.324  21.998  0.00  0.00    +0.000 OA
ATOM      7  C   UNL     1       0.972   8.834  18.653  0.00  0.00    +0.000 C 
ATOM      8  C   UNL     1       2.167   8.146  17.987  0.00  0.00    +0.000 C 
ENDROOT
BRANCH   1  18
ATOM      9  C   UNL     1       1.467   4.084  17.858  0.00  0.00    +0.000 C 
ATOM     10  C   UNL     1       2.794   4.717  17.648  0.00  0.00    +0.000 A 
ATOM     11  N   UNL     1       3.787   4.076  16.945  0.00  0.00    +0.000 N 
ATOM     12  C   UNL     1       4.922   4.851  16.884  0.00  0.00    +0.000 A 
ATOM     13  C   UNL     1       6.151   4.597  16.267  0.00  0.00    +0.000 A 
ATOM     14  C   UNL     1       7.145   5.574  16.377  0.00  0.00    +0.000 A 
ATOM     15  C   UNL     1       6.915   6.754  17.083  0.00  0.00    +0.000 A 
ATOM     16  C   UNL     1       5.676   6.994  17.686  0.00  0.00    +0.000 A 
ATOM     17  C   UNL     1       4.652   6.024  17.586  0.00  0.00    +0.000 A 
ATOM     18  C   UNL     1       3.303   5.940  18.044  0.00  0.00    +0.000 A 
ATOM     19  H   UNL     1       3.702   3.159  16.525  0.00  0.00    +0.000 HD
ENDBRANCH   1  18
BRANCH   5  20
ATOM     20  C   UNL     1       0.865  11.501  19.947  0.00  0.00    +0.000 C 
ATOM     21  O   UNL     1       0.107  11.471  18.982  0.00  0.00    +0.000 OA
ATOM     22  N   UNL     1       1.655  12.551  20.382  0.00  0.00    +0.000 N 
ATOM     23  H   UNL     1       2.367  12.318  21.064  0.00  0.00    +0.000 HD
BRANCH  22  24
ATOM     24  C   UNL     1       1.701  13.826  19.770  0.00  0.00    +0.000 A 
ATOM     25  C   UNL     1       0.759  14.823  20.045  0.00  0.00    +0.000 A 
ATOM     26  C   UNL     1       0.769  16.040  19.360  0.00  0.00    +0.000 A 
ATOM     27  C   UNL     1       1.740  16.297  18.397  0.00  0.00    +0.000 A 
ATOM     28  C   UNL     1       2.725  15.333  18.150  0.00  0.00    +0.000 A 
ATOM     29  C   UNL     1       2.712  14.108  18.842  0.00  0.00    +0.000 A 
BRANCH  27  30
ATOM     30  C   UNL     1       1.713  17.535  17.665  0.00  0.00    +0.000 C 
ATOM     31  N   UNL     1       1.677  18.527  17.062  0.00  0.00    +0.000 NA
ENDBRANCH  27  30
ENDBRANCH  22  24
ENDBRANCH   5  20
TORSDOF 4
ENDMDL
MODEL 5
REMARK VINA RESULT:      -7.7      1.304      1.817
REMARK  Name = 
REMARK  5 active torsions:
REMARK  status: ('A' for Active; 'I' for Inactive)
REMARK    1  A    between atoms: C_1  and  C_2
REMARK    2  A    between atoms: C_10  and  C_11
REMARK    3  A    between atoms: C_15  and  C_17
REMARK    4  A    between atoms: N_19  and  C_20
REMARK    5  A    between atoms: C_23  and  C_24
REMARK                            x       y       z     vdW  Elec       q    Type
REMARK                         _______ _______ _______ _____ _____    ______ ____
ROOT
ATOM      1  C   UNL     1       4.567   5.427  17.048  0.00  0.00    +0.000 C 
ATOM      2  C   UNL     1       3.958   4.341  17.561  0.00  0.00    +0.000 C 
ATOM      3  C   UNL     1       2.793   4.377  18.509  0.00  0.00    +0.000 C 
ATOM      4  N   UNL     1       2.461   5.740  18.898  0.00  0.00    +0.000 N 
ATOM      5  C   UNL     1       1.837   5.945  20.128  0.00  0.00    +0.000 C 
ATOM      6  O   UNL     1       1.469   5.052  20.887  0.00  0.00    +0.000 OA
ATOM      7  C   UNL     1       2.633   6.769  17.870  0.00  0.00    +0.000 C 
ATOM      8  C   UNL     1       4.082   6.815  17.376  0.00  0.00    +0.000 C 
ENDROOT
BRANCH   1  18
ATOM      9  C   UNL     1       7.475   6.661  17.500  0.00  0.00    +0.000 C 
ATOM     10  C   UNL     1       6.916   5.896  16.355  0.00  0.00    +0.000 A 
ATOM     11  N   UNL     1       7.685   5.595  15.256  0.00  0.00    +0.000 N 
ATOM     12  C   UNL     1       6.957   4.887  14.328  0.00  0.00    +0.000 A 
ATOM     13  C   UNL     1       7.340   4.375  13.085  0.00  0.00    +0.000 A 
ATOM     14  C   UNL     1       6.373   3.696  12.337  0.00  0.00    +0.000 A 
ATOM     15  C   UNL     1       5.074   3.544  12.816  0.00  0.00    +0.000 A 
ATOM     16  C   UNL     1       4.711   4.056  14.067  0.00  0.00    +0.000 A 
ATOM     17  C   UNL     1       5.671   4.743  14.845  0.00  0.00    +0.000 A 
ATOM     18  C   UNL     1       5.662   5.362  16.131  0.00  0.00    +0.000 A 
ATOM     19  H   UNL     1       8.656   5.854  15.137  0.00  0.00    +0.000 HD
ENDBRANCH   1  18
BRANCH   5  20
ATOM     20  C   UNL     1       1.584   7.395  20.574  0.00  0.00    +0.000 C 
ATOM     21  O   UNL     1       2.543   8.162  20.594  0.00  0.00    +0.000 OA
ATOM     22  N   UNL     1       0.276   7.651  20.948  0.00  0.00    +0.000 N 
ATOM     23  H   UNL     1      -0.320   6.840  21.061  0.00  0.00    +0.000 HD
BRANCH  22  24
ATOM     24  C   UNL     1      -0.194   8.901  21.413  0.00  0.00    +0.000 A 
ATOM     25  C   UNL     1      -0.411   9.985  20.556  0.00  0.00    +0.000 A 
ATOM     26  C   UNL     1      -0.786  11.237  21.049  0.00  0.00    +0.000 A 
ATOM     27  C   UNL     1      -0.975  11.426  22.415  0.00  0.00    +0.000 A 
ATOM     28  C   UNL     1      -0.817  10.339  23.281  0.00  0.00    +0.000 A 
ATOM     29  C   UNL     1      -0.441   9.079  22.781  0.00  0.00    +0.000 A 
BRANCH  27  30
ATOM     30  C   UNL     1      -1.315  12.732  22.917  0.00  0.00    +0.000 C 
ATOM     31  N   UNL     1      -1.574  13.792  23.312  0.00  0.00    +0.000 NA
ENDBRANCH  27  30
ENDBRANCH  22  24
ENDBRANCH   5  20
TORSDOF 4
ENDMDL
MODEL 6
REMARK VINA RESULT:      -7.6      4.055     10.493
REMARK  Name = 
REMARK  5 active torsions:
REMARK  status: ('A' for Active; 'I' for Inactive)
REMARK    1  A    between atoms: C_1  and  C_2
REMARK    2  A    between atoms: C_10  and  C_11
REMARK    3  A    between atoms: C_15  and  C_17
REMARK    4  A    between atoms: N_19  and  C_20
REMARK    5  A    between atoms: C_23  and  C_24
REMARK                            x       y       z     vdW  Elec       q    Type
REMARK                         _______ _______ _______ _____ _____    ______ ____
ROOT
ATOM      1  C   UNL     1      -2.410  11.138  18.657  0.00  0.00    +0.000 C 
ATOM      2  C   UNL     1      -1.948  11.779  19.747  0.00  0.00    +0.000 C 
ATOM      3  C   UNL     1      -0.629  11.504  20.410  0.00  0.00    +0.000 C 
ATOM      4  N   UNL     1       0.056  10.376  19.795  0.00  0.00    +0.000 N 
ATOM      5  C   UNL     1       0.954   9.643  20.570  0.00  0.00    +0.000 C 
ATOM      6  O   UNL     1       1.277   9.920  21.722  0.00  0.00    +0.000 OA
ATOM      7  C   UNL     1      -0.109  10.227  18.347  0.00  0.00    +0.000 C 
ATOM      8  C   UNL     1      -1.587  10.075  17.976  0.00  0.00    +0.000 C 
ENDROOT
BRANCH   1  18
ATOM      9  C   UNL     1      -3.057  10.925  15.540  0.00  0.00    +0.000 C 
ATOM     10  C   UNL     1      -3.920  11.325  16.682  0.00  0.00    +0.000 A 
ATOM     11  N   UNL     1      -5.238  11.669  16.493  0.00  0.00    +0.000 N 
ATOM     12  C   UNL     1      -5.832  12.004  17.687  0.00  0.00    +0.000 A 
ATOM     13  C   UNL     1      -7.146  12.401  17.958  0.00  0.00    +0.000 A 
ATOM     14  C   UNL     1      -7.474  12.694  19.285  0.00  0.00    +0.000 A 
ATOM     15  C   UNL     1      -6.520  12.599  20.297  0.00  0.00    +0.000 A 
ATOM     16  C   UNL     1      -5.213  12.191  20.008  0.00  0.00    +0.000 A 
ATOM     17  C   UNL     1      -4.856  11.885  18.674  0.00  0.00    +0.000 A 
ATOM     18  C   UNL     1      -3.662  11.435  18.035  0.00  0.00    +0.000 A 
ATOM     19  H   UNL     1      -5.714  11.677  15.600  0.00  0.00    +0.000 HD
ENDBRANCH   1  18
BRANCH   5  20
ATOM     20  C   UNL     1       1.592   8.393  19.941  0.00  0.00    +0.000 C 
ATOM     21  O   UNL     1       2.049   8.494  18.806  0.00  0.00    +0.000 OA
ATOM     22  N   UNL     1       1.532   7.265  20.741  0.00  0.00    +0.000 N 
ATOM     23  H   UNL     1       0.933   7.329  21.555  0.00  0.00    +0.000 HD
BRANCH  22  24
ATOM     24  C   UNL     1       2.033   5.994  20.372  0.00  0.00    +0.000 A 
ATOM     25  C   UNL     1       3.324   5.816  19.864  0.00  0.00    +0.000 A 
ATOM     26  C   UNL     1       3.763   4.567  19.420  0.00  0.00    +0.000 A 
ATOM     27  C   UNL     1       2.925   3.459  19.496  0.00  0.00    +0.000 A 
ATOM     28  C   UNL     1       1.650   3.607  20.053  0.00  0.00    +0.000 A 
ATOM     29  C   UNL     1       1.210   4.867  20.501  0.00  0.00    +0.000 A 
BRANCH  27  30
ATOM     30  C   UNL     1       3.371   2.187  18.992  0.00  0.00    +0.000 C 
ATOM     31  N   UNL     1       3.712   1.156  18.582  0.00  0.00    +0.000 NA
ENDBRANCH  27  30
ENDBRANCH  22  24
ENDBRANCH   5  20
TORSDOF 4
ENDMDL
MODEL 7
REMARK VINA RESULT:      -7.5      3.949     10.551
REMARK  Name = 
REMARK  5 active torsions:
REMARK  status: ('A' for Active; 'I' for Inactive)
REMARK    1  A    between atoms: C_1  and  C_2
REMARK    2  A    between atoms: C_10  and  C_11
REMARK    3  A    between atoms: C_15  and  C_17
REMARK    4  A    between atoms: N_19  and  C_20
REMARK    5  A    between atoms: C_23  and  C_24
REMARK                            x       y       z     vdW  Elec       q    Type
REMARK                         _______ _______ _______ _____ _____    ______ ____
ROOT
ATOM      1  C   UNL     1      -2.489  11.386  18.525  0.00  0.00    +0.000 C 
ATOM      2  C   UNL     1      -1.785  12.348  19.151  0.00  0.00    +0.000 C 
ATOM      3  C   UNL     1      -0.432  12.155  19.774  0.00  0.00    +0.000 C 
ATOM      4  N   UNL     1      -0.009  10.762  19.715  0.00  0.00    +0.000 N 
ATOM      5  C   UNL     1       0.884  10.300  20.680  0.00  0.00    +0.000 C 
ATOM      6  O   UNL     1       1.412  10.999  21.542  0.00  0.00    +0.000 OA
ATOM      7  C   UNL     1      -0.407  10.012  18.522  0.00  0.00    +0.000 C 
ATOM      8  C   UNL     1      -1.931   9.995  18.368  0.00  0.00    +0.000 C 
ENDROOT
BRANCH   1  18
ATOM      9  C   UNL     1      -3.215  10.958  15.447  0.00  0.00    +0.000 C 
ATOM     10  C   UNL     1      -4.058  11.402  16.587  0.00  0.00    +0.000 A 
ATOM     11  N   UNL     1      -5.392  11.692  16.416  0.00  0.00    +0.000 N 
ATOM     12  C   UNL     1      -5.963  12.082  17.605  0.00  0.00    +0.000 A 
ATOM     13  C   UNL     1      -7.281  12.455  17.890  0.00  0.00    +0.000 A 
ATOM     14  C   UNL     1      -7.582  12.821  19.205  0.00  0.00    +0.000 A 
ATOM     15  C   UNL     1      -6.597  12.819  20.192  0.00  0.00    +0.000 A 
ATOM     16  C   UNL     1      -5.286  12.435  19.890  0.00  0.00    +0.000 A 
ATOM     17  C   UNL     1      -4.957  12.056  18.568  0.00  0.00    +0.000 A 
ATOM     18  C   UNL     1      -3.767  11.605  17.922  0.00  0.00    +0.000 A 
ATOM     19  H   UNL     1      -5.893  11.629  15.539  0.00  0.00    +0.000 HD
ENDBRANCH   1  18
BRANCH   5  20
ATOM     20  C   UNL     1       1.244   8.805  20.670  0.00  0.00    +0.000 C 
ATOM     21  O   UNL     1       0.984   8.148  21.674  0.00  0.00    +0.000 OA
ATOM     22  N   UNL     1       1.874   8.383  19.512  0.00  0.00    +0.000 N 
ATOM     23  H   UNL     1       2.188   9.115  18.886  0.00  0.00    +0.000 HD
BRANCH  22  24
ATOM     24  C   UNL     1       2.318   7.061  19.277  0.00  0.00    +0.000 A 
ATOM     25  C   UNL     1       3.113   6.722  18.177  0.00  0.00    +0.000 A 
ATOM     26  C   UNL     1       3.462   5.396  17.913  0.00  0.00    +0.000 A 
ATOM     27  C   UNL     1       3.039   4.377  18.762  0.00  0.00    +0.000 A 
ATOM     28  C   UNL     1       2.291   4.703  19.898  0.00  0.00    +0.000 A 
ATOM     29  C   UNL     1       1.942   6.041  20.161  0.00  0.00    +0.000 A 
BRANCH  27  30
ATOM     30  C   UNL     1       3.365   3.009  18.455  0.00  0.00    +0.000 C 
ATOM     31  N   UNL     1       3.626   1.910  18.188  0.00  0.00    +0.000 NA
ENDBRANCH  27  30
ENDBRANCH  22  24
ENDBRANCH   5  20
TORSDOF 4
ENDMDL
MODEL 8
REMARK VINA RESULT:      -7.5      1.972      9.600
REMARK  Name = 
REMARK  5 active torsions:
REMARK  status: ('A' for Active; 'I' for Inactive)
REMARK    1  A    between atoms: C_1  and  C_2
REMARK    2  A    between atoms: C_10  and  C_11
REMARK    3  A    between atoms: C_15  and  C_17
REMARK    4  A    between atoms: N_19  and  C_20
REMARK    5  A    between atoms: C_23  and  C_24
REMARK                            x       y       z     vdW  Elec       q    Type
REMARK                         _______ _______ _______ _____ _____    ______ ____
ROOT
ATOM      1  C   UNL     1       0.380   9.969  19.758  0.00  0.00    +0.000 C 
ATOM      2  C   UNL     1       0.587   9.379  20.949  0.00  0.00    +0.000 C 
ATOM      3  C   UNL     1       1.412   8.142  21.164  0.00  0.00    +0.000 C 
ATOM      4  N   UNL     1       1.881   7.586  19.902  0.00  0.00    +0.000 N 
ATOM      5  C   UNL     1       2.152   6.219  19.840  0.00  0.00    +0.000 C 
ATOM      6  O   UNL     1       2.101   5.449  20.796  0.00  0.00    +0.000 OA
ATOM      7  C   UNL     1       2.221   8.550  18.854  0.00  0.00    +0.000 C 
ATOM      8  C   UNL     1       1.015   9.427  18.503  0.00  0.00    +0.000 C 
ENDROOT
BRANCH   1  18
ATOM      9  C   UNL     1      -2.287  10.245  18.027  0.00  0.00    +0.000 C 
ATOM     10  C   UNL     1      -1.553  11.250  18.840  0.00  0.00    +0.000 A 
ATOM     11  N   UNL     1      -2.006  12.543  18.954  0.00  0.00    +0.000 N 
ATOM     12  C   UNL     1      -1.166  13.287  19.750  0.00  0.00    +0.000 A 
ATOM     13  C   UNL     1      -1.249  14.629  20.137  0.00  0.00    +0.000 A 
ATOM     14  C   UNL     1      -0.232  15.131  20.954  0.00  0.00    +0.000 A 
ATOM     15  C   UNL     1       0.827  14.321  21.360  0.00  0.00    +0.000 A 
ATOM     16  C   UNL     1       0.888  12.979  20.970  0.00  0.00    +0.000 A 
ATOM     17  C   UNL     1      -0.130  12.445  20.146  0.00  0.00    +0.000 A 
ATOM     18  C   UNL     1      -0.394  11.159  19.587  0.00  0.00    +0.000 A 
ATOM     19  H   UNL     1      -2.843  12.907  18.516  0.00  0.00    +0.000 HD
ENDBRANCH   1  18
BRANCH   5  20
ATOM     20  C   UNL     1       2.548   5.626  18.478  0.00  0.00    +0.000 C 
ATOM     21  O   UNL     1       1.693   5.001  17.857  0.00  0.00    +0.000 OA
ATOM     22  N   UNL     1       3.871   5.840  18.132  0.00  0.00    +0.000 N 
ATOM     23  H   UNL     1       4.470   6.195  18.867  0.00  0.00    +0.000 HD
BRANCH  22  24
ATOM     24  C   UNL     1       4.473   5.373  16.940  0.00  0.00    +0.000 A 
ATOM     25  C   UNL     1       4.658   4.012  16.678  0.00  0.00    +0.000 A 
ATOM     26  C   UNL     1       5.339   3.578  15.538  0.00  0.00    +0.000 A 
ATOM     27  C   UNL     1       5.831   4.500  14.620  0.00  0.00    +0.000 A 
ATOM     28  C   UNL     1       5.606   5.864  14.837  0.00  0.00    +0.000 A 
ATOM     29  C   UNL     1       4.919   6.298  15.986  0.00  0.00    +0.000 A 
BRANCH  27  30
ATOM     30  C   UNL     1       6.572   4.044  13.473  0.00  0.00    +0.000 C 
ATOM     31  N   UNL     1       7.152   3.676  12.538  0.00  0.00    +0.000 NA
ENDBRANCH  27  30
ENDBRANCH  22  24
ENDBRANCH   5  20
TORSDOF 4
ENDMDL
MODEL 9
REMARK VINA RESULT:      -7.3      1.945     10.004
REMARK  Name = 
REMARK  5 active torsions:
REMARK  status: ('A' for Active; 'I' for Inactive)
REMARK    1  A    between atoms: C_1  and  C_2
REMARK    2  A    between atoms: C_10  and  C_11
REMARK    3  A    between atoms: C_15  and  C_17
REMARK    4  A    between atoms: N_19  and  C_20
REMARK    5  A    between atoms: C_23  and  C_24
REMARK                            x       y       z     vdW  Elec       q    Type
REMARK                         _______ _______ _______ _____ _____    ______ ____
ROOT
ATOM      1  C   UNL     1      -0.180  10.256  20.133  0.00  0.00    +0.000 C 
ATOM      2  C   UNL     1       0.045   9.619  21.297  0.00  0.00    +0.000 C 
ATOM      3  C   UNL     1       0.976   8.453  21.472  0.00  0.00    +0.000 C 
ATOM      4  N   UNL     1       1.534   8.017  20.200  0.00  0.00    +0.000 N 
ATOM      5  C   UNL     1       1.934   6.688  20.072  0.00  0.00    +0.000 C 
ATOM      6  O   UNL     1       1.926   5.861  20.980  0.00  0.00    +0.000 OA
ATOM      7  C   UNL     1       1.814   9.069  19.220  0.00  0.00    +0.000 C 
ATOM      8  C   UNL     1       0.542   9.850  18.875  0.00  0.00    +0.000 C 
ENDROOT
BRANCH   1  18
ATOM      9  C   UNL     1      -2.488  10.592  17.956  0.00  0.00    +0.000 C 
ATOM     10  C   UNL     1      -2.056  11.495  19.055  0.00  0.00    +0.000 A 
ATOM     11  N   UNL     1      -2.688  12.695  19.281  0.00  0.00    +0.000 N 
ATOM     12  C   UNL     1      -2.116  13.356  20.343  0.00  0.00    +0.000 A 
ATOM     13  C   UNL     1      -2.444  14.589  20.917  0.00  0.00    +0.000 A 
ATOM     14  C   UNL     1      -1.673  15.026  21.998  0.00  0.00    +0.000 A 
ATOM     15  C   UNL     1      -0.612  14.260  22.478  0.00  0.00    +0.000 A 
ATOM     16  C   UNL     1      -0.304  13.025  21.896  0.00  0.00    +0.000 A 
ATOM     17  C   UNL     1      -1.071  12.557  20.804  0.00  0.00    +0.000 A 
ATOM     18  C   UNL     1      -1.056  11.378  20.001  0.00  0.00    +0.000 A 
ATOM     19  H   UNL     1      -3.468  13.051  18.744  0.00  0.00    +0.000 HD
ENDBRANCH   1  18
BRANCH   5  20
ATOM     20  C   UNL     1       2.426   6.214  18.694  0.00  0.00    +0.000 C 
ATOM     21  O   UNL     1       1.591   6.079  17.805  0.00  0.00    +0.000 OA
ATOM     22  N   UNL     1       3.784   5.950  18.639  0.00  0.00    +0.000 N 
ATOM     23  H   UNL     1       4.266   5.921  19.530  0.00  0.00    +0.000 HD
BRANCH  22  24
ATOM     24  C   UNL     1       4.464   5.484  17.490  0.00  0.00    +0.000 A 
ATOM     25  C   UNL     1       4.901   6.346  16.478  0.00  0.00    +0.000 A 
ATOM     26  C   UNL     1       5.486   5.855  15.309  0.00  0.00    +0.000 A 
ATOM     27  C   UNL     1       5.669   4.486  15.136  0.00  0.00    +0.000 A 
ATOM     28  C   UNL     1       5.290   3.614  16.162  0.00  0.00    +0.000 A 
ATOM     29  C   UNL     1       4.701   4.112  17.339  0.00  0.00    +0.000 A 
BRANCH  27  30
ATOM     30  C   UNL     1       6.230   3.988  13.908  0.00  0.00    +0.000 C 
ATOM     31  N   UNL     1       6.697   3.600  12.918  0.00  0.00    +0.000 NA
ENDBRANCH  27  30
ENDBRANCH  22  24
ENDBRANCH   5  20
TORSDOF 4
ENDMDL
