MODEL 1
REMARK VINA RESULT:      -8.4      0.000      0.000
REMARK  Name = 
REMARK  7 active torsions:
REMARK  status: ('A' for Active; 'I' for Inactive)
REMARK    1  A    between atoms: C_1  and  C_2
REMARK    2  A    between atoms: C_2  and  C_3
REMARK    3  A    between atoms: N_7  and  C_8
REMARK    4  A    between atoms: C_12  and  C_13
REMARK    5  A    between atoms: C_13  and  C_14
REMARK    6  A    between atoms: C_14  and  C_15
REMARK    7  A    between atoms: N_19  and  C_20
REMARK                            x       y       z     vdW  Elec       q    Type
REMARK                         _______ _______ _______ _____ _____    ______ ____
ROOT
ATOM      1  C   UNL     1       2.786   5.657  18.305  0.00  0.00    +0.000 A 
ATOM      2  C   UNL     1       1.964   4.530  18.288  0.00  0.00    +0.000 A 
ATOM      3  C   UNL     1       2.341   3.393  17.581  0.00  0.00    +0.000 A 
ATOM      4  C   UNL     1       3.555   3.368  16.896  0.00  0.00    +0.000 A 
ATOM      5  C   UNL     1       4.422   4.477  16.879  0.00  0.00    +0.000 A 
ATOM      6  C   UNL     1       4.008   5.604  17.617  0.00  0.00    +0.000 A 
ENDROOT
BRANCH   1  11
ATOM      7  C   UNL     1       0.728   8.862  21.391  0.00  0.00    +0.000 C 
ATOM      8  C   UNL     1       1.310   8.390  20.278  0.00  0.00    +0.000 C 
ATOM      9  C   UNL     1       1.518   9.080  18.973  0.00  0.00    +0.000 C 
ATOM     10  C   UNL     1       2.413   8.124  18.204  0.00  0.00    +0.000 C 
ATOM     11  N   UNL     1       2.370   6.864  18.914  0.00  0.00    +0.000 N 
ATOM     12  C   UNL     1       1.803   6.988  20.180  0.00  0.00    +0.000 C 
ATOM     13  O   UNL     1       1.683   6.161  21.064  0.00  0.00    +0.000 OA
BRANCH   7  15
ATOM     14  C   UNL     1      -0.520  10.373  22.904  0.00  0.00    +0.000 C 
ATOM     15  C   UNL     1       0.105  10.218  21.528  0.00  0.00    +0.000 C 
ENDBRANCH   7  15
ENDBRANCH   1  11
BRANCH   5  16
ATOM     16  C   UNL     1       5.756   4.484  15.999  0.00  0.00    +0.000 C 
ATOM     17  C   UNL     1       5.826   5.571  14.892  0.00  0.00    +0.000 C 
ATOM     18  O   UNL     1       6.427   4.628  13.968  0.00  0.00    +0.000 OA
ATOM     19  C   UNL     1       5.907   3.532  14.776  0.00  0.00    +0.000 C 
BRANCH  16  20
ATOM     20  C   UNL     1       7.001   4.480  16.913  0.00  0.00    +0.000 C 
BRANCH  20  21
ATOM     21  C   UNL     1       7.434   5.853  17.321  0.00  0.00    +0.000 A 
ATOM     22  N   UNL     1       7.577   6.889  16.516  0.00  0.00    +0.000 NA
ATOM     23  N   UNL     1       7.940   7.977  17.272  0.00  0.00    +0.000 NA
ATOM     24  C   UNL     1       8.014   7.587  18.521  0.00  0.00    +0.000 A 
ATOM     25  N   UNL     1       7.734   6.257  18.599  0.00  0.00    +0.000 N 
ATOM     26  C   UNL     1       7.744   5.476  19.806  0.00  0.00    +0.000 C 
ENDBRANCH  20  21
ENDBRANCH  16  20
ENDBRANCH   5  16
TORSDOF 5
ENDMDL
MODEL 2
REMARK VINA RESULT:      -8.2      0.928      1.396
REMARK  Name = 
REMARK  7 active torsions:
REMARK  status: ('A' for Active; 'I' for Inactive)
REMARK    1  A    between atoms: C_1  and  C_2
REMARK    2  A    between atoms: C_2  and  C_3
REMARK    3  A    between atoms: N_7  and  C_8
REMARK    4  A    between atoms: C_12  and  C_13
REMARK    5  A    between atoms: C_13  and  C_14
REMARK    6  A    between atoms: C_14  and  C_15
REMARK    7  A    between atoms: N_19  and  C_20
REMARK                            x       y       z     vdW  Elec       q    Type
REMARK                         _______ _______ _______ _____ _____    ______ ____
ROOT
ATOM      1  C   UNL     1       2.713   6.181  18.139  0.00  0.00    +0.000 A 
ATOM      2  C   UNL     1       1.933   5.043  18.345  0.00  0.00    +0.000 A 
ATOM      3  C   UNL     1       2.300   3.825  17.781  0.00  0.00    +0.000 A 
ATOM      4  C   UNL     1       3.463   3.732  17.018  0.00  0.00    +0.000 A 
ATOM      5  C   UNL     1       4.286   4.849  16.778  0.00  0.00    +0.000 A 
ATOM      6  C   UNL     1       3.885   6.059  17.376  0.00  0.00    +0.000 A 
ENDROOT
BRANCH   1  11
ATOM      7  C   UNL     1       0.760   9.746  20.879  0.00  0.00    +0.000 C 
ATOM      8  C   UNL     1       1.281   9.134  19.805  0.00  0.00    +0.000 C 
ATOM      9  C   UNL     1       1.377   9.633  18.404  0.00  0.00    +0.000 C 
ATOM     10  C   UNL     1       2.249   8.598  17.716  0.00  0.00    +0.000 C 
ATOM     11  N   UNL     1       2.298   7.453  18.599  0.00  0.00    +0.000 N 
ATOM     12  C   UNL     1       1.815   7.745  19.872  0.00  0.00    +0.000 C 
ATOM     13  O   UNL     1       1.784   7.050  20.871  0.00  0.00    +0.000 OA
BRANCH   7  15
ATOM     14  C   UNL     1      -0.862  11.217  22.034  0.00  0.00    +0.000 C 
ATOM     15  C   UNL     1       0.102  11.092  20.867  0.00  0.00    +0.000 C 
ENDBRANCH   7  15
ENDBRANCH   1  11
BRANCH   5  16
ATOM     16  C   UNL     1       5.554   4.761  15.809  0.00  0.00    +0.000 C 
ATOM     17  C   UNL     1       5.235   4.610  14.296  0.00  0.00    +0.000 C 
ATOM     18  O   UNL     1       6.316   3.657  14.137  0.00  0.00    +0.000 OA
ATOM     19  C   UNL     1       6.282   3.405  15.572  0.00  0.00    +0.000 C 
BRANCH  16  20
ATOM     20  C   UNL     1       6.533   5.919  16.101  0.00  0.00    +0.000 C 
BRANCH  20  21
ATOM     21  C   UNL     1       7.151   5.837  17.461  0.00  0.00    +0.000 A 
ATOM     22  N   UNL     1       7.264   4.746  18.194  0.00  0.00    +0.000 NA
ATOM     23  N   UNL     1       7.929   5.069  19.352  0.00  0.00    +0.000 NA
ATOM     24  C   UNL     1       8.209   6.349  19.306  0.00  0.00    +0.000 A 
ATOM     25  N   UNL     1       7.716   6.881  18.153  0.00  0.00    +0.000 N 
ATOM     26  C   UNL     1       7.810   8.263  17.770  0.00  0.00    +0.000 C 
ENDBRANCH  20  21
ENDBRANCH  16  20
ENDBRANCH   5  16
TORSDOF 5
ENDMDL
MODEL 3
REMARK VINA RESULT:      -8.1      2.268      3.684
REMARK  Name = 
REMARK  7 active torsions:
REMARK  status: ('A' for Active; 'I' for Inactive)
REMARK    1  A    between atoms: C_1  and  C_2
REMARK    2  A    between atoms: C_2  and  C_3
REMARK    3  A    between atoms: N_7  and  C_8
REMARK    4  A    between atoms: C_12  and  C_13
REMARK    5  A    between atoms: C_13  and  C_14
REMARK    6  A    between atoms: C_14  and  C_15
REMARK    7  A    between atoms: N_19  and  C_20
REMARK                            x       y       z     vdW  Elec       q    Type
REMARK                         _______ _______ _______ _____ _____    ______ ____
ROOT
ATOM      1  C   UNL     1       2.078   7.816  19.095  0.00  0.00    +0.000 A 
ATOM      2  C   UNL     1       2.748   8.409  18.025  0.00  0.00    +0.000 A 
ATOM      3  C   UNL     1       3.548   7.644  17.182  0.00  0.00    +0.000 A 
ATOM      4  C   UNL     1       3.670   6.272  17.393  0.00  0.00    +0.000 A 
ATOM      5  C   UNL     1       3.017   5.622  18.458  0.00  0.00    +0.000 A 
ATOM      6  C   UNL     1       2.208   6.430  19.281  0.00  0.00    +0.000 A 
ENDROOT
BRANCH   1  11
ATOM      7  C   UNL     1      -0.450  11.459  21.186  0.00  0.00    +0.000 C 
ATOM      8  C   UNL     1       0.277  10.336  21.083  0.00  0.00    +0.000 C 
ATOM      9  C   UNL     1       0.889   9.520  22.170  0.00  0.00    +0.000 C 
ATOM     10  C   UNL     1       1.382   8.278  21.448  0.00  0.00    +0.000 C 
ATOM     11  N   UNL     1       1.359   8.590  20.036  0.00  0.00    +0.000 N 
ATOM     12  C   UNL     1       0.644   9.753  19.762  0.00  0.00    +0.000 C 
ATOM     13  O   UNL     1       0.360  10.259  18.692  0.00  0.00    +0.000 OA
BRANCH   7  15
ATOM     14  C   UNL     1      -2.011  11.579  23.105  0.00  0.00    +0.000 C 
ATOM     15  C   UNL     1      -0.762  12.167  22.470  0.00  0.00    +0.000 C 
ENDBRANCH   7  15
ENDBRANCH   1  11
BRANCH   5  16
ATOM     16  C   UNL     1       3.252   4.071  18.763  0.00  0.00    +0.000 C 
ATOM     17  C   UNL     1       2.053   3.135  18.448  0.00  0.00    +0.000 C 
ATOM     18  O   UNL     1       2.298   2.372  19.657  0.00  0.00    +0.000 OA
ATOM     19  C   UNL     1       3.044   3.501  20.197  0.00  0.00    +0.000 C 
BRANCH  16  20
ATOM     20  C   UNL     1       4.571   3.592  18.118  0.00  0.00    +0.000 C 
BRANCH  20  21
ATOM     21  C   UNL     1       5.762   4.380  18.562  0.00  0.00    +0.000 A 
ATOM     22  N   UNL     1       6.008   4.780  19.794  0.00  0.00    +0.000 NA
ATOM     23  N   UNL     1       7.218   5.431  19.805  0.00  0.00    +0.000 NA
ATOM     24  C   UNL     1       7.688   5.417  18.582  0.00  0.00    +0.000 A 
ATOM     25  N   UNL     1       6.798   4.795  17.760  0.00  0.00    +0.000 N 
ATOM     26  C   UNL     1       6.962   4.615  16.343  0.00  0.00    +0.000 C 
ENDBRANCH  20  21
ENDBRANCH  16  20
ENDBRANCH   5  16
TORSDOF 5
ENDMDL
MODEL 4
REMARK VINA RESULT:      -8.0      1.727      2.947
REMARK  Name = 
REMARK  7 active torsions:
REMARK  status: ('A' for Active; 'I' for Inactive)
REMARK    1  A    between atoms: C_1  and  C_2
REMARK    2  A    between atoms: C_2  and  C_3
REMARK    3  A    between atoms: N_7  and  C_8
REMARK    4  A    between atoms: C_12  and  C_13
REMARK    5  A    between atoms: C_13  and  C_14
REMARK    6  A    between atoms: C_14  and  C_15
REMARK    7  A    between atoms: N_19  and  C_20
REMARK                            x       y       z     vdW  Elec       q    Type
REMARK                         _______ _______ _______ _____ _____    ______ ____
ROOT
ATOM      1  C   UNL     1       2.676   6.139  18.352  0.00  0.00    +0.000 A 
ATOM      2  C   UNL     1       1.808   5.089  18.054  0.00  0.00    +0.000 A 
ATOM      3  C   UNL     1       2.274   3.954  17.397  0.00  0.00    +0.000 A 
ATOM      4  C   UNL     1       3.620   3.854  17.048  0.00  0.00    +0.000 A 
ATOM      5  C   UNL     1       4.539   4.884  17.325  0.00  0.00    +0.000 A 
ATOM      6  C   UNL     1       4.029   6.010  18.000  0.00  0.00    +0.000 A 
ENDROOT
BRANCH   1  11
ATOM      7  C   UNL     1       0.536   9.384  21.339  0.00  0.00    +0.000 C 
ATOM      8  C   UNL     1       1.100   8.884  20.229  0.00  0.00    +0.000 C 
ATOM      9  C   UNL     1       1.201   9.504  18.877  0.00  0.00    +0.000 C 
ATOM     10  C   UNL     1       2.126   8.564  18.124  0.00  0.00    +0.000 C 
ATOM     11  N   UNL     1       2.203   7.351  18.908  0.00  0.00    +0.000 N 
ATOM     12  C   UNL     1       1.686   7.516  20.190  0.00  0.00    +0.000 C 
ATOM     13  O   UNL     1       1.664   6.739  21.127  0.00  0.00    +0.000 OA
BRANCH   7  15
ATOM     14  C   UNL     1      -0.820  10.861  22.792  0.00  0.00    +0.000 C 
ATOM     15  C   UNL     1      -0.174  10.701  21.426  0.00  0.00    +0.000 C 
ENDBRANCH   7  15
ENDBRANCH   1  11
BRANCH   5  16
ATOM     16  C   UNL     1       6.054   4.813  16.820  0.00  0.00    +0.000 C 
ATOM     17  C   UNL     1       7.112   4.502  17.914  0.00  0.00    +0.000 C 
ATOM     18  O   UNL     1       8.028   5.468  17.339  0.00  0.00    +0.000 OA
ATOM     19  C   UNL     1       6.904   6.108  16.668  0.00  0.00    +0.000 C 
BRANCH  16  20
ATOM     20  C   UNL     1       6.168   3.879  15.596  0.00  0.00    +0.000 C 
BRANCH  20  21
ATOM     21  C   UNL     1       6.857   4.518  14.432  0.00  0.00    +0.000 A 
ATOM     22  N   UNL     1       7.785   5.453  14.502  0.00  0.00    +0.000 NA
ATOM     23  N   UNL     1       8.204   5.744  13.226  0.00  0.00    +0.000 NA
ATOM     24  C   UNL     1       7.525   4.984  12.402  0.00  0.00    +0.000 A 
ATOM     25  N   UNL     1       6.647   4.219  13.108  0.00  0.00    +0.000 N 
ATOM     26  C   UNL     1       5.717   3.282  12.537  0.00  0.00    +0.000 C 
ENDBRANCH  20  21
ENDBRANCH  16  20
ENDBRANCH   5  16
TORSDOF 5
ENDMDL
MODEL 5
REMARK VINA RESULT:      -7.9      1.494      1.871
REMARK  Name = 
REMARK  7 active torsions:
REMARK  status: ('A' for Active; 'I' for Inactive)
REMARK    1  A    between atoms: C_1  and  C_2
REMARK    2  A    between atoms: C_2  and  C_3
REMARK    3  A    between atoms: N_7  and  C_8
REMARK    4  A    between atoms: C_12  and  C_13
REMARK    5  A    between atoms: C_13  and  C_14
REMARK    6  A    between atoms: C_14  and  C_15
REMARK    7  A    between atoms: N_19  and  C_20
REMARK                            x       y       z     vdW  Elec       q    Type
REMARK                         _______ _______ _______ _____ _____    ______ ____
ROOT
ATOM      1  C   UNL     1       3.083   5.986  19.190  0.00  0.00    +0.000 A 
ATOM      2  C   UNL     1       2.929   4.881  20.026  0.00  0.00    +0.000 A 
ATOM      3  C   UNL     1       3.637   3.708  19.783  0.00  0.00    +0.000 A 
ATOM      4  C   UNL     1       4.520   3.638  18.707  0.00  0.00    +0.000 A 
ATOM      5  C   UNL     1       4.713   4.723  17.831  0.00  0.00    +0.000 A 
ATOM      6  C   UNL     1       3.987   5.895  18.120  0.00  0.00    +0.000 A 
ENDROOT
BRANCH   1  11
ATOM      7  C   UNL     1       1.107  10.420  18.502  0.00  0.00    +0.000 C 
ATOM      8  C   UNL     1       1.427   9.272  19.119  0.00  0.00    +0.000 C 
ATOM      9  C   UNL     1       1.203   8.886  20.541  0.00  0.00    +0.000 C 
ATOM     10  C   UNL     1       1.571   7.413  20.573  0.00  0.00    +0.000 C 
ATOM     11  N   UNL     1       2.285   7.145  19.344  0.00  0.00    +0.000 N 
ATOM     12  C   UNL     1       2.159   8.179  18.420  0.00  0.00    +0.000 C 
ATOM     13  O   UNL     1       2.557   8.251  17.272  0.00  0.00    +0.000 OA
BRANCH   7  15
ATOM     14  C   UNL     1      -1.038  11.510  19.086  0.00  0.00    +0.000 C 
ATOM     15  C   UNL     1       0.477  11.606  19.165  0.00  0.00    +0.000 C 
ENDBRANCH   7  15
ENDBRANCH   1  11
BRANCH   5  16
ATOM     16  C   UNL     1       5.640   4.598  16.534  0.00  0.00    +0.000 C 
ATOM     17  C   UNL     1       5.276   5.542  15.355  0.00  0.00    +0.000 C 
ATOM     18  O   UNL     1       5.529   4.484  14.396  0.00  0.00    +0.000 OA
ATOM     19  C   UNL     1       5.364   3.503  15.463  0.00  0.00    +0.000 C 
BRANCH  16  20
ATOM     20  C   UNL     1       7.130   4.683  16.930  0.00  0.00    +0.000 C 
BRANCH  20  21
ATOM     21  C   UNL     1       7.546   6.052  17.364  0.00  0.00    +0.000 A 
ATOM     22  N   UNL     1       7.632   7.116  16.588  0.00  0.00    +0.000 NA
ATOM     23  N   UNL     1       7.999   8.189  17.364  0.00  0.00    +0.000 NA
ATOM     24  C   UNL     1       8.132   7.763  18.595  0.00  0.00    +0.000 A 
ATOM     25  N   UNL     1       7.888   6.424  18.642  0.00  0.00    +0.000 N 
ATOM     26  C   UNL     1       7.964   5.606  19.822  0.00  0.00    +0.000 C 
ENDBRANCH  20  21
ENDBRANCH  16  20
ENDBRANCH   5  16
TORSDOF 5
ENDMDL
MODEL 6
REMARK VINA RESULT:      -7.9      2.204      3.341
REMARK  Name = 
REMARK  7 active torsions:
REMARK  status: ('A' for Active; 'I' for Inactive)
REMARK    1  A    between atoms: C_1  and  C_2
REMARK    2  A    between atoms: C_2  and  C_3
REMARK    3  A    between atoms: N_7  and  C_8
REMARK    4  A    between atoms: C_12  and  C_13
REMARK    5  A    between atoms: C_13  and  C_14
REMARK    6  A    between atoms: C_14  and  C_15
REMARK    7  A    between atoms: N_19  and  C_20
REMARK                            x       y       z     vdW  Elec       q    Type
REMARK                         _______ _______ _______ _____ _____    ______ ____
ROOT
ATOM      1  C   UNL     1       3.045   6.134  19.635  0.00  0.00    +0.000 A 
ATOM      2  C   UNL     1       2.620   4.825  19.864  0.00  0.00    +0.000 A 
ATOM      3  C   UNL     1       3.491   3.757  19.673  0.00  0.00    +0.000 A 
ATOM      4  C   UNL     1       4.803   3.992  19.267  0.00  0.00    +0.000 A 
ATOM      5  C   UNL     1       5.284   5.292  19.021  0.00  0.00    +0.000 A 
ATOM      6  C   UNL     1       4.375   6.345  19.237  0.00  0.00    +0.000 A 
ENDROOT
BRANCH   1  11
ATOM      7  C   UNL     1       0.726  10.341  18.659  0.00  0.00    +0.000 C 
ATOM      8  C   UNL     1       1.118   9.256  19.343  0.00  0.00    +0.000 C 
ATOM      9  C   UNL     1       0.874   8.919  20.774  0.00  0.00    +0.000 C 
ATOM     10  C   UNL     1       1.365   7.487  20.892  0.00  0.00    +0.000 C 
ATOM     11  N   UNL     1       2.146   7.224  19.704  0.00  0.00    +0.000 N 
ATOM     12  C   UNL     1       1.967   8.199  18.726  0.00  0.00    +0.000 C 
ATOM     13  O   UNL     1       2.401   8.252  17.590  0.00  0.00    +0.000 OA
BRANCH   7  15
ATOM     14  C   UNL     1      -1.525  11.279  19.089  0.00  0.00    +0.000 C 
ATOM     15  C   UNL     1      -0.029  11.498  19.240  0.00  0.00    +0.000 C 
ENDBRANCH   7  15
ENDBRANCH   1  11
BRANCH   5  16
ATOM     16  C   UNL     1       6.754   5.546  18.446  0.00  0.00    +0.000 C 
ATOM     17  C   UNL     1       7.833   5.916  19.500  0.00  0.00    +0.000 C 
ATOM     18  O   UNL     1       8.408   6.901  18.605  0.00  0.00    +0.000 OA
ATOM     19  C   UNL     1       7.152   6.935  17.866  0.00  0.00    +0.000 C 
BRANCH  16  20
ATOM     20  C   UNL     1       7.183   4.376  17.536  0.00  0.00    +0.000 C 
BRANCH  20  21
ATOM     21  C   UNL     1       6.850   4.599  16.094  0.00  0.00    +0.000 A 
ATOM     22  N   UNL     1       7.641   5.153  15.196  0.00  0.00    +0.000 NA
ATOM     23  N   UNL     1       6.997   5.135  13.982  0.00  0.00    +0.000 NA
ATOM     24  C   UNL     1       5.826   4.575  14.162  0.00  0.00    +0.000 A 
ATOM     25  N   UNL     1       5.675   4.248  15.475  0.00  0.00    +0.000 N 
ATOM     26  C   UNL     1       4.507   3.638  16.050  0.00  0.00    +0.000 C 
ENDBRANCH  20  21
ENDBRANCH  16  20
ENDBRANCH   5  16
TORSDOF 5
ENDMDL
MODEL 7
REMARK VINA RESULT:      -7.8      2.175      3.313
REMARK  Name = 
REMARK  7 active torsions:
REMARK  status: ('A' for Active; 'I' for Inactive)
REMARK    1  A    between atoms: C_1  and  C_2
REMARK    2  A    between atoms: C_2  and  C_3
REMARK    3  A    between atoms: N_7  and  C_8
REMARK    4  A    between atoms: C_12  and  C_13
REMARK    5  A    between atoms: C_13  and  C_14
REMARK    6  A    between atoms: C_14  and  C_15
REMARK    7  A    between atoms: N_19  and  C_20
REMARK                            x       y       z     vdW  Elec       q    Type
REMARK                         _______ _______ _______ _____ _____    ______ ____
ROOT
ATOM      1  C   UNL     1       2.715   6.506  18.262  0.00  0.00    +0.000 A 
ATOM      2  C   UNL     1       1.942   5.345  18.284  0.00  0.00    +0.000 A 
ATOM      3  C   UNL     1       2.426   4.165  17.729  0.00  0.00    +0.000 A 
ATOM      4  C   UNL     1       3.698   4.132  17.161  0.00  0.00    +0.000 A 
ATOM      5  C   UNL     1       4.520   5.274  17.112  0.00  0.00    +0.000 A 
ATOM      6  C   UNL     1       3.998   6.445  17.694  0.00  0.00    +0.000 A 
ENDROOT
BRANCH   1  11
ATOM      7  C   UNL     1       0.410   9.916  20.925  0.00  0.00    +0.000 C 
ATOM      8  C   UNL     1       1.020   9.347  19.874  0.00  0.00    +0.000 C 
ATOM      9  C   UNL     1       1.151   9.864  18.483  0.00  0.00    +0.000 C 
ATOM     10  C   UNL     1       2.120   8.893  17.832  0.00  0.00    +0.000 C 
ATOM     11  N   UNL     1       2.198   7.745  18.709  0.00  0.00    +0.000 N 
ATOM     12  C   UNL     1       1.637   7.994  19.958  0.00  0.00    +0.000 C 
ATOM     13  O   UNL     1       1.602   7.290  20.951  0.00  0.00    +0.000 OA
BRANCH   7  15
ATOM     14  C   UNL     1       0.641  12.379  21.017  0.00  0.00    +0.000 C 
ATOM     15  C   UNL     1      -0.330  11.218  20.889  0.00  0.00    +0.000 C 
ENDBRANCH   7  15
ENDBRANCH   1  11
BRANCH   5  16
ATOM     16  C   UNL     1       5.930   5.259  16.358  0.00  0.00    +0.000 C 
ATOM     17  C   UNL     1       6.699   3.910  16.399  0.00  0.00    +0.000 C 
ATOM     18  O   UNL     1       7.957   4.604  16.601  0.00  0.00    +0.000 OA
ATOM     19  C   UNL     1       7.218   5.770  17.069  0.00  0.00    +0.000 C 
BRANCH  16  20
ATOM     20  C   UNL     1       5.779   5.818  14.927  0.00  0.00    +0.000 C 
BRANCH  20  21
ATOM     21  C   UNL     1       5.986   4.783  13.867  0.00  0.00    +0.000 A 
ATOM     22  N   UNL     1       5.144   3.817  13.555  0.00  0.00    +0.000 NA
ATOM     23  N   UNL     1       5.669   3.107  12.502  0.00  0.00    +0.000 NA
ATOM     24  C   UNL     1       6.821   3.650  12.193  0.00  0.00    +0.000 A 
ATOM     25  N   UNL     1       7.077   4.686  13.038  0.00  0.00    +0.000 N 
ATOM     26  C   UNL     1       8.261   5.502  13.017  0.00  0.00    +0.000 C 
ENDBRANCH  20  21
ENDBRANCH  16  20
ENDBRANCH   5  16
TORSDOF 5
ENDMDL
MODEL 8
REMARK VINA RESULT:      -7.8      2.619      8.054
REMARK  Name = 
REMARK  7 active torsions:
REMARK  status: ('A' for Active; 'I' for Inactive)
REMARK    1  A    between atoms: C_1  and  C_2
REMARK    2  A    between atoms: C_2  and  C_3
REMARK    3  A    between atoms: N_7  and  C_8
REMARK    4  A    between atoms: C_12  and  C_13
REMARK    5  A    between atoms: C_13  and  C_14
REMARK    6  A    between atoms: C_14  and  C_15
REMARK    7  A    between atoms: N_19  and  C_20
REMARK                            x       y       z     vdW  Elec       q    Type
REMARK                         _______ _______ _______ _____ _____    ______ ____
ROOT
ATOM      1  C   UNL     1       2.928   5.841  18.788  0.00  0.00    +0.000 A 
ATOM      2  C   UNL     1       2.775   4.738  19.629  0.00  0.00    +0.000 A 
ATOM      3  C   UNL     1       2.064   4.852  20.820  0.00  0.00    +0.000 A 
ATOM      4  C   UNL     1       1.483   6.070  21.171  0.00  0.00    +0.000 A 
ATOM      5  C   UNL     1       1.606   7.214  20.359  0.00  0.00    +0.000 A 
ATOM      6  C   UNL     1       2.324   7.053  19.158  0.00  0.00    +0.000 A 
ENDROOT
BRANCH   1  11
ATOM      7  C   UNL     1       5.588   4.153  15.033  0.00  0.00    +0.000 C 
ATOM      8  C   UNL     1       5.104   5.018  15.937  0.00  0.00    +0.000 C 
ATOM      9  C   UNL     1       5.552   6.409  16.227  0.00  0.00    +0.000 C 
ATOM     10  C   UNL     1       4.490   6.935  17.177  0.00  0.00    +0.000 C 
ATOM     11  N   UNL     1       3.747   5.782  17.636  0.00  0.00    +0.000 N 
ATOM     12  C   UNL     1       4.013   4.644  16.879  0.00  0.00    +0.000 C 
ATOM     13  O   UNL     1       3.512   3.536  16.936  0.00  0.00    +0.000 OA
BRANCH   7  15
ATOM     14  C   UNL     1       6.508   3.811  12.759  0.00  0.00    +0.000 C 
ATOM     15  C   UNL     1       6.756   4.415  14.131  0.00  0.00    +0.000 C 
ENDBRANCH   7  15
ENDBRANCH   1  11
BRANCH   5  16
ATOM     16  C   UNL     1       1.036   8.634  20.822  0.00  0.00    +0.000 C 
ATOM     17  C   UNL     1       1.536   9.141  22.203  0.00  0.00    +0.000 C 
ATOM     18  O   UNL     1       0.213   9.637  22.529  0.00  0.00    +0.000 OA
ATOM     19  C   UNL     1      -0.350   8.745  21.522  0.00  0.00    +0.000 C 
BRANCH  16  20
ATOM     20  C   UNL     1       1.221   9.678  19.699  0.00  0.00    +0.000 C 
BRANCH  20  21
ATOM     21  C   UNL     1      -0.026  10.450  19.404  0.00  0.00    +0.000 A 
ATOM     22  N   UNL     1      -1.032  10.036  18.659  0.00  0.00    +0.000 NA
ATOM     23  N   UNL     1      -2.006  11.006  18.670  0.00  0.00    +0.000 NA
ATOM     24  C   UNL     1      -1.576  11.993  19.417  0.00  0.00    +0.000 A 
ATOM     25  N   UNL     1      -0.327  11.704  19.877  0.00  0.00    +0.000 N 
ATOM     26  C   UNL     1       0.471  12.565  20.707  0.00  0.00    +0.000 C 
ENDBRANCH  20  21
ENDBRANCH  16  20
ENDBRANCH   5  16
TORSDOF 5
ENDMDL
MODEL 9
REMARK VINA RESULT:      -7.7      2.253      3.755
REMARK  Name = 
REMARK  7 active torsions:
REMARK  status: ('A' for Active; 'I' for Inactive)
REMARK    1  A    between atoms: C_1  and  C_2
REMARK    2  A    between atoms: C_2  and  C_3
REMARK    3  A    between atoms: N_7  and  C_8
REMARK    4  A    between atoms: C_12  and  C_13
REMARK    5  A    between atoms: C_13  and  C_14
REMARK    6  A    between atoms: C_14  and  C_15
REMARK    7  A    between atoms: N_19  and  C_20
REMARK                            x       y       z     vdW  Elec       q    Type
REMARK                         _______ _______ _______ _____ _____    ______ ____
ROOT
ATOM      1  C   UNL     1       1.941   8.229  18.893  0.00  0.00    +0.000 A 
ATOM      2  C   UNL     1       2.731   8.683  17.836  0.00  0.00    +0.000 A 
ATOM      3  C   UNL     1       3.579   7.809  17.163  0.00  0.00    +0.000 A 
ATOM      4  C   UNL     1       3.631   6.465  17.532  0.00  0.00    +0.000 A 
ATOM      5  C   UNL     1       2.856   5.955  18.591  0.00  0.00    +0.000 A 
ATOM      6  C   UNL     1       2.003   6.869  19.238  0.00  0.00    +0.000 A 
ENDROOT
BRANCH   1  11
ATOM      7  C   UNL     1      -0.402  10.314  22.660  0.00  0.00    +0.000 C 
ATOM      8  C   UNL     1      -0.048  10.057  21.392  0.00  0.00    +0.000 C 
ATOM      9  C   UNL     1      -0.666  10.560  20.133  0.00  0.00    +0.000 C 
ATOM     10  C   UNL     1       0.301  10.104  19.054  0.00  0.00    +0.000 C 
ATOM     11  N   UNL     1       1.164   9.120  19.669  0.00  0.00    +0.000 N 
ATOM     12  C   UNL     1       1.056   9.114  21.057  0.00  0.00    +0.000 C 
ATOM     13  O   UNL     1       1.685   8.480  21.885  0.00  0.00    +0.000 OA
BRANCH   7  15
ATOM     14  C   UNL     1      -1.197  12.630  23.030  0.00  0.00    +0.000 C 
ATOM     15  C   UNL     1      -1.570  11.157  23.073  0.00  0.00    +0.000 C 
ENDBRANCH   7  15
ENDBRANCH   1  11
BRANCH   5  16
ATOM     16  C   UNL     1       3.005   4.441  19.083  0.00  0.00    +0.000 C 
ATOM     17  C   UNL     1       1.710   3.585  19.026  0.00  0.00    +0.000 C 
ATOM     18  O   UNL     1       2.031   2.967  20.298  0.00  0.00    +0.000 OA
ATOM     19  C   UNL     1       2.919   4.084  20.597  0.00  0.00    +0.000 C 
BRANCH  16  20
ATOM     20  C   UNL     1       4.202   3.764  18.380  0.00  0.00    +0.000 C 
BRANCH  20  21
ATOM     21  C   UNL     1       5.509   4.427  18.676  0.00  0.00    +0.000 A 
ATOM     22  N   UNL     1       5.897   4.880  19.853  0.00  0.00    +0.000 NA
ATOM     23  N   UNL     1       7.173   5.374  19.728  0.00  0.00    +0.000 NA
ATOM     24  C   UNL     1       7.540   5.216  18.480  0.00  0.00    +0.000 A 
ATOM     25  N   UNL     1       6.521   4.653  17.774  0.00  0.00    +0.000 N 
ATOM     26  C   UNL     1       6.550   4.354  16.368  0.00  0.00    +0.000 C 
ENDBRANCH  20  21
ENDBRANCH  16  20
ENDBRANCH   5  16
TORSDOF 5
ENDMDL
