MODEL 1
REMARK VINA RESULT:      -8.8      0.000      0.000
REMARK  Name = 
REMARK  4 active torsions:
REMARK  status: ('A' for Active; 'I' for Inactive)
REMARK    1  A    between atoms: C_2  and  C_18
REMARK    2  A    between atoms: N_3  and  C_4
REMARK    3  A    between atoms: C_8  and  C_9
REMARK    4  A    between atoms: C_11  and  C_12
REMARK                            x       y       z     vdW  Elec       q    Type
REMARK                         _______ _______ _______ _____ _____    ______ ____
ROOT
ATOM      1  C   UNL     1       6.499   6.357  16.648  0.00  0.00    +0.000 A 
ATOM      2  C   UNL     1       7.074   5.457  15.752  0.00  0.00    +0.000 A 
ATOM      3  C   UNL     1       6.446   4.251  15.448  0.00  0.00    +0.000 A 
ATOM      4  C   UNL     1       5.238   3.918  16.058  0.00  0.00    +0.000 A 
ATOM      5  C   UNL     1       4.659   4.782  16.998  0.00  0.00    +0.000 A 
ATOM      6  C   UNL     1       5.301   6.004  17.279  0.00  0.00    +0.000 A 
ENDROOT
BRANCH   5   7
ATOM      7  C   UNL     1       3.423   4.440  17.701  0.00  0.00    +0.000 A 
ATOM      8  N   UNL     1       3.200   4.523  19.000  0.00  0.00    +0.000 NA
ATOM      9  C   UNL     1       1.929   4.031  19.149  0.00  0.00    +0.000 A 
ATOM     10  N   UNL     1       1.335   3.662  18.011  0.00  0.00    +0.000 NA
ATOM     11  N   UNL     1       2.295   3.929  17.115  0.00  0.00    +0.000 N 
ATOM     12  H   UNL     1       2.126   3.720  16.140  0.00  0.00    +0.000 HD
BRANCH   9  13
ATOM     13  C   UNL     1       1.245   3.887  20.495  0.00  0.00    +0.000 C 
ATOM     14  C   UNL     1       2.104   3.711  21.730  0.00  0.00    +0.000 C 
ATOM     15  C   UNL     1       1.334   2.549  21.204  0.00  0.00    +0.000 C 
ENDBRANCH   9  13
ENDBRANCH   5   7
BRANCH   1  18
ATOM     16  O   UNL     1       8.360   7.033  18.814  0.00  0.00    +0.000 OA
ATOM     17  C   UNL     1       7.921   7.865  18.023  0.00  0.00    +0.000 C 
ATOM     18  N   UNL     1       7.072   7.615  16.961  0.00  0.00    +0.000 N 
ATOM     19  H   UNL     1       6.935   8.350  16.278  0.00  0.00    +0.000 HD
BRANCH  17  20
ATOM     20  C   UNL     1       8.384   9.266  18.195  0.00  0.00    +0.000 A 
ATOM     21  C   UNL     1       9.276   9.521  19.253  0.00  0.00    +0.000 A 
ATOM     22  C   UNL     1       9.666  10.819  19.595  0.00  0.00    +0.000 A 
ATOM     23  C   UNL     1       9.115  11.839  18.825  0.00  0.00    +0.000 A 
ATOM     24  N   UNL     1       9.187  13.203  18.893  0.00  0.00    +0.000 N 
ATOM     25  N   UNL     1       8.497  13.789  17.903  0.00  0.00    +0.000 NA
ATOM     26  N   UNL     1       7.920  12.826  17.194  0.00  0.00    +0.000 NA
ATOM     27  C   UNL     1       8.265  11.622  17.748  0.00  0.00    +0.000 A 
ATOM     28  C   UNL     1       7.878  10.317  17.413  0.00  0.00    +0.000 A 
ATOM     29  H   UNL     1       9.650  13.785  19.580  0.00  0.00    +0.000 HD
ENDBRANCH  17  20
ENDBRANCH   1  18
TORSDOF 4
ENDMDL
MODEL 2
REMARK VINA RESULT:      -8.6      0.669      1.428
REMARK  Name = 
REMARK  4 active torsions:
REMARK  status: ('A' for Active; 'I' for Inactive)
REMARK    1  A    between atoms: C_2  and  C_18
REMARK    2  A    between atoms: N_3  and  C_4
REMARK    3  A    between atoms: C_8  and  C_9
REMARK    4  A    between atoms: C_11  and  C_12
REMARK                            x       y       z     vdW  Elec       q    Type
REMARK                         _______ _______ _______ _____ _____    ______ ____
ROOT
ATOM      1  C   UNL     1       6.547   6.420  16.647  0.00  0.00    +0.000 A 
ATOM      2  C   UNL     1       7.153   5.577  15.716  0.00  0.00    +0.000 A 
ATOM      3  C   UNL     1       6.562   4.367  15.356  0.00  0.00    +0.000 A 
ATOM      4  C   UNL     1       5.362   3.973  15.946  0.00  0.00    +0.000 A 
ATOM      5  C   UNL     1       4.753   4.778  16.918  0.00  0.00    +0.000 A 
ATOM      6  C   UNL     1       5.357   6.004  17.256  0.00  0.00    +0.000 A 
ENDROOT
BRANCH   5   7
ATOM      7  C   UNL     1       3.525   4.370  17.600  0.00  0.00    +0.000 A 
ATOM      8  N   UNL     1       3.191   4.622  18.852  0.00  0.00    +0.000 NA
ATOM      9  C   UNL     1       1.993   3.975  19.011  0.00  0.00    +0.000 A 
ATOM     10  N   UNL     1       1.548   3.345  17.921  0.00  0.00    +0.000 NA
ATOM     11  N   UNL     1       2.529   3.608  17.047  0.00  0.00    +0.000 N 
ATOM     12  H   UNL     1       2.470   3.224  16.113  0.00  0.00    +0.000 HD
BRANCH   9  13
ATOM     13  C   UNL     1       1.231   3.945  20.323  0.00  0.00    +0.000 C 
ATOM     14  C   UNL     1       2.015   3.853  21.615  0.00  0.00    +0.000 C 
ATOM     15  C   UNL     1       1.255   2.665  21.136  0.00  0.00    +0.000 C 
ENDBRANCH   9  13
ENDBRANCH   5   7
BRANCH   1  18
ATOM     16  O   UNL     1       8.417   7.048  18.819  0.00  0.00    +0.000 OA
ATOM     17  C   UNL     1       7.938   7.904  18.078  0.00  0.00    +0.000 C 
ATOM     18  N   UNL     1       7.081   7.679  17.016  0.00  0.00    +0.000 N 
ATOM     19  H   UNL     1       6.909   8.443  16.375  0.00  0.00    +0.000 HD
BRANCH  17  20
ATOM     20  C   UNL     1       8.355   9.310  18.317  0.00  0.00    +0.000 A 
ATOM     21  C   UNL     1       7.858  10.285  17.433  0.00  0.00    +0.000 A 
ATOM     22  C   UNL     1       8.292  11.613  17.476  0.00  0.00    +0.000 A 
ATOM     23  C   UNL     1       9.247  11.906  18.445  0.00  0.00    +0.000 A 
ATOM     24  N   UNL     1       9.956  13.036  18.746  0.00  0.00    +0.000 N 
ATOM     25  N   UNL     1      10.763  12.852  19.802  0.00  0.00    +0.000 NA
ATOM     26  N   UNL     1      10.637  11.588  20.187  0.00  0.00    +0.000 NA
ATOM     27  C   UNL     1       9.730  10.979  19.361  0.00  0.00    +0.000 A 
ATOM     28  C   UNL     1       9.288   9.649  19.309  0.00  0.00    +0.000 A 
ATOM     29  H   UNL     1       9.962  13.931  18.273  0.00  0.00    +0.000 HD
ENDBRANCH  17  20
ENDBRANCH   1  18
TORSDOF 4
ENDMDL
MODEL 3
REMARK VINA RESULT:      -8.5      1.015      1.365
REMARK  Name = 
REMARK  4 active torsions:
REMARK  status: ('A' for Active; 'I' for Inactive)
REMARK    1  A    between atoms: C_2  and  C_18
REMARK    2  A    between atoms: N_3  and  C_4
REMARK    3  A    between atoms: C_8  and  C_9
REMARK    4  A    between atoms: C_11  and  C_12
REMARK                            x       y       z     vdW  Elec       q    Type
REMARK                         _______ _______ _______ _____ _____    ______ ____
ROOT
ATOM      1  C   UNL     1       6.490   6.417  16.545  0.00  0.00    +0.000 A 
ATOM      2  C   UNL     1       6.504   5.909  15.247  0.00  0.00    +0.000 A 
ATOM      3  C   UNL     1       5.874   4.703  14.945  0.00  0.00    +0.000 A 
ATOM      4  C   UNL     1       5.238   3.976  15.949  0.00  0.00    +0.000 A 
ATOM      5  C   UNL     1       5.246   4.439  17.272  0.00  0.00    +0.000 A 
ATOM      6  C   UNL     1       5.874   5.668  17.554  0.00  0.00    +0.000 A 
ENDROOT
BRANCH   5   7
ATOM      7  C   UNL     1       4.640   3.674  18.361  0.00  0.00    +0.000 A 
ATOM      8  N   UNL     1       3.351   3.524  18.604  0.00  0.00    +0.000 NA
ATOM      9  C   UNL     1       3.316   2.784  19.757  0.00  0.00    +0.000 A 
ATOM     10  N   UNL     1       4.513   2.446  20.242  0.00  0.00    +0.000 NA
ATOM     11  N   UNL     1       5.330   3.017  19.346  0.00  0.00    +0.000 N 
ATOM     12  H   UNL     1       6.330   2.942  19.477  0.00  0.00    +0.000 HD
BRANCH   9  13
ATOM     13  C   UNL     1       2.027   2.393  20.456  0.00  0.00    +0.000 C 
ATOM     14  C   UNL     1       0.897   3.401  20.512  0.00  0.00    +0.000 C 
ATOM     15  C   UNL     1       1.670   3.101  21.749  0.00  0.00    +0.000 C 
ENDBRANCH   9  13
ENDBRANCH   5   7
BRANCH   1  18
ATOM     16  O   UNL     1       8.322   7.008  18.759  0.00  0.00    +0.000 OA
ATOM     17  C   UNL     1       7.910   7.867  17.982  0.00  0.00    +0.000 C 
ATOM     18  N   UNL     1       7.076   7.658  16.900  0.00  0.00    +0.000 N 
ATOM     19  H   UNL     1       6.962   8.412  16.234  0.00  0.00    +0.000 HD
BRANCH  17  20
ATOM     20  C   UNL     1       8.391   9.257  18.199  0.00  0.00    +0.000 A 
ATOM     21  C   UNL     1       9.272   9.469  19.275  0.00  0.00    +0.000 A 
ATOM     22  C   UNL     1       9.676  10.751  19.658  0.00  0.00    +0.000 A 
ATOM     23  C   UNL     1       9.152  11.800  18.908  0.00  0.00    +0.000 A 
ATOM     24  N   UNL     1       9.243  13.160  19.013  0.00  0.00    +0.000 N 
ATOM     25  N   UNL     1       8.576  13.783  18.030  0.00  0.00    +0.000 NA
ATOM     26  N   UNL     1       7.994  12.849  17.287  0.00  0.00    +0.000 NA
ATOM     27  C   UNL     1       8.313  11.625  17.814  0.00  0.00    +0.000 A 
ATOM     28  C   UNL     1       7.912  10.335  17.439  0.00  0.00    +0.000 A 
ATOM     29  H   UNL     1       9.705  13.717  19.723  0.00  0.00    +0.000 HD
ENDBRANCH  17  20
ENDBRANCH   1  18
TORSDOF 4
ENDMDL
MODEL 4
REMARK VINA RESULT:      -8.5      1.235      1.907
REMARK  Name = 
REMARK  4 active torsions:
REMARK  status: ('A' for Active; 'I' for Inactive)
REMARK    1  A    between atoms: C_2  and  C_18
REMARK    2  A    between atoms: N_3  and  C_4
REMARK    3  A    between atoms: C_8  and  C_9
REMARK    4  A    between atoms: C_11  and  C_12
REMARK                            x       y       z     vdW  Elec       q    Type
REMARK                         _______ _______ _______ _____ _____    ______ ____
ROOT
ATOM      1  C   UNL     1       6.911   6.651  16.894  0.00  0.00    +0.000 A 
ATOM      2  C   UNL     1       7.200   6.006  15.693  0.00  0.00    +0.000 A 
ATOM      3  C   UNL     1       6.654   4.758  15.402  0.00  0.00    +0.000 A 
ATOM      4  C   UNL     1       5.825   4.125  16.326  0.00  0.00    +0.000 A 
ATOM      5  C   UNL     1       5.553   4.728  17.562  0.00  0.00    +0.000 A 
ATOM      6  C   UNL     1       6.101   5.997  17.830  0.00  0.00    +0.000 A 
ENDROOT
BRANCH   5   7
ATOM      7  C   UNL     1       4.735   4.068  18.579  0.00  0.00    +0.000 A 
ATOM      8  N   UNL     1       3.679   4.567  19.195  0.00  0.00    +0.000 NA
ATOM      9  C   UNL     1       3.324   3.588  20.086  0.00  0.00    +0.000 A 
ATOM     10  N   UNL     1       4.087   2.494  20.050  0.00  0.00    +0.000 NA
ATOM     11  N   UNL     1       4.968   2.820  19.094  0.00  0.00    +0.000 N 
ATOM     12  H   UNL     1       5.705   2.166  18.862  0.00  0.00    +0.000 HD
BRANCH   9  13
ATOM     13  C   UNL     1       2.170   3.730  21.062  0.00  0.00    +0.000 C 
ATOM     14  C   UNL     1       1.540   2.475  21.628  0.00  0.00    +0.000 C 
ATOM     15  C   UNL     1       0.794   3.275  20.617  0.00  0.00    +0.000 C 
ENDBRANCH   9  13
ENDBRANCH   5   7
BRANCH   1  18
ATOM     16  O   UNL     1       8.684   7.424  19.100  0.00  0.00    +0.000 OA
ATOM     17  C   UNL     1       8.214   8.233  18.303  0.00  0.00    +0.000 C 
ATOM     18  N   UNL     1       7.403   7.939  17.223  0.00  0.00    +0.000 N 
ATOM     19  H   UNL     1       7.237   8.668  16.540  0.00  0.00    +0.000 HD
BRANCH  17  20
ATOM     20  C   UNL     1       8.591   9.658  18.490  0.00  0.00    +0.000 A 
ATOM     21  C   UNL     1       8.083  10.583  17.559  0.00  0.00    +0.000 A 
ATOM     22  C   UNL     1       8.483  11.922  17.554  0.00  0.00    +0.000 A 
ATOM     23  C   UNL     1       9.414  12.280  18.525  0.00  0.00    +0.000 A 
ATOM     24  N   UNL     1      10.088  13.439  18.789  0.00  0.00    +0.000 N 
ATOM     25  N   UNL     1      10.883  13.320  19.863  0.00  0.00    +0.000 NA
ATOM     26  N   UNL     1      10.784  12.070  20.298  0.00  0.00    +0.000 NA
ATOM     27  C   UNL     1       9.906  11.404  19.484  0.00  0.00    +0.000 A 
ATOM     28  C   UNL     1       9.500  10.062  19.481  0.00  0.00    +0.000 A 
ATOM     29  H   UNL     1      10.079  14.315  18.279  0.00  0.00    +0.000 HD
ENDBRANCH  17  20
ENDBRANCH   1  18
TORSDOF 4
ENDMDL
MODEL 5
REMARK VINA RESULT:      -8.4      5.214      7.387
REMARK  Name = 
REMARK  4 active torsions:
REMARK  status: ('A' for Active; 'I' for Inactive)
REMARK    1  A    between atoms: C_2  and  C_18
REMARK    2  A    between atoms: N_3  and  C_4
REMARK    3  A    between atoms: C_8  and  C_9
REMARK    4  A    between atoms: C_11  and  C_12
REMARK                            x       y       z     vdW  Elec       q    Type
REMARK                         _______ _______ _______ _____ _____    ______ ____
ROOT
ATOM      1  C   UNL     1       2.405   5.219  20.533  0.00  0.00    +0.000 A 
ATOM      2  C   UNL     1       2.158   4.038  21.232  0.00  0.00    +0.000 A 
ATOM      3  C   UNL     1       2.904   2.889  20.978  0.00  0.00    +0.000 A 
ATOM      4  C   UNL     1       3.896   2.901  19.999  0.00  0.00    +0.000 A 
ATOM      5  C   UNL     1       4.135   4.060  19.249  0.00  0.00    +0.000 A 
ATOM      6  C   UNL     1       3.383   5.216  19.531  0.00  0.00    +0.000 A 
ENDROOT
BRANCH   5   7
ATOM      7  C   UNL     1       5.127   4.092  18.175  0.00  0.00    +0.000 A 
ATOM      8  N   UNL     1       4.916   3.865  16.891  0.00  0.00    +0.000 NA
ATOM      9  C   UNL     1       6.163   3.954  16.330  0.00  0.00    +0.000 A 
ATOM     10  N   UNL     1       7.144   4.244  17.189  0.00  0.00    +0.000 NA
ATOM     11  N   UNL     1       6.467   4.326  18.342  0.00  0.00    +0.000 N 
ATOM     12  H   UNL     1       6.975   4.518  19.196  0.00  0.00    +0.000 HD
BRANCH   9  13
ATOM     13  C   UNL     1       6.431   3.720  14.855  0.00  0.00    +0.000 C 
ATOM     14  C   UNL     1       7.008   4.854  14.033  0.00  0.00    +0.000 C 
ATOM     15  C   UNL     1       5.582   4.468  13.845  0.00  0.00    +0.000 C 
ENDBRANCH   9  13
ENDBRANCH   5   7
BRANCH   1  18
ATOM     16  O   UNL     1       2.525   7.739  19.035  0.00  0.00    +0.000 OA
ATOM     17  C   UNL     1       1.840   7.591  20.045  0.00  0.00    +0.000 C 
ATOM     18  N   UNL     1       1.707   6.428  20.780  0.00  0.00    +0.000 N 
ATOM     19  H   UNL     1       0.973   6.386  21.475  0.00  0.00    +0.000 HD
BRANCH  17  20
ATOM     20  C   UNL     1       1.041   8.762  20.493  0.00  0.00    +0.000 A 
ATOM     21  C   UNL     1       0.780   9.762  19.539  0.00  0.00    +0.000 A 
ATOM     22  C   UNL     1       0.162  10.968  19.883  0.00  0.00    +0.000 A 
ATOM     23  C   UNL     1      -0.176  11.114  21.226  0.00  0.00    +0.000 A 
ATOM     24  N   UNL     1      -0.708  12.146  21.947  0.00  0.00    +0.000 N 
ATOM     25  N   UNL     1      -0.884  11.816  23.235  0.00  0.00    +0.000 NA
ATOM     26  N   UNL     1      -0.429  10.579  23.397  0.00  0.00    +0.000 NA
ATOM     27  C   UNL     1       0.030  10.132  22.186  0.00  0.00    +0.000 A 
ATOM     28  C   UNL     1       0.652   8.926  21.832  0.00  0.00    +0.000 A 
ATOM     29  H   UNL     1      -0.942  13.084  21.644  0.00  0.00    +0.000 HD
ENDBRANCH  17  20
ENDBRANCH   1  18
TORSDOF 4
ENDMDL
MODEL 6
REMARK VINA RESULT:      -8.4      4.570      7.247
REMARK  Name = 
REMARK  4 active torsions:
REMARK  status: ('A' for Active; 'I' for Inactive)
REMARK    1  A    between atoms: C_2  and  C_18
REMARK    2  A    between atoms: N_3  and  C_4
REMARK    3  A    between atoms: C_8  and  C_9
REMARK    4  A    between atoms: C_11  and  C_12
REMARK                            x       y       z     vdW  Elec       q    Type
REMARK                         _______ _______ _______ _____ _____    ______ ____
ROOT
ATOM      1  C   UNL     1       5.419   6.138  17.649  0.00  0.00    +0.000 A 
ATOM      2  C   UNL     1       6.232   5.511  18.592  0.00  0.00    +0.000 A 
ATOM      3  C   UNL     1       7.292   4.698  18.195  0.00  0.00    +0.000 A 
ATOM      4  C   UNL     1       7.537   4.481  16.840  0.00  0.00    +0.000 A 
ATOM      5  C   UNL     1       6.709   5.061  15.870  0.00  0.00    +0.000 A 
ATOM      6  C   UNL     1       5.654   5.893  16.291  0.00  0.00    +0.000 A 
ENDROOT
BRANCH   5   7
ATOM      7  C   UNL     1       6.900   4.810  14.442  0.00  0.00    +0.000 A 
ATOM      8  N   UNL     1       6.300   3.890  13.709  0.00  0.00    +0.000 NA
ATOM      9  C   UNL     1       6.870   4.030  12.471  0.00  0.00    +0.000 A 
ATOM     10  N   UNL     1       7.783   5.000  12.381  0.00  0.00    +0.000 NA
ATOM     11  N   UNL     1       7.784   5.476  13.633  0.00  0.00    +0.000 N 
ATOM     12  H   UNL     1       8.418   6.228  13.871  0.00  0.00    +0.000 HD
BRANCH   9  13
ATOM     13  C   UNL     1       6.522   3.143  11.290  0.00  0.00    +0.000 C 
ATOM     14  C   UNL     1       5.610   1.955  11.519  0.00  0.00    +0.000 C 
ATOM     15  C   UNL     1       7.062   1.726  11.274  0.00  0.00    +0.000 C 
ENDBRANCH   9  13
ENDBRANCH   5   7
BRANCH   1  18
ATOM     16  O   UNL     1       3.054   5.574  19.292  0.00  0.00    +0.000 OA
ATOM     17  C   UNL     1       3.253   6.661  18.753  0.00  0.00    +0.000 C 
ATOM     18  N   UNL     1       4.356   7.009  17.996  0.00  0.00    +0.000 N 
ATOM     19  H   UNL     1       4.487   7.986  17.767  0.00  0.00    +0.000 HD
BRANCH  17  20
ATOM     20  C   UNL     1       2.232   7.718  18.974  0.00  0.00    +0.000 A 
ATOM     21  C   UNL     1       1.913   8.540  17.877  0.00  0.00    +0.000 A 
ATOM     22  C   UNL     1       1.075   9.652  18.005  0.00  0.00    +0.000 A 
ATOM     23  C   UNL     1       0.578   9.891  19.284  0.00  0.00    +0.000 A 
ATOM     24  N   UNL     1      -0.187  10.891  19.815  0.00  0.00    +0.000 N 
ATOM     25  N   UNL     1      -0.442  10.686  21.117  0.00  0.00    +0.000 NA
ATOM     26  N   UNL     1       0.189   9.575  21.477  0.00  0.00    +0.000 NA
ATOM     27  C   UNL     1       0.839   9.078  20.379  0.00  0.00    +0.000 A 
ATOM     28  C   UNL     1       1.682   7.966  20.241  0.00  0.00    +0.000 A 
ATOM     29  H   UNL     1      -0.538  11.732  19.373  0.00  0.00    +0.000 HD
ENDBRANCH  17  20
ENDBRANCH   1  18
TORSDOF 4
ENDMDL
MODEL 7
REMARK VINA RESULT:      -8.3      7.015      9.375
REMARK  Name = 
REMARK  4 active torsions:
REMARK  status: ('A' for Active; 'I' for Inactive)
REMARK    1  A    between atoms: C_2  and  C_18
REMARK    2  A    between atoms: N_3  and  C_4
REMARK    3  A    between atoms: C_8  and  C_9
REMARK    4  A    between atoms: C_11  and  C_12
REMARK                            x       y       z     vdW  Elec       q    Type
REMARK                         _______ _______ _______ _____ _____    ______ ____
ROOT
ATOM      1  C   UNL     1       0.657  10.413  18.947  0.00  0.00    +0.000 A 
ATOM      2  C   UNL     1       1.329  11.627  19.075  0.00  0.00    +0.000 A 
ATOM      3  C   UNL     1       0.674  12.835  18.840  0.00  0.00    +0.000 A 
ATOM      4  C   UNL     1      -0.664  12.840  18.450  0.00  0.00    +0.000 A 
ATOM      5  C   UNL     1      -1.352  11.633  18.268  0.00  0.00    +0.000 A 
ATOM      6  C   UNL     1      -0.678  10.424  18.526  0.00  0.00    +0.000 A 
ENDROOT
BRANCH   5   7
ATOM      7  C   UNL     1      -2.739  11.598  17.804  0.00  0.00    +0.000 A 
ATOM      8  N   UNL     1      -3.828  11.652  18.549  0.00  0.00    +0.000 NA
ATOM      9  C   UNL     1      -4.852  11.519  17.648  0.00  0.00    +0.000 A 
ATOM     10  N   UNL     1      -4.466  11.403  16.375  0.00  0.00    +0.000 NA
ATOM     11  N   UNL     1      -3.133  11.455  16.499  0.00  0.00    +0.000 N 
ATOM     12  H   UNL     1      -2.559  11.365  15.670  0.00  0.00    +0.000 HD
BRANCH   9  13
ATOM     13  C   UNL     1      -6.314  11.480  18.050  0.00  0.00    +0.000 C 
ATOM     14  C   UNL     1      -6.666  11.595  19.518  0.00  0.00    +0.000 C 
ATOM     15  C   UNL     1      -6.810  10.280  18.834  0.00  0.00    +0.000 C 
ENDBRANCH   9  13
ENDBRANCH   5   7
BRANCH   1  18
ATOM     16  O   UNL     1       2.421   8.826  17.221  0.00  0.00    +0.000 OA
ATOM     17  C   UNL     1       2.060   8.453  18.335  0.00  0.00    +0.000 C 
ATOM     18  N   UNL     1       1.261   9.159  19.215  0.00  0.00    +0.000 N 
ATOM     19  H   UNL     1       1.191   8.824  20.167  0.00  0.00    +0.000 HD
BRANCH  17  20
ATOM     20  C   UNL     1       2.568   7.136  18.801  0.00  0.00    +0.000 A 
ATOM     21  C   UNL     1       3.508   6.485  17.980  0.00  0.00    +0.000 A 
ATOM     22  C   UNL     1       3.947   5.185  18.246  0.00  0.00    +0.000 A 
ATOM     23  C   UNL     1       3.395   4.578  19.371  0.00  0.00    +0.000 A 
ATOM     24  N   UNL     1       3.507   3.324  19.905  0.00  0.00    +0.000 N 
ATOM     25  N   UNL     1       2.795   3.198  21.035  0.00  0.00    +0.000 NA
ATOM     26  N   UNL     1       2.164   4.347  21.240  0.00  0.00    +0.000 NA
ATOM     27  C   UNL     1       2.497   5.205  20.225  0.00  0.00    +0.000 A 
ATOM     28  C   UNL     1       2.061   6.509  19.949  0.00  0.00    +0.000 A 
ATOM     29  H   UNL     1       4.013   2.521  19.550  0.00  0.00    +0.000 HD
ENDBRANCH  17  20
ENDBRANCH   1  18
TORSDOF 4
ENDMDL
MODEL 8
REMARK VINA RESULT:      -8.3      4.916      7.292
REMARK  Name = 
REMARK  4 active torsions:
REMARK  status: ('A' for Active; 'I' for Inactive)
REMARK    1  A    between atoms: C_2  and  C_18
REMARK    2  A    between atoms: N_3  and  C_4
REMARK    3  A    between atoms: C_8  and  C_9
REMARK    4  A    between atoms: C_11  and  C_12
REMARK                            x       y       z     vdW  Elec       q    Type
REMARK                         _______ _______ _______ _____ _____    ______ ____
ROOT
ATOM      1  C   UNL     1       3.731   5.803  18.924  0.00  0.00    +0.000 A 
ATOM      2  C   UNL     1       3.798   4.638  19.688  0.00  0.00    +0.000 A 
ATOM      3  C   UNL     1       4.565   3.552  19.269  0.00  0.00    +0.000 A 
ATOM      4  C   UNL     1       5.259   3.611  18.062  0.00  0.00    +0.000 A 
ATOM      5  C   UNL     1       5.174   4.751  17.251  0.00  0.00    +0.000 A 
ATOM      6  C   UNL     1       4.408   5.844  17.700  0.00  0.00    +0.000 A 
ENDROOT
BRANCH   5   7
ATOM      7  C   UNL     1       5.841   4.825  15.952  0.00  0.00    +0.000 A 
ATOM      8  N   UNL     1       5.416   4.316  14.810  0.00  0.00    +0.000 NA
ATOM      9  C   UNL     1       6.422   4.604  13.925  0.00  0.00    +0.000 A 
ATOM     10  N   UNL     1       7.448   5.283  14.445  0.00  0.00    +0.000 NA
ATOM     11  N   UNL     1       7.059   5.410  15.721  0.00  0.00    +0.000 N 
ATOM     12  H   UNL     1       7.672   5.879  16.375  0.00  0.00    +0.000 HD
BRANCH   9  13
ATOM     13  C   UNL     1       6.401   4.170  12.471  0.00  0.00    +0.000 C 
ATOM     14  C   UNL     1       5.243   3.325  11.983  0.00  0.00    +0.000 C 
ATOM     15  C   UNL     1       6.582   2.697  12.160  0.00  0.00    +0.000 C 
ENDBRANCH   9  13
ENDBRANCH   5   7
BRANCH   1  18
ATOM     16  O   UNL     1       1.529   5.995  20.853  0.00  0.00    +0.000 OA
ATOM     17  C   UNL     1       1.951   6.960  20.219  0.00  0.00    +0.000 C 
ATOM     18  N   UNL     1       3.004   6.952  19.323  0.00  0.00    +0.000 N 
ATOM     19  H   UNL     1       3.370   7.843  19.011  0.00  0.00    +0.000 HD
BRANCH  17  20
ATOM     20  C   UNL     1       1.298   8.270  20.475  0.00  0.00    +0.000 A 
ATOM     21  C   UNL     1       1.283   9.196  19.415  0.00  0.00    +0.000 A 
ATOM     22  C   UNL     1       0.823  10.505  19.584  0.00  0.00    +0.000 A 
ATOM     23  C   UNL     1       0.385  10.833  20.864  0.00  0.00    +0.000 A 
ATOM     24  N   UNL     1      -0.052  11.997  21.432  0.00  0.00    +0.000 N 
ATOM     25  N   UNL     1      -0.398  11.827  22.717  0.00  0.00    +0.000 NA
ATOM     26  N   UNL     1      -0.151  10.561  23.033  0.00  0.00    +0.000 NA
ATOM     27  C   UNL     1       0.348   9.933  21.922  0.00  0.00    +0.000 A 
ATOM     28  C   UNL     1       0.812   8.622  21.744  0.00  0.00    +0.000 A 
ATOM     29  H   UNL     1      -0.112  12.923  21.026  0.00  0.00    +0.000 HD
ENDBRANCH  17  20
ENDBRANCH   1  18
TORSDOF 4
ENDMDL
MODEL 9
REMARK VINA RESULT:      -8.1      6.553      8.461
REMARK  Name = 
REMARK  4 active torsions:
REMARK  status: ('A' for Active; 'I' for Inactive)
REMARK    1  A    between atoms: C_2  and  C_18
REMARK    2  A    between atoms: N_3  and  C_4
REMARK    3  A    between atoms: C_8  and  C_9
REMARK    4  A    between atoms: C_11  and  C_12
REMARK                            x       y       z     vdW  Elec       q    Type
REMARK                         _______ _______ _______ _____ _____    ______ ____
ROOT
ATOM      1  C   UNL     1       1.376   9.660  18.246  0.00  0.00    +0.000 A 
ATOM      2  C   UNL     1       1.817  10.591  19.186  0.00  0.00    +0.000 A 
ATOM      3  C   UNL     1       0.960  11.577  19.672  0.00  0.00    +0.000 A 
ATOM      4  C   UNL     1      -0.350  11.658  19.203  0.00  0.00    +0.000 A 
ATOM      5  C   UNL     1      -0.808  10.764  18.225  0.00  0.00    +0.000 A 
ATOM      6  C   UNL     1       0.068   9.765  17.759  0.00  0.00    +0.000 A 
ENDROOT
BRANCH   5   7
ATOM      7  C   UNL     1      -2.157  10.855  17.668  0.00  0.00    +0.000 A 
ATOM      8  N   UNL     1      -3.173  11.543  18.156  0.00  0.00    +0.000 NA
ATOM      9  C   UNL     1      -4.210  11.246  17.310  0.00  0.00    +0.000 A 
ATOM     10  N   UNL     1      -3.895  10.423  16.306  0.00  0.00    +0.000 NA
ATOM     11  N   UNL     1      -2.599  10.192  16.553  0.00  0.00    +0.000 N 
ATOM     12  H   UNL     1      -2.089   9.563  15.946  0.00  0.00    +0.000 HD
BRANCH   9  13
ATOM     13  C   UNL     1      -5.617  11.780  17.499  0.00  0.00    +0.000 C 
ATOM     14  C   UNL     1      -6.051  12.207  18.886  0.00  0.00    +0.000 C 
ATOM     15  C   UNL     1      -6.597  10.949  18.304  0.00  0.00    +0.000 C 
ENDBRANCH   9  13
ENDBRANCH   5   7
BRANCH   1  18
ATOM     16  O   UNL     1       2.216   7.200  19.605  0.00  0.00    +0.000 OA
ATOM     17  C   UNL     1       2.572   7.491  18.465  0.00  0.00    +0.000 C 
ATOM     18  N   UNL     1       2.190   8.611  17.751  0.00  0.00    +0.000 N 
ATOM     19  H   UNL     1       2.402   8.640  16.762  0.00  0.00    +0.000 HD
BRANCH  17  20
ATOM     20  C   UNL     1       3.461   6.524  17.769  0.00  0.00    +0.000 A 
ATOM     21  C   UNL     1       3.086   5.168  17.807  0.00  0.00    +0.000 A 
ATOM     22  C   UNL     1       3.915   4.158  17.310  0.00  0.00    +0.000 A 
ATOM     23  C   UNL     1       5.131   4.579  16.779  0.00  0.00    +0.000 A 
ATOM     24  N   UNL     1       6.213   3.910  16.281  0.00  0.00    +0.000 N 
ATOM     25  N   UNL     1       7.166   4.751  15.852  0.00  0.00    +0.000 NA
ATOM     26  N   UNL     1       6.750   5.987  16.102  0.00  0.00    +0.000 NA
ATOM     27  C   UNL     1       5.515   5.911  16.689  0.00  0.00    +0.000 A 
ATOM     28  C   UNL     1       4.677   6.917  17.191  0.00  0.00    +0.000 A 
ATOM     29  H   UNL     1       6.380   2.912  16.229  0.00  0.00    +0.000 HD
ENDBRANCH  17  20
ENDBRANCH   1  18
TORSDOF 4
ENDMDL
