MODEL 1
REMARK VINA RESULT:      -9.7      0.000      0.000
REMARK  Name = 
REMARK  8 active torsions:
REMARK  status: ('A' for Active; 'I' for Inactive)
REMARK    1  A    between atoms: C_1  and  C_2
REMARK    2  A    between atoms: C_2  and  C_3
REMARK    3  A    between atoms: C_2  and  C_4
REMARK    4  A    between atoms: C_4  and  C_5
REMARK    5  A    between atoms: C_8  and  C_9
REMARK    6  A    between atoms: C_9  and  N_10
REMARK    7  A    between atoms: C_14  and  C_15
REMARK    8  A    between atoms: C_14  and  C_21
REMARK                            x       y       z     vdW  Elec       q    Type
REMARK                         _______ _______ _______ _____ _____    ______ ____
ROOT
ATOM      1  N   UNL     1       5.674   5.881  17.896  0.00  0.00    +0.000 N 
ATOM      2  C   UNL     1       5.773   5.591  19.218  0.00  0.00    +0.000 C 
ATOM      3  O   UNL     1       6.783   5.571  19.891  0.00  0.00    +0.000 OA
ATOM      4  N   UNL     1       4.514   5.358  19.713  0.00  0.00    +0.000 N 
ATOM      5  C   UNL     1       3.457   5.641  18.755  0.00  0.00    +0.000 C 
ATOM      6  C   UNL     1       4.363   5.921  17.512  0.00  0.00    +0.000 C 
ATOM      7  O   UNL     1       3.986   6.199  16.378  0.00  0.00    +0.000 OA
ATOM      8  H   UNL     1       4.372   5.194  20.698  0.00  0.00    +0.000 HD
ENDROOT
BRANCH   5   9
ATOM      9  C   UNL     1       2.513   4.439  18.622  0.00  0.00    +0.000 A 
ATOM     10  C   UNL     1       2.866   3.368  17.774  0.00  0.00    +0.000 A 
ATOM     11  C   UNL     1       2.207   2.141  17.858  0.00  0.00    +0.000 A 
ATOM     12  C   UNL     1       1.163   1.969  18.763  0.00  0.00    +0.000 A 
ATOM     13  C   UNL     1       0.733   3.043  19.534  0.00  0.00    +0.000 A 
ATOM     14  C   UNL     1       1.392   4.272  19.455  0.00  0.00    +0.000 A 
ENDBRANCH   5   9
BRANCH   5  15
ATOM     15  C   UNL     1       2.679   6.930  19.108  0.00  0.00    +0.000 A 
ATOM     16  C   UNL     1       2.441   7.942  18.161  0.00  0.00    +0.000 A 
ATOM     17  C   UNL     1       1.702   9.082  18.488  0.00  0.00    +0.000 A 
ATOM     18  C   UNL     1       1.197   9.246  19.774  0.00  0.00    +0.000 A 
ATOM     19  C   UNL     1       1.433   8.271  20.738  0.00  0.00    +0.000 A 
ATOM     20  C   UNL     1       2.161   7.122  20.408  0.00  0.00    +0.000 A 
ENDBRANCH   5  15
BRANCH   1  21
ATOM     21  C   UNL     1       6.796   6.114  17.017  0.00  0.00    +0.000 C 
BRANCH  21  25
ATOM     22  C   UNL     1       6.599   4.229  14.001  0.00  0.00    +0.000 A 
ATOM     23  N   UNL     1       6.284   3.268  14.875  0.00  0.00    +0.000 NA
ATOM     24  O   UNL     1       6.368   3.911  16.111  0.00  0.00    +0.000 OA
ATOM     25  C   UNL     1       6.733   5.201  15.845  0.00  0.00    +0.000 A 
ATOM     26  N   UNL     1       6.911   5.440  14.564  0.00  0.00    +0.000 NA
BRANCH  22  27
ATOM     27  C   UNL     1       6.583   4.016  12.528  0.00  0.00    +0.000 C 
BRANCH  27  29
ATOM     28  C   UNL     1       4.444   3.286  11.407  0.00  0.00    +0.000 C 
ATOM     29  C   UNL     1       5.723   2.815  12.097  0.00  0.00    +0.000 C 
ATOM     30  C   UNL     1       6.503   1.891  11.156  0.00  0.00    +0.000 C 
ENDBRANCH  27  29
ENDBRANCH  22  27
ENDBRANCH  21  25
ENDBRANCH   1  21
TORSDOF 6
ENDMDL
MODEL 2
REMARK VINA RESULT:      -9.5      3.002      6.268
REMARK  Name = 
REMARK  8 active torsions:
REMARK  status: ('A' for Active; 'I' for Inactive)
REMARK    1  A    between atoms: C_1  and  C_2
REMARK    2  A    between atoms: C_2  and  C_3
REMARK    3  A    between atoms: C_2  and  C_4
REMARK    4  A    between atoms: C_4  and  C_5
REMARK    5  A    between atoms: C_8  and  C_9
REMARK    6  A    between atoms: C_9  and  N_10
REMARK    7  A    between atoms: C_14  and  C_15
REMARK    8  A    between atoms: C_14  and  C_21
REMARK                            x       y       z     vdW  Elec       q    Type
REMARK                         _______ _______ _______ _____ _____    ______ ____
ROOT
ATOM      1  N   UNL     1       5.998   5.862  17.605  0.00  0.00    +0.000 N 
ATOM      2  C   UNL     1       5.377   5.942  16.401  0.00  0.00    +0.000 C 
ATOM      3  O   UNL     1       5.900   5.970  15.306  0.00  0.00    +0.000 OA
ATOM      4  N   UNL     1       4.019   5.941  16.605  0.00  0.00    +0.000 N 
ATOM      5  C   UNL     1       3.646   5.696  17.989  0.00  0.00    +0.000 C 
ATOM      6  C   UNL     1       5.080   5.732  18.608  0.00  0.00    +0.000 C 
ATOM      7  O   UNL     1       5.370   5.600  19.794  0.00  0.00    +0.000 OA
ATOM      8  H   UNL     1       3.384   5.924  15.823  0.00  0.00    +0.000 HD
ENDROOT
BRANCH   5   9
ATOM      9  C   UNL     1       2.687   6.784  18.489  0.00  0.00    +0.000 A 
ATOM     10  C   UNL     1       2.302   6.801  19.846  0.00  0.00    +0.000 A 
ATOM     11  C   UNL     1       1.695   7.927  20.404  0.00  0.00    +0.000 A 
ATOM     12  C   UNL     1       1.430   9.042  19.614  0.00  0.00    +0.000 A 
ATOM     13  C   UNL     1       1.707   9.005  18.252  0.00  0.00    +0.000 A 
ATOM     14  C   UNL     1       2.318   7.881  17.690  0.00  0.00    +0.000 A 
ENDBRANCH   5   9
BRANCH   5  15
ATOM     15  C   UNL     1       3.047   4.284  18.190  0.00  0.00    +0.000 A 
ATOM     16  C   UNL     1       3.856   3.137  18.288  0.00  0.00    +0.000 A 
ATOM     17  C   UNL     1       3.299   1.874  18.509  0.00  0.00    +0.000 A 
ATOM     18  C   UNL     1       1.921   1.725  18.622  0.00  0.00    +0.000 A 
ATOM     19  C   UNL     1       1.094   2.838  18.510  0.00  0.00    +0.000 A 
ATOM     20  C   UNL     1       1.651   4.105  18.302  0.00  0.00    +0.000 A 
ENDBRANCH   5  15
BRANCH   1  21
ATOM     21  C   UNL     1       7.428   5.909  17.800  0.00  0.00    +0.000 C 
BRANCH  21  25
ATOM     22  C   UNL     1       8.588   9.184  18.586  0.00  0.00    +0.000 A 
ATOM     23  N   UNL     1       7.831   9.474  17.523  0.00  0.00    +0.000 NA
ATOM     24  O   UNL     1       7.350   8.228  17.115  0.00  0.00    +0.000 OA
ATOM     25  C   UNL     1       7.880   7.314  17.981  0.00  0.00    +0.000 A 
ATOM     26  N   UNL     1       8.667   7.848  18.889  0.00  0.00    +0.000 NA
BRANCH  22  27
ATOM     27  C   UNL     1       9.270  10.227  19.399  0.00  0.00    +0.000 C 
BRANCH  27  29
ATOM     28  C   UNL     1       9.353  12.449  18.207  0.00  0.00    +0.000 C 
ATOM     29  C   UNL     1      10.135  11.184  18.560  0.00  0.00    +0.000 C 
ATOM     30  C   UNL     1      11.417  11.564  19.307  0.00  0.00    +0.000 C 
ENDBRANCH  27  29
ENDBRANCH  22  27
ENDBRANCH  21  25
ENDBRANCH   1  21
TORSDOF 6
ENDMDL
MODEL 3
REMARK VINA RESULT:      -9.3      2.942      5.031
REMARK  Name = 
REMARK  8 active torsions:
REMARK  status: ('A' for Active; 'I' for Inactive)
REMARK    1  A    between atoms: C_1  and  C_2
REMARK    2  A    between atoms: C_2  and  C_3
REMARK    3  A    between atoms: C_2  and  C_4
REMARK    4  A    between atoms: C_4  and  C_5
REMARK    5  A    between atoms: C_8  and  C_9
REMARK    6  A    between atoms: C_9  and  N_10
REMARK    7  A    between atoms: C_14  and  C_15
REMARK    8  A    between atoms: C_14  and  C_21
REMARK                            x       y       z     vdW  Elec       q    Type
REMARK                         _______ _______ _______ _____ _____    ______ ____
ROOT
ATOM      1  N   UNL     1       6.138   5.864  18.048  0.00  0.00    +0.000 N 
ATOM      2  C   UNL     1       6.078   5.505  19.355  0.00  0.00    +0.000 C 
ATOM      3  O   UNL     1       6.992   5.484  20.153  0.00  0.00    +0.000 OA
ATOM      4  N   UNL     1       4.776   5.201  19.668  0.00  0.00    +0.000 N 
ATOM      5  C   UNL     1       3.841   5.499  18.595  0.00  0.00    +0.000 C 
ATOM      6  C   UNL     1       4.887   5.879  17.498  0.00  0.00    +0.000 C 
ATOM      7  O   UNL     1       4.649   6.206  16.339  0.00  0.00    +0.000 OA
ATOM      8  H   UNL     1       4.516   4.977  20.616  0.00  0.00    +0.000 HD
ENDROOT
BRANCH   5   9
ATOM      9  C   UNL     1       2.975   4.273  18.279  0.00  0.00    +0.000 A 
ATOM     10  C   UNL     1       3.591   3.074  17.861  0.00  0.00    +0.000 A 
ATOM     11  C   UNL     1       2.887   1.869  17.863  0.00  0.00    +0.000 A 
ATOM     12  C   UNL     1       1.550   1.841  18.249  0.00  0.00    +0.000 A 
ATOM     13  C   UNL     1       0.897   3.027  18.566  0.00  0.00    +0.000 A 
ATOM     14  C   UNL     1       1.598   4.235  18.568  0.00  0.00    +0.000 A 
ENDBRANCH   5   9
BRANCH   5  15
ATOM     15  C   UNL     1       2.970   6.738  18.908  0.00  0.00    +0.000 A 
ATOM     16  C   UNL     1       2.710   7.730  17.945  0.00  0.00    +0.000 A 
ATOM     17  C   UNL     1       1.888   8.823  18.235  0.00  0.00    +0.000 A 
ATOM     18  C   UNL     1       1.319   8.958  19.497  0.00  0.00    +0.000 A 
ATOM     19  C   UNL     1       1.574   8.002  20.475  0.00  0.00    +0.000 A 
ATOM     20  C   UNL     1       2.386   6.901  20.183  0.00  0.00    +0.000 A 
ENDBRANCH   5  15
BRANCH   1  21
ATOM     21  C   UNL     1       7.353   6.186  17.336  0.00  0.00    +0.000 C 
BRANCH  21  25
ATOM     22  C   UNL     1       8.526   9.362  18.443  0.00  0.00    +0.000 A 
ATOM     23  N   UNL     1       7.649   9.768  17.519  0.00  0.00    +0.000 NA
ATOM     24  O   UNL     1       7.152   8.573  16.995  0.00  0.00    +0.000 OA
ATOM     25  C   UNL     1       7.793   7.568  17.663  0.00  0.00    +0.000 A 
ATOM     26  N   UNL     1       8.665   8.001  18.547  0.00  0.00    +0.000 NA
BRANCH  22  27
ATOM     27  C   UNL     1       9.272  10.308  19.317  0.00  0.00    +0.000 C 
BRANCH  27  29
ATOM     28  C   UNL     1       9.542  12.542  18.175  0.00  0.00    +0.000 C 
ATOM     29  C   UNL     1      10.231  11.227  18.539  0.00  0.00    +0.000 C 
ATOM     30  C   UNL     1      11.495  11.518  19.354  0.00  0.00    +0.000 C 
ENDBRANCH  27  29
ENDBRANCH  22  27
ENDBRANCH  21  25
ENDBRANCH   1  21
TORSDOF 6
ENDMDL
MODEL 4
REMARK VINA RESULT:      -9.3      2.856      5.055
REMARK  Name = 
REMARK  8 active torsions:
REMARK  status: ('A' for Active; 'I' for Inactive)
REMARK    1  A    between atoms: C_1  and  C_2
REMARK    2  A    between atoms: C_2  and  C_3
REMARK    3  A    between atoms: C_2  and  C_4
REMARK    4  A    between atoms: C_4  and  C_5
REMARK    5  A    between atoms: C_8  and  C_9
REMARK    6  A    between atoms: C_9  and  N_10
REMARK    7  A    between atoms: C_14  and  C_15
REMARK    8  A    between atoms: C_14  and  C_21
REMARK                            x       y       z     vdW  Elec       q    Type
REMARK                         _______ _______ _______ _____ _____    ______ ____
ROOT
ATOM      1  N   UNL     1       6.028   5.738  18.054  0.00  0.00    +0.000 N 
ATOM      2  C   UNL     1       5.966   5.413  19.369  0.00  0.00    +0.000 C 
ATOM      3  O   UNL     1       6.882   5.395  20.165  0.00  0.00    +0.000 OA
ATOM      4  N   UNL     1       4.660   5.139  19.694  0.00  0.00    +0.000 N 
ATOM      5  C   UNL     1       3.727   5.427  18.616  0.00  0.00    +0.000 C 
ATOM      6  C   UNL     1       4.776   5.761  17.507  0.00  0.00    +0.000 C 
ATOM      7  O   UNL     1       4.539   6.064  16.341  0.00  0.00    +0.000 OA
ATOM      8  H   UNL     1       4.399   4.944  20.648  0.00  0.00    +0.000 HD
ENDROOT
BRANCH   5   9
ATOM      9  C   UNL     1       2.837   4.210  18.333  0.00  0.00    +0.000 A 
ATOM     10  C   UNL     1       3.413   3.037  17.800  0.00  0.00    +0.000 A 
ATOM     11  C   UNL     1       2.718   1.826  17.817  0.00  0.00    +0.000 A 
ATOM     12  C   UNL     1       1.427   1.769  18.335  0.00  0.00    +0.000 A 
ATOM     13  C   UNL     1       0.805   2.934  18.771  0.00  0.00    +0.000 A 
ATOM     14  C   UNL     1       1.498   4.146  18.758  0.00  0.00    +0.000 A 
ENDBRANCH   5   9
BRANCH   5  15
ATOM     15  C   UNL     1       2.879   6.689  18.901  0.00  0.00    +0.000 A 
ATOM     16  C   UNL     1       2.309   6.937  20.163  0.00  0.00    +0.000 A 
ATOM     17  C   UNL     1       1.578   8.102  20.411  0.00  0.00    +0.000 A 
ATOM     18  C   UNL     1       1.386   9.039  19.401  0.00  0.00    +0.000 A 
ATOM     19  C   UNL     1       1.921   8.812  18.138  0.00  0.00    +0.000 A 
ATOM     20  C   UNL     1       2.665   7.652  17.890  0.00  0.00    +0.000 A 
ENDBRANCH   5  15
BRANCH   1  21
ATOM     21  C   UNL     1       7.246   6.021  17.331  0.00  0.00    +0.000 C 
BRANCH  21  25
ATOM     22  C   UNL     1       8.507   9.169  18.420  0.00  0.00    +0.000 A 
ATOM     23  N   UNL     1       7.677   9.591  17.461  0.00  0.00    +0.000 NA
ATOM     24  O   UNL     1       7.149   8.407  16.942  0.00  0.00    +0.000 OA
ATOM     25  C   UNL     1       7.729   7.390  17.647  0.00  0.00    +0.000 A 
ATOM     26  N   UNL     1       8.590   7.806  18.551  0.00  0.00    +0.000 NA
BRANCH  22  27
ATOM     27  C   UNL     1       9.262  10.101  19.301  0.00  0.00    +0.000 C 
BRANCH  27  29
ATOM     28  C   UNL     1       9.414  12.570  19.795  0.00  0.00    +0.000 C 
ATOM     29  C   UNL     1       9.428  11.507  18.697  0.00  0.00    +0.000 C 
ATOM     30  C   UNL     1      10.731  11.612  17.898  0.00  0.00    +0.000 C 
ENDBRANCH  27  29
ENDBRANCH  22  27
ENDBRANCH  21  25
ENDBRANCH   1  21
TORSDOF 6
ENDMDL
MODEL 5
REMARK VINA RESULT:      -9.1      2.882      6.218
REMARK  Name = 
REMARK  8 active torsions:
REMARK  status: ('A' for Active; 'I' for Inactive)
REMARK    1  A    between atoms: C_1  and  C_2
REMARK    2  A    between atoms: C_2  and  C_3
REMARK    3  A    between atoms: C_2  and  C_4
REMARK    4  A    between atoms: C_4  and  C_5
REMARK    5  A    between atoms: C_8  and  C_9
REMARK    6  A    between atoms: C_9  and  N_10
REMARK    7  A    between atoms: C_14  and  C_15
REMARK    8  A    between atoms: C_14  and  C_21
REMARK                            x       y       z     vdW  Elec       q    Type
REMARK                         _______ _______ _______ _____ _____    ______ ____
ROOT
ATOM      1  N   UNL     1       5.861   5.864  17.418  0.00  0.00    +0.000 N 
ATOM      2  C   UNL     1       5.146   5.972  16.270  0.00  0.00    +0.000 C 
ATOM      3  O   UNL     1       5.580   6.025  15.137  0.00  0.00    +0.000 OA
ATOM      4  N   UNL     1       3.809   5.967  16.582  0.00  0.00    +0.000 N 
ATOM      5  C   UNL     1       3.547   5.690  17.985  0.00  0.00    +0.000 C 
ATOM      6  C   UNL     1       5.026   5.711  18.488  0.00  0.00    +0.000 C 
ATOM      7  O   UNL     1       5.410   5.552  19.644  0.00  0.00    +0.000 OA
ATOM      8  H   UNL     1       3.113   5.969  15.853  0.00  0.00    +0.000 HD
ENDROOT
BRANCH   5   9
ATOM      9  C   UNL     1       2.634   6.767  18.585  0.00  0.00    +0.000 A 
ATOM     10  C   UNL     1       2.276   6.695  19.948  0.00  0.00    +0.000 A 
ATOM     11  C   UNL     1       1.717   7.794  20.601  0.00  0.00    +0.000 A 
ATOM     12  C   UNL     1       1.473   8.972  19.901  0.00  0.00    +0.000 A 
ATOM     13  C   UNL     1       1.723   9.029  18.535  0.00  0.00    +0.000 A 
ATOM     14  C   UNL     1       2.285   7.932  17.878  0.00  0.00    +0.000 A 
ENDBRANCH   5   9
BRANCH   5  15
ATOM     15  C   UNL     1       2.963   4.274  18.201  0.00  0.00    +0.000 A 
ATOM     16  C   UNL     1       1.585   4.053  18.375  0.00  0.00    +0.000 A 
ATOM     17  C   UNL     1       1.072   2.763  18.531  0.00  0.00    +0.000 A 
ATOM     18  C   UNL     1       1.925   1.663  18.531  0.00  0.00    +0.000 A 
ATOM     19  C   UNL     1       3.295   1.853  18.381  0.00  0.00    +0.000 A 
ATOM     20  C   UNL     1       3.809   3.143  18.211  0.00  0.00    +0.000 A 
ENDBRANCH   5  15
BRANCH   1  21
ATOM     21  C   UNL     1       7.303   5.906  17.499  0.00  0.00    +0.000 C 
BRANCH  21  25
ATOM     22  C   UNL     1       8.353   9.253  18.113  0.00  0.00    +0.000 A 
ATOM     23  N   UNL     1       8.910   8.656  19.171  0.00  0.00    +0.000 NA
ATOM     24  O   UNL     1       8.521   7.323  19.036  0.00  0.00    +0.000 OA
ATOM     25  C   UNL     1       7.759   7.261  17.903  0.00  0.00    +0.000 A 
ATOM     26  N   UNL     1       7.606   8.427  17.313  0.00  0.00    +0.000 NA
BRANCH  22  27
ATOM     27  C   UNL     1       8.551  10.696  17.804  0.00  0.00    +0.000 C 
BRANCH  27  29
ATOM     28  C   UNL     1      10.634  12.090  17.521  0.00  0.00    +0.000 C 
ATOM     29  C   UNL     1       9.773  11.308  18.512  0.00  0.00    +0.000 C 
ATOM     30  C   UNL     1       9.341  12.229  19.657  0.00  0.00    +0.000 C 
ENDBRANCH  27  29
ENDBRANCH  22  27
ENDBRANCH  21  25
ENDBRANCH   1  21
TORSDOF 6
ENDMDL
MODEL 6
REMARK VINA RESULT:      -9.0      3.045      6.262
REMARK  Name = 
REMARK  8 active torsions:
REMARK  status: ('A' for Active; 'I' for Inactive)
REMARK    1  A    between atoms: C_1  and  C_2
REMARK    2  A    between atoms: C_2  and  C_3
REMARK    3  A    between atoms: C_2  and  C_4
REMARK    4  A    between atoms: C_4  and  C_5
REMARK    5  A    between atoms: C_8  and  C_9
REMARK    6  A    between atoms: C_9  and  N_10
REMARK    7  A    between atoms: C_14  and  C_15
REMARK    8  A    between atoms: C_14  and  C_21
REMARK                            x       y       z     vdW  Elec       q    Type
REMARK                         _______ _______ _______ _____ _____    ______ ____
ROOT
ATOM      1  N   UNL     1       5.894   6.104  17.557  0.00  0.00    +0.000 N 
ATOM      2  C   UNL     1       5.106   6.364  16.485  0.00  0.00    +0.000 C 
ATOM      3  O   UNL     1       5.460   6.528  15.336  0.00  0.00    +0.000 OA
ATOM      4  N   UNL     1       3.795   6.371  16.893  0.00  0.00    +0.000 N 
ATOM      5  C   UNL     1       3.620   5.948  18.274  0.00  0.00    +0.000 C 
ATOM      6  C   UNL     1       5.131   5.861  18.665  0.00  0.00    +0.000 C 
ATOM      7  O   UNL     1       5.588   5.560  19.763  0.00  0.00    +0.000 OA
ATOM      8  H   UNL     1       3.049   6.479  16.223  0.00  0.00    +0.000 HD
ENDROOT
BRANCH   5   9
ATOM      9  C   UNL     1       2.799   6.982  19.055  0.00  0.00    +0.000 A 
ATOM     10  C   UNL     1       2.369   8.160  18.409  0.00  0.00    +0.000 A 
ATOM     11  C   UNL     1       1.378   8.966  18.973  0.00  0.00    +0.000 A 
ATOM     12  C   UNL     1       0.822   8.630  20.204  0.00  0.00    +0.000 A 
ATOM     13  C   UNL     1       1.305   7.530  20.904  0.00  0.00    +0.000 A 
ATOM     14  C   UNL     1       2.294   6.720  20.341  0.00  0.00    +0.000 A 
ENDBRANCH   5   9
BRANCH   5  15
ATOM     15  C   UNL     1       2.993   4.538  18.377  0.00  0.00    +0.000 A 
ATOM     16  C   UNL     1       1.601   4.343  18.443  0.00  0.00    +0.000 A 
ATOM     17  C   UNL     1       1.052   3.059  18.497  0.00  0.00    +0.000 A 
ATOM     18  C   UNL     1       1.879   1.941  18.502  0.00  0.00    +0.000 A 
ATOM     19  C   UNL     1       3.260   2.103  18.457  0.00  0.00    +0.000 A 
ATOM     20  C   UNL     1       3.812   3.388  18.389  0.00  0.00    +0.000 A 
ENDBRANCH   5  15
BRANCH   1  21
ATOM     21  C   UNL     1       7.338   6.085  17.534  0.00  0.00    +0.000 C 
BRANCH  21  25
ATOM     22  C   UNL     1       8.672   9.205  18.618  0.00  0.00    +0.000 A 
ATOM     23  N   UNL     1       8.029   9.617  17.521  0.00  0.00    +0.000 NA
ATOM     24  O   UNL     1       7.491   8.440  16.997  0.00  0.00    +0.000 OA
ATOM     25  C   UNL     1       7.877   7.437  17.840  0.00  0.00    +0.000 A 
ATOM     26  N   UNL     1       8.626   7.852  18.839  0.00  0.00    +0.000 NA
BRANCH  22  27
ATOM     27  C   UNL     1       9.361  10.142  19.548  0.00  0.00    +0.000 C 
BRANCH  27  29
ATOM     28  C   UNL     1       9.244  12.573  18.885  0.00  0.00    +0.000 C 
ATOM     29  C   UNL     1      10.080  11.295  18.826  0.00  0.00    +0.000 C 
ATOM     30  C   UNL     1      11.458  11.555  19.444  0.00  0.00    +0.000 C 
ENDBRANCH  27  29
ENDBRANCH  22  27
ENDBRANCH  21  25
ENDBRANCH   1  21
TORSDOF 6
ENDMDL
MODEL 7
REMARK VINA RESULT:      -8.9      1.366      3.774
REMARK  Name = 
REMARK  8 active torsions:
REMARK  status: ('A' for Active; 'I' for Inactive)
REMARK    1  A    between atoms: C_1  and  C_2
REMARK    2  A    between atoms: C_2  and  C_3
REMARK    3  A    between atoms: C_2  and  C_4
REMARK    4  A    between atoms: C_4  and  C_5
REMARK    5  A    between atoms: C_8  and  C_9
REMARK    6  A    between atoms: C_9  and  N_10
REMARK    7  A    between atoms: C_14  and  C_15
REMARK    8  A    between atoms: C_14  and  C_21
REMARK                            x       y       z     vdW  Elec       q    Type
REMARK                         _______ _______ _______ _____ _____    ______ ____
ROOT
ATOM      1  N   UNL     1       5.262   4.658  17.502  0.00  0.00    +0.000 N 
ATOM      2  C   UNL     1       4.192   4.476  16.688  0.00  0.00    +0.000 C 
ATOM      3  O   UNL     1       4.186   3.962  15.588  0.00  0.00    +0.000 OA
ATOM      4  N   UNL     1       3.068   4.934  17.329  0.00  0.00    +0.000 N 
ATOM      5  C   UNL     1       3.309   5.316  18.711  0.00  0.00    +0.000 C 
ATOM      6  C   UNL     1       4.864   5.160  18.709  0.00  0.00    +0.000 C 
ATOM      7  O   UNL     1       5.625   5.383  19.647  0.00  0.00    +0.000 OA
ATOM      8  H   UNL     1       2.158   4.822  16.911  0.00  0.00    +0.000 HD
ENDROOT
BRANCH   5   9
ATOM      9  C   UNL     1       2.792   6.735  18.978  0.00  0.00    +0.000 A 
ATOM     10  C   UNL     1       2.691   7.650  17.909  0.00  0.00    +0.000 A 
ATOM     11  C   UNL     1       1.950   8.826  18.039  0.00  0.00    +0.000 A 
ATOM     12  C   UNL     1       1.323   9.126  19.245  0.00  0.00    +0.000 A 
ATOM     13  C   UNL     1       1.495   8.288  20.341  0.00  0.00    +0.000 A 
ATOM     14  C   UNL     1       2.234   7.109  20.213  0.00  0.00    +0.000 A 
ENDBRANCH   5   9
BRANCH   5  15
ATOM     15  C   UNL     1       2.705   4.301  19.711  0.00  0.00    +0.000 A 
ATOM     16  C   UNL     1       3.511   3.487  20.528  0.00  0.00    +0.000 A 
ATOM     17  C   UNL     1       2.947   2.604  21.452  0.00  0.00    +0.000 A 
ATOM     18  C   UNL     1       1.565   2.501  21.572  0.00  0.00    +0.000 A 
ATOM     19  C   UNL     1       0.742   3.280  20.764  0.00  0.00    +0.000 A 
ATOM     20  C   UNL     1       1.305   4.174  19.846  0.00  0.00    +0.000 A 
ENDBRANCH   5  15
BRANCH   1  21
ATOM     21  C   UNL     1       6.630   4.362  17.146  0.00  0.00    +0.000 C 
BRANCH  21  25
ATOM     22  C   UNL     1       7.041   4.406  13.608  0.00  0.00    +0.000 A 
ATOM     23  N   UNL     1       7.731   5.508  13.917  0.00  0.00    +0.000 NA
ATOM     24  O   UNL     1       7.599   5.597  15.304  0.00  0.00    +0.000 OA
ATOM     25  C   UNL     1       6.831   4.532  15.682  0.00  0.00    +0.000 A 
ATOM     26  N   UNL     1       6.442   3.783  14.673  0.00  0.00    +0.000 NA
BRANCH  22  27
ATOM     27  C   UNL     1       6.951   3.874  12.220  0.00  0.00    +0.000 C 
BRANCH  27  29
ATOM     28  C   UNL     1       4.599   3.303  11.508  0.00  0.00    +0.000 C 
ATOM     29  C   UNL     1       5.910   2.751  12.066  0.00  0.00    +0.000 C 
ATOM     30  C   UNL     1       6.431   1.640  11.149  0.00  0.00    +0.000 C 
ENDBRANCH  27  29
ENDBRANCH  22  27
ENDBRANCH  21  25
ENDBRANCH   1  21
TORSDOF 6
ENDMDL
MODEL 8
REMARK VINA RESULT:      -8.9      2.895      6.158
REMARK  Name = 
REMARK  8 active torsions:
REMARK  status: ('A' for Active; 'I' for Inactive)
REMARK    1  A    between atoms: C_1  and  C_2
REMARK    2  A    between atoms: C_2  and  C_3
REMARK    3  A    between atoms: C_2  and  C_4
REMARK    4  A    between atoms: C_4  and  C_5
REMARK    5  A    between atoms: C_8  and  C_9
REMARK    6  A    between atoms: C_9  and  N_10
REMARK    7  A    between atoms: C_14  and  C_15
REMARK    8  A    between atoms: C_14  and  C_21
REMARK                            x       y       z     vdW  Elec       q    Type
REMARK                         _______ _______ _______ _____ _____    ______ ____
ROOT
ATOM      1  N   UNL     1       5.638   6.178  17.462  0.00  0.00    +0.000 N 
ATOM      2  C   UNL     1       4.848   6.476  16.400  0.00  0.00    +0.000 C 
ATOM      3  O   UNL     1       5.194   6.617  15.245  0.00  0.00    +0.000 OA
ATOM      4  N   UNL     1       3.546   6.553  16.828  0.00  0.00    +0.000 N 
ATOM      5  C   UNL     1       3.370   6.145  18.213  0.00  0.00    +0.000 C 
ATOM      6  C   UNL     1       4.880   5.979  18.581  0.00  0.00    +0.000 C 
ATOM      7  O   UNL     1       5.337   5.658  19.675  0.00  0.00    +0.000 OA
ATOM      8  H   UNL     1       2.797   6.698  16.168  0.00  0.00    +0.000 HD
ENDROOT
BRANCH   5   9
ATOM      9  C   UNL     1       2.616   7.223  19.001  0.00  0.00    +0.000 A 
ATOM     10  C   UNL     1       2.153   8.377  18.334  0.00  0.00    +0.000 A 
ATOM     11  C   UNL     1       1.212   9.219  18.928  0.00  0.00    +0.000 A 
ATOM     12  C   UNL     1       0.742   8.947  20.209  0.00  0.00    +0.000 A 
ATOM     13  C   UNL     1       1.262   7.873  20.923  0.00  0.00    +0.000 A 
ATOM     14  C   UNL     1       2.201   7.026  20.331  0.00  0.00    +0.000 A 
ENDBRANCH   5   9
BRANCH   5  15
ATOM     15  C   UNL     1       2.671   4.770  18.331  0.00  0.00    +0.000 A 
ATOM     16  C   UNL     1       2.965   3.705  17.460  0.00  0.00    +0.000 A 
ATOM     17  C   UNL     1       2.352   2.458  17.607  0.00  0.00    +0.000 A 
ATOM     18  C   UNL     1       1.419   2.250  18.618  0.00  0.00    +0.000 A 
ATOM     19  C   UNL     1       1.094   3.290  19.483  0.00  0.00    +0.000 A 
ATOM     20  C   UNL     1       1.717   4.535  19.346  0.00  0.00    +0.000 A 
ENDBRANCH   5  15
BRANCH   1  21
ATOM     21  C   UNL     1       7.079   6.083  17.418  0.00  0.00    +0.000 C 
BRANCH  21  25
ATOM     22  C   UNL     1       8.511   9.261  18.152  0.00  0.00    +0.000 A 
ATOM     23  N   UNL     1       9.035   8.553  19.157  0.00  0.00    +0.000 NA
ATOM     24  O   UNL     1       8.497   7.278  18.973  0.00  0.00    +0.000 OA
ATOM     25  C   UNL     1       7.695   7.359  17.869  0.00  0.00    +0.000 A 
ATOM     26  N   UNL     1       7.650   8.563  17.342  0.00  0.00    +0.000 NA
BRANCH  22  27
ATOM     27  C   UNL     1       8.854  10.689  17.906  0.00  0.00    +0.000 C 
BRANCH  27  29
ATOM     28  C   UNL     1      11.117  11.804  17.893  0.00  0.00    +0.000 C 
ATOM     29  C   UNL     1      10.026  11.189  18.769  0.00  0.00    +0.000 C 
ATOM     30  C   UNL     1       9.549  12.222  19.796  0.00  0.00    +0.000 C 
ENDBRANCH  27  29
ENDBRANCH  22  27
ENDBRANCH  21  25
ENDBRANCH   1  21
TORSDOF 6
ENDMDL
MODEL 9
REMARK VINA RESULT:      -8.8      0.654      1.365
REMARK  Name = 
REMARK  8 active torsions:
REMARK  status: ('A' for Active; 'I' for Inactive)
REMARK    1  A    between atoms: C_1  and  C_2
REMARK    2  A    between atoms: C_2  and  C_3
REMARK    3  A    between atoms: C_2  and  C_4
REMARK    4  A    between atoms: C_4  and  C_5
REMARK    5  A    between atoms: C_8  and  C_9
REMARK    6  A    between atoms: C_9  and  N_10
REMARK    7  A    between atoms: C_14  and  C_15
REMARK    8  A    between atoms: C_14  and  C_21
REMARK                            x       y       z     vdW  Elec       q    Type
REMARK                         _______ _______ _______ _____ _____    ______ ____
ROOT
ATOM      1  N   UNL     1       5.741   5.878  17.983  0.00  0.00    +0.000 N 
ATOM      2  C   UNL     1       5.799   5.546  19.297  0.00  0.00    +0.000 C 
ATOM      3  O   UNL     1       6.785   5.516  20.004  0.00  0.00    +0.000 OA
ATOM      4  N   UNL     1       4.526   5.282  19.741  0.00  0.00    +0.000 N 
ATOM      5  C   UNL     1       3.500   5.585  18.757  0.00  0.00    +0.000 C 
ATOM      6  C   UNL     1       4.443   5.916  17.556  0.00  0.00    +0.000 C 
ATOM      7  O   UNL     1       4.102   6.227  16.419  0.00  0.00    +0.000 OA
ATOM      8  H   UNL     1       4.354   5.084  20.714  0.00  0.00    +0.000 HD
ENDROOT
BRANCH   5   9
ATOM      9  C   UNL     1       2.576   4.377  18.552  0.00  0.00    +0.000 A 
ATOM     10  C   UNL     1       3.004   3.303  17.743  0.00  0.00    +0.000 A 
ATOM     11  C   UNL     1       2.346   2.073  17.779  0.00  0.00    +0.000 A 
ATOM     12  C   UNL     1       1.231   1.901  18.594  0.00  0.00    +0.000 A 
ATOM     13  C   UNL     1       0.732   2.976  19.320  0.00  0.00    +0.000 A 
ATOM     14  C   UNL     1       1.390   4.208  19.289  0.00  0.00    +0.000 A 
ENDBRANCH   5   9
BRANCH   5  15
ATOM     15  C   UNL     1       2.694   6.852  19.125  0.00  0.00    +0.000 A 
ATOM     16  C   UNL     1       2.175   7.059  20.416  0.00  0.00    +0.000 A 
ATOM     17  C   UNL     1       1.482   8.228  20.741  0.00  0.00    +0.000 A 
ATOM     18  C   UNL     1       1.278   9.213  19.779  0.00  0.00    +0.000 A 
ATOM     19  C   UNL     1       1.763   9.028  18.488  0.00  0.00    +0.000 A 
ATOM     20  C   UNL     1       2.468   7.864  18.165  0.00  0.00    +0.000 A 
ENDBRANCH   5  15
BRANCH   1  21
ATOM     21  C   UNL     1       6.889   6.154  17.151  0.00  0.00    +0.000 C 
BRANCH  21  25
ATOM     22  C   UNL     1       6.515   4.107  14.259  0.00  0.00    +0.000 A 
ATOM     23  N   UNL     1       7.369   5.012  13.772  0.00  0.00    +0.000 NA
ATOM     24  O   UNL     1       7.554   5.894  14.839  0.00  0.00    +0.000 OA
ATOM     25  C   UNL     1       6.780   5.422  15.861  0.00  0.00    +0.000 A 
ATOM     26  N   UNL     1       6.102   4.339  15.547  0.00  0.00    +0.000 NA
BRANCH  22  27
ATOM     27  C   UNL     1       6.066   2.920  13.481  0.00  0.00    +0.000 C 
BRANCH  27  29
ATOM     28  C   UNL     1       6.642   2.052  11.184  0.00  0.00    +0.000 C 
ATOM     29  C   UNL     1       5.979   3.184  11.967  0.00  0.00    +0.000 C 
ATOM     30  C   UNL     1       4.521   3.333  11.519  0.00  0.00    +0.000 C 
ENDBRANCH  27  29
ENDBRANCH  22  27
ENDBRANCH  21  25
ENDBRANCH   1  21
TORSDOF 6
ENDMDL
