MODEL 1
REMARK VINA RESULT:      -9.4      0.000      0.000
REMARK  Name = 
REMARK  5 active torsions:
REMARK  status: ('A' for Active; 'I' for Inactive)
REMARK    1  A    between atoms: C_1  and  C_2
REMARK    2  A    between atoms: C_5  and  N_6
REMARK    3  A    between atoms: C_8  and  C_9
REMARK    4  A    between atoms: C_14  and  N_15
REMARK    5  A    between atoms: N_15  and  C_16
REMARK                            x       y       z     vdW  Elec       q    Type
REMARK                         _______ _______ _______ _____ _____    ______ ____
ROOT
ATOM      1  C   UNL     1       2.296   6.562  19.750  0.00  0.00    +0.000 C 
ATOM      2  O   UNL     1       1.704   6.016  20.680  0.00  0.00    +0.000 OA
ATOM      3  N   UNL     1       3.329   5.951  19.033  0.00  0.00    +0.000 N 
ATOM      4  C   UNL     1       3.550   4.528  19.262  0.00  0.00    +0.000 C 
ATOM      5  C   UNL     1       5.033   4.229  19.392  0.00  0.00    +0.000 C 
ATOM      6  C   UNL     1       5.819   4.691  18.161  0.00  0.00    +0.000 C 
ATOM      7  C   UNL     1       5.522   6.175  17.896  0.00  0.00    +0.000 C 
ATOM      8  C   UNL     1       4.029   6.502  17.873  0.00  0.00    +0.000 C 
ENDROOT
BRANCH   1  11
ATOM      9  N   UNL     1       0.758   9.948  19.948  0.00  0.00    +0.000 N 
ATOM     10  N   UNL     1       1.166   8.668  20.291  0.00  0.00    +0.000 NA
ATOM     11  C   UNL     1       1.880   7.999  19.443  0.00  0.00    +0.000 A 
ATOM     12  C   UNL     1       2.387   8.542  18.172  0.00  0.00    +0.000 A 
ATOM     13  C   UNL     1       2.052   9.799  17.882  0.00  0.00    +0.000 A 
ATOM     14  C   UNL     1       1.168  10.585  18.770  0.00  0.00    +0.000 A 
ATOM     15  O   UNL     1       0.897  11.725  18.398  0.00  0.00    +0.000 OA
BRANCH   9  20
ATOM     16  C   UNL     1      -2.951  12.293  23.725  0.00  0.00    +0.000 C 
ATOM     17  C   UNL     1      -1.982  11.714  22.734  0.00  0.00    +0.000 A 
ATOM     18  C   UNL     1      -1.096  10.714  23.143  0.00  0.00    +0.000 A 
ATOM     19  C   UNL     1      -0.197  10.133  22.238  0.00  0.00    +0.000 A 
ATOM     20  C   UNL     1      -0.153  10.529  20.897  0.00  0.00    +0.000 A 
ATOM     21  C   UNL     1      -1.033  11.551  20.499  0.00  0.00    +0.000 A 
ATOM     22  C   UNL     1      -1.941  12.126  21.397  0.00  0.00    +0.000 A 
ATOM     23 CL   UNL     1      -3.008  13.348  20.798  0.00  0.00    +0.000 Cl
ENDBRANCH   9  20
ENDBRANCH   1  11
BRANCH   6  24
ATOM     24  N   UNL     1       5.494   3.894  16.967  0.00  0.00    +0.000 N 
ATOM     25  H   UNL     1       4.493   3.743  16.850  0.00  0.00    +0.000 HD
BRANCH  24  26
ATOM     26  C   UNL     1       6.073   4.234  15.734  0.00  0.00    +0.000 A 
ATOM     27  C   UNL     1       5.598   3.621  14.569  0.00  0.00    +0.000 A 
ATOM     28  C   UNL     1       6.186   3.888  13.331  0.00  0.00    +0.000 A 
ATOM     29  C   UNL     1       7.271   4.744  13.289  0.00  0.00    +0.000 A 
ATOM     30  N   UNL     1       7.792   5.334  14.380  0.00  0.00    +0.000 NA
ATOM     31  C   UNL     1       7.189   5.055  15.564  0.00  0.00    +0.000 A 
ENDBRANCH  24  26
ENDBRANCH   6  24
TORSDOF 4
ENDMDL
MODEL 2
REMARK VINA RESULT:      -9.3      3.045      4.524
REMARK  Name = 
REMARK  5 active torsions:
REMARK  status: ('A' for Active; 'I' for Inactive)
REMARK    1  A    between atoms: C_1  and  C_2
REMARK    2  A    between atoms: C_5  and  N_6
REMARK    3  A    between atoms: C_8  and  C_9
REMARK    4  A    between atoms: C_14  and  N_15
REMARK    5  A    between atoms: N_15  and  C_16
REMARK                            x       y       z     vdW  Elec       q    Type
REMARK                         _______ _______ _______ _____ _____    ______ ____
ROOT
ATOM      1  C   UNL     1       1.039   9.341  21.029  0.00  0.00    +0.000 C 
ATOM      2  O   UNL     1       1.125   9.081  22.228  0.00  0.00    +0.000 OA
ATOM      3  N   UNL     1       1.475   8.473  20.023  0.00  0.00    +0.000 N 
ATOM      4  C   UNL     1       1.835   7.117  20.420  0.00  0.00    +0.000 C 
ATOM      5  C   UNL     1       3.122   6.682  19.740  0.00  0.00    +0.000 C 
ATOM      6  C   UNL     1       3.019   6.772  18.213  0.00  0.00    +0.000 C 
ATOM      7  C   UNL     1       2.574   8.188  17.817  0.00  0.00    +0.000 C 
ATOM      8  C   UNL     1       1.341   8.675  18.580  0.00  0.00    +0.000 C 
ENDROOT
BRANCH   1  11
ATOM      9  N   UNL     1      -1.216  12.097  19.941  0.00  0.00    +0.000 N 
ATOM     10  N   UNL     1      -0.759  10.841  20.309  0.00  0.00    +0.000 NA
ATOM     11  C   UNL     1       0.475  10.716  20.679  0.00  0.00    +0.000 A 
ATOM     12  C   UNL     1       1.412  11.839  20.843  0.00  0.00    +0.000 A 
ATOM     13  C   UNL     1       0.946  13.054  20.557  0.00  0.00    +0.000 A 
ATOM     14  C   UNL     1      -0.429  13.252  20.048  0.00  0.00    +0.000 A 
ATOM     15  O   UNL     1      -0.753  14.409  19.789  0.00  0.00    +0.000 OA
BRANCH   9  20
ATOM     16  C   UNL     1      -6.577  11.996  17.757  0.00  0.00    +0.000 C 
ATOM     17  C   UNL     1      -5.175  12.032  18.296  0.00  0.00    +0.000 A 
ATOM     18  C   UNL     1      -4.939  12.567  19.565  0.00  0.00    +0.000 A 
ATOM     19  C   UNL     1      -3.648  12.592  20.109  0.00  0.00    +0.000 A 
ATOM     20  C   UNL     1      -2.550  12.085  19.405  0.00  0.00    +0.000 A 
ATOM     21  C   UNL     1      -2.792  11.568  18.120  0.00  0.00    +0.000 A 
ATOM     22  C   UNL     1      -4.083  11.530  17.578  0.00  0.00    +0.000 A 
ATOM     23 CL   UNL     1      -4.280  10.837  16.006  0.00  0.00    +0.000 Cl
ENDBRANCH   9  20
ENDBRANCH   1  11
BRANCH   6  24
ATOM     24  N   UNL     1       2.082   5.779  17.663  0.00  0.00    +0.000 N 
ATOM     25  H   UNL     1       1.848   5.952  16.687  0.00  0.00    +0.000 HD
BRANCH  24  26
ATOM     26  C   UNL     1       2.334   4.412  17.861  0.00  0.00    +0.000 A 
ATOM     27  C   UNL     1       1.425   3.655  18.608  0.00  0.00    +0.000 A 
ATOM     28  C   UNL     1       1.669   2.307  18.876  0.00  0.00    +0.000 A 
ATOM     29  C   UNL     1       2.847   1.748  18.417  0.00  0.00    +0.000 A 
ATOM     30  N   UNL     1       3.774   2.436  17.725  0.00  0.00    +0.000 NA
ATOM     31  C   UNL     1       3.498   3.742  17.479  0.00  0.00    +0.000 A 
ENDBRANCH  24  26
ENDBRANCH   6  24
TORSDOF 4
ENDMDL
MODEL 3
REMARK VINA RESULT:      -9.2      2.911      4.495
REMARK  Name = 
REMARK  5 active torsions:
REMARK  status: ('A' for Active; 'I' for Inactive)
REMARK    1  A    between atoms: C_1  and  C_2
REMARK    2  A    between atoms: C_5  and  N_6
REMARK    3  A    between atoms: C_8  and  C_9
REMARK    4  A    between atoms: C_14  and  N_15
REMARK    5  A    between atoms: N_15  and  C_16
REMARK                            x       y       z     vdW  Elec       q    Type
REMARK                         _______ _______ _______ _____ _____    ______ ____
ROOT
ATOM      1  C   UNL     1       0.905   9.428  20.953  0.00  0.00    +0.000 C 
ATOM      2  O   UNL     1       0.963   9.188  22.157  0.00  0.00    +0.000 OA
ATOM      3  N   UNL     1       1.379   8.552  19.972  0.00  0.00    +0.000 N 
ATOM      4  C   UNL     1       1.747   7.207  20.399  0.00  0.00    +0.000 C 
ATOM      5  C   UNL     1       3.057   6.780  19.760  0.00  0.00    +0.000 C 
ATOM      6  C   UNL     1       2.994   6.846  18.230  0.00  0.00    +0.000 C 
ATOM      7  C   UNL     1       2.540   8.250  17.801  0.00  0.00    +0.000 C 
ATOM      8  C   UNL     1       1.281   8.730  18.524  0.00  0.00    +0.000 C 
ENDROOT
BRANCH   1  11
ATOM      9  N   UNL     1      -1.379  12.146  19.828  0.00  0.00    +0.000 N 
ATOM     10  N   UNL     1      -0.913  10.904  20.230  0.00  0.00    +0.000 NA
ATOM     11  C   UNL     1       0.332  10.790  20.567  0.00  0.00    +0.000 A 
ATOM     12  C   UNL     1       1.275  11.917  20.658  0.00  0.00    +0.000 A 
ATOM     13  C   UNL     1       0.801  13.121  20.341  0.00  0.00    +0.000 A 
ATOM     14  C   UNL     1      -0.588  13.302  19.866  0.00  0.00    +0.000 A 
ATOM     15  O   UNL     1      -0.919  14.449  19.572  0.00  0.00    +0.000 OA
BRANCH   9  20
ATOM     16  C   UNL     1      -6.825  12.075  17.864  0.00  0.00    +0.000 C 
ATOM     17  C   UNL     1      -5.423  12.084  18.402  0.00  0.00    +0.000 A 
ATOM     18  C   UNL     1      -4.385  11.561  17.626  0.00  0.00    +0.000 A 
ATOM     19  C   UNL     1      -3.061  11.578  18.086  0.00  0.00    +0.000 A 
ATOM     20  C   UNL     1      -2.729  12.116  19.334  0.00  0.00    +0.000 A 
ATOM     21  C   UNL     1      -3.782  12.620  20.118  0.00  0.00    +0.000 A 
ATOM     22  C   UNL     1      -5.105  12.616  19.657  0.00  0.00    +0.000 A 
ATOM     23 CL   UNL     1      -6.320  13.296  20.682  0.00  0.00    +0.000 Cl
ENDBRANCH   9  20
ENDBRANCH   1  11
BRANCH   6  24
ATOM     24  N   UNL     1       2.085   5.832  17.671  0.00  0.00    +0.000 N 
ATOM     25  H   UNL     1       1.840   6.011  16.699  0.00  0.00    +0.000 HD
BRANCH  24  26
ATOM     26  C   UNL     1       2.381   4.471  17.847  0.00  0.00    +0.000 A 
ATOM     27  C   UNL     1       1.443   3.648  18.480  0.00  0.00    +0.000 A 
ATOM     28  C   UNL     1       1.723   2.303  18.726  0.00  0.00    +0.000 A 
ATOM     29  C   UNL     1       2.964   1.813  18.363  0.00  0.00    +0.000 A 
ATOM     30  N   UNL     1       3.918   2.565  17.785  0.00  0.00    +0.000 NA
ATOM     31  C   UNL     1       3.606   3.866  17.556  0.00  0.00    +0.000 A 
ENDBRANCH  24  26
ENDBRANCH   6  24
TORSDOF 4
ENDMDL
MODEL 4
REMARK VINA RESULT:      -9.2      3.018      4.308
REMARK  Name = 
REMARK  5 active torsions:
REMARK  status: ('A' for Active; 'I' for Inactive)
REMARK    1  A    between atoms: C_1  and  C_2
REMARK    2  A    between atoms: C_5  and  N_6
REMARK    3  A    between atoms: C_8  and  C_9
REMARK    4  A    between atoms: C_14  and  N_15
REMARK    5  A    between atoms: N_15  and  C_16
REMARK                            x       y       z     vdW  Elec       q    Type
REMARK                         _______ _______ _______ _____ _____    ______ ____
ROOT
ATOM      1  C   UNL     1       1.125   8.846  20.170  0.00  0.00    +0.000 C 
ATOM      2  O   UNL     1       0.886   8.607  21.353  0.00  0.00    +0.000 OA
ATOM      3  N   UNL     1       1.846   7.980  19.343  0.00  0.00    +0.000 N 
ATOM      4  C   UNL     1       2.127   6.645  19.857  0.00  0.00    +0.000 C 
ATOM      5  C   UNL     1       3.563   6.247  19.566  0.00  0.00    +0.000 C 
ATOM      6  C   UNL     1       3.881   6.311  18.068  0.00  0.00    +0.000 C 
ATOM      7  C   UNL     1       3.517   7.704  17.530  0.00  0.00    +0.000 C 
ATOM      8  C   UNL     1       2.108   8.155  17.915  0.00  0.00    +0.000 C 
ENDROOT
BRANCH   1  11
ATOM      9  N   UNL     1      -1.029  11.622  18.937  0.00  0.00    +0.000 N 
ATOM     10  N   UNL     1      -0.630  10.407  19.473  0.00  0.00    +0.000 NA
ATOM     11  C   UNL     1       0.635  10.194  19.646  0.00  0.00    +0.000 A 
ATOM     12  C   UNL     1       1.687  11.197  19.414  0.00  0.00    +0.000 A 
ATOM     13  C   UNL     1       1.290  12.389  18.968  0.00  0.00    +0.000 A 
ATOM     14  C   UNL     1      -0.132  12.665  18.670  0.00  0.00    +0.000 A 
ATOM     15  O   UNL     1      -0.390  13.786  18.237  0.00  0.00    +0.000 OA
BRANCH   9  20
ATOM     16  C   UNL     1      -6.700  11.920  17.808  0.00  0.00    +0.000 C 
ATOM     17  C   UNL     1      -5.236  11.832  18.130  0.00  0.00    +0.000 A 
ATOM     18  C   UNL     1      -4.353  11.307  17.182  0.00  0.00    +0.000 A 
ATOM     19  C   UNL     1      -2.977  11.235  17.439  0.00  0.00    +0.000 A 
ATOM     20  C   UNL     1      -2.437  11.684  18.649  0.00  0.00    +0.000 A 
ATOM     21  C   UNL     1      -3.334  12.190  19.606  0.00  0.00    +0.000 A 
ATOM     22  C   UNL     1      -4.708  12.275  19.348  0.00  0.00    +0.000 A 
ATOM     23 CL   UNL     1      -5.721  12.951  20.576  0.00  0.00    +0.000 Cl
ENDBRANCH   9  20
ENDBRANCH   1  11
BRANCH   6  24
ATOM     24  N   UNL     1       3.162   5.276  17.307  0.00  0.00    +0.000 N 
ATOM     25  H   UNL     1       3.570   5.102  16.389  0.00  0.00    +0.000 HD
BRANCH  24  26
ATOM     26  C   UNL     1       2.848   4.057  17.930  0.00  0.00    +0.000 A 
ATOM     27  C   UNL     1       1.504   3.709  18.103  0.00  0.00    +0.000 A 
ATOM     28  C   UNL     1       1.150   2.535  18.770  0.00  0.00    +0.000 A 
ATOM     29  C   UNL     1       2.159   1.743  19.286  0.00  0.00    +0.000 A 
ATOM     30  N   UNL     1       3.466   2.045  19.182  0.00  0.00    +0.000 NA
ATOM     31  C   UNL     1       3.770   3.191  18.522  0.00  0.00    +0.000 A 
ENDBRANCH  24  26
ENDBRANCH   6  24
TORSDOF 4
ENDMDL
MODEL 5
REMARK VINA RESULT:      -9.0      3.358      9.260
REMARK  Name = 
REMARK  5 active torsions:
REMARK  status: ('A' for Active; 'I' for Inactive)
REMARK    1  A    between atoms: C_1  and  C_2
REMARK    2  A    between atoms: C_5  and  N_6
REMARK    3  A    between atoms: C_8  and  C_9
REMARK    4  A    between atoms: C_14  and  N_15
REMARK    5  A    between atoms: N_15  and  C_16
REMARK                            x       y       z     vdW  Elec       q    Type
REMARK                         _______ _______ _______ _____ _____    ______ ____
ROOT
ATOM      1  C   UNL     1       1.563   7.827  20.779  0.00  0.00    +0.000 C 
ATOM      2  O   UNL     1       1.516   7.881  22.007  0.00  0.00    +0.000 OA
ATOM      3  N   UNL     1       1.271   8.916  19.952  0.00  0.00    +0.000 N 
ATOM      4  C   UNL     1       1.127  10.219  20.590  0.00  0.00    +0.000 C 
ATOM      5  C   UNL     1      -0.074  10.962  20.030  0.00  0.00    +0.000 C 
ATOM      6  C   UNL     1       0.016  11.128  18.509  0.00  0.00    +0.000 C 
ATOM      7  C   UNL     1       0.234   9.752  17.860  0.00  0.00    +0.000 C 
ATOM      8  C   UNL     1       1.373   8.954  18.494  0.00  0.00    +0.000 C 
ENDROOT
BRANCH   1  11
ATOM      9  N   UNL     1       3.142   5.100  18.796  0.00  0.00    +0.000 N 
ATOM     10  N   UNL     1       2.903   6.341  19.366  0.00  0.00    +0.000 NA
ATOM     11  C   UNL     1       1.904   6.465  20.181  0.00  0.00    +0.000 A 
ATOM     12  C   UNL     1       1.059   5.349  20.635  0.00  0.00    +0.000 A 
ATOM     13  C   UNL     1       1.340   4.144  20.140  0.00  0.00    +0.000 A 
ATOM     14  C   UNL     1       2.413   3.954  19.140  0.00  0.00    +0.000 A 
ATOM     15  O   UNL     1       2.575   2.808  18.725  0.00  0.00    +0.000 OA
BRANCH   9  20
ATOM     16  C   UNL     1       7.343   5.195  14.814  0.00  0.00    +0.000 C 
ATOM     17  C   UNL     1       6.254   5.202  15.847  0.00  0.00    +0.000 A 
ATOM     18  C   UNL     1       5.163   4.340  15.703  0.00  0.00    +0.000 A 
ATOM     19  C   UNL     1       4.143   4.302  16.663  0.00  0.00    +0.000 A 
ATOM     20  C   UNL     1       4.176   5.121  17.796  0.00  0.00    +0.000 A 
ATOM     21  C   UNL     1       5.265   6.001  17.923  0.00  0.00    +0.000 A 
ATOM     22  C   UNL     1       6.293   6.034  16.972  0.00  0.00    +0.000 A 
ATOM     23 CL   UNL     1       7.609   7.123  17.241  0.00  0.00    +0.000 Cl
ENDBRANCH   9  20
ENDBRANCH   1  11
BRANCH   6  24
ATOM     24  N   UNL     1       1.099  12.045  18.117  0.00  0.00    +0.000 N 
ATOM     25  H   UNL     1       1.310  12.008  17.120  0.00  0.00    +0.000 HD
BRANCH  24  26
ATOM     26  C   UNL     1       1.059  13.380  18.548  0.00  0.00    +0.000 A 
ATOM     27  C   UNL     1      -0.141  14.093  18.439  0.00  0.00    +0.000 A 
ATOM     28  C   UNL     1      -0.207  15.440  18.802  0.00  0.00    +0.000 A 
ATOM     29  C   UNL     1       0.949  16.061  19.237  0.00  0.00    +0.000 A 
ATOM     30  N   UNL     1       2.138  15.436  19.328  0.00  0.00    +0.000 NA
ATOM     31  C   UNL     1       2.160  14.126  18.972  0.00  0.00    +0.000 A 
ENDBRANCH  24  26
ENDBRANCH   6  24
TORSDOF 4
ENDMDL
MODEL 6
REMARK VINA RESULT:      -8.9      3.430      9.162
REMARK  Name = 
REMARK  5 active torsions:
REMARK  status: ('A' for Active; 'I' for Inactive)
REMARK    1  A    between atoms: C_1  and  C_2
REMARK    2  A    between atoms: C_5  and  N_6
REMARK    3  A    between atoms: C_8  and  C_9
REMARK    4  A    between atoms: C_14  and  N_15
REMARK    5  A    between atoms: N_15  and  C_16
REMARK                            x       y       z     vdW  Elec       q    Type
REMARK                         _______ _______ _______ _____ _____    ______ ____
ROOT
ATOM      1  C   UNL     1       1.482   7.296  20.714  0.00  0.00    +0.000 C 
ATOM      2  O   UNL     1       1.054   7.285  21.868  0.00  0.00    +0.000 OA
ATOM      3  N   UNL     1       1.457   8.431  19.899  0.00  0.00    +0.000 N 
ATOM      4  C   UNL     1       1.115   9.700  20.529  0.00  0.00    +0.000 C 
ATOM      5  C   UNL     1       0.145  10.487  19.664  0.00  0.00    +0.000 C 
ATOM      6  C   UNL     1       0.705  10.732  18.259  0.00  0.00    +0.000 C 
ATOM      7  C   UNL     1       1.122   9.391  17.636  0.00  0.00    +0.000 C 
ATOM      8  C   UNL     1       2.010   8.546  18.549  0.00  0.00    +0.000 C 
ENDROOT
BRANCH   1  11
ATOM      9  N   UNL     1       3.375   4.711  18.818  0.00  0.00    +0.000 N 
ATOM     10  N   UNL     1       2.975   5.937  19.327  0.00  0.00    +0.000 NA
ATOM     11  C   UNL     1       2.000   5.964  20.179  0.00  0.00    +0.000 A 
ATOM     12  C   UNL     1       1.348   4.767  20.734  0.00  0.00    +0.000 A 
ATOM     13  C   UNL     1       1.787   3.588  20.295  0.00  0.00    +0.000 A 
ATOM     14  C   UNL     1       2.839   3.494  19.259  0.00  0.00    +0.000 A 
ATOM     15  O   UNL     1       3.154   2.361  18.903  0.00  0.00    +0.000 OA
BRANCH   9  20
ATOM     16  C   UNL     1       7.365   5.164  14.647  0.00  0.00    +0.000 C 
ATOM     17  C   UNL     1       6.329   5.078  15.731  0.00  0.00    +0.000 A 
ATOM     18  C   UNL     1       5.285   4.156  15.613  0.00  0.00    +0.000 A 
ATOM     19  C   UNL     1       4.316   4.031  16.617  0.00  0.00    +0.000 A 
ATOM     20  C   UNL     1       4.356   4.821  17.772  0.00  0.00    +0.000 A 
ATOM     21  C   UNL     1       5.397   5.761  17.873  0.00  0.00    +0.000 A 
ATOM     22  C   UNL     1       6.374   5.881  16.876  0.00  0.00    +0.000 A 
ATOM     23 CL   UNL     1       7.634   7.039  17.115  0.00  0.00    +0.000 Cl
ENDBRANCH   9  20
ENDBRANCH   1  11
BRANCH   6  24
ATOM     24  N   UNL     1       1.851  11.656  18.275  0.00  0.00    +0.000 N 
ATOM     25  H   UNL     1       2.511  11.484  17.518  0.00  0.00    +0.000 HD
BRANCH  24  26
ATOM     26  C   UNL     1       1.622  13.035  18.406  0.00  0.00    +0.000 A 
ATOM     27  C   UNL     1       2.718  13.898  18.519  0.00  0.00    +0.000 A 
ATOM     28  C   UNL     1       2.531  15.268  18.709  0.00  0.00    +0.000 A 
ATOM     29  C   UNL     1       1.239  15.746  18.820  0.00  0.00    +0.000 A 
ATOM     30  N   UNL     1       0.149  14.960  18.755  0.00  0.00    +0.000 NA
ATOM     31  C   UNL     1       0.371  13.635  18.563  0.00  0.00    +0.000 A 
ENDBRANCH  24  26
ENDBRANCH   6  24
TORSDOF 4
ENDMDL
MODEL 7
REMARK VINA RESULT:      -8.9      3.784      9.354
REMARK  Name = 
REMARK  5 active torsions:
REMARK  status: ('A' for Active; 'I' for Inactive)
REMARK    1  A    between atoms: C_1  and  C_2
REMARK    2  A    between atoms: C_5  and  N_6
REMARK    3  A    between atoms: C_8  and  C_9
REMARK    4  A    between atoms: C_14  and  N_15
REMARK    5  A    between atoms: N_15  and  C_16
REMARK                            x       y       z     vdW  Elec       q    Type
REMARK                         _______ _______ _______ _____ _____    ______ ____
ROOT
ATOM      1  C   UNL     1       1.992   6.463  20.210  0.00  0.00    +0.000 C 
ATOM      2  O   UNL     1       1.643   6.288  21.376  0.00  0.00    +0.000 OA
ATOM      3  N   UNL     1       1.878   7.691  19.551  0.00  0.00    +0.000 N 
ATOM      4  C   UNL     1       1.538   8.854  20.362  0.00  0.00    +0.000 C 
ATOM      5  C   UNL     1       0.489   9.705  19.667  0.00  0.00    +0.000 C 
ATOM      6  C   UNL     1       0.945  10.151  18.274  0.00  0.00    +0.000 C 
ATOM      7  C   UNL     1       1.362   8.917  17.458  0.00  0.00    +0.000 C 
ATOM      8  C   UNL     1       2.336   7.999  18.197  0.00  0.00    +0.000 C 
ENDROOT
BRANCH   1  11
ATOM      9  N   UNL     1       3.900   4.209  17.940  0.00  0.00    +0.000 N 
ATOM     10  N   UNL     1       3.494   5.340  18.633  0.00  0.00    +0.000 NA
ATOM     11  C   UNL     1       2.516   5.232  19.475  0.00  0.00    +0.000 A 
ATOM     12  C   UNL     1       1.864   3.961  19.833  0.00  0.00    +0.000 A 
ATOM     13  C   UNL     1       2.308   2.866  19.217  0.00  0.00    +0.000 A 
ATOM     14  C   UNL     1       3.364   2.938  18.184  0.00  0.00    +0.000 A 
ATOM     15  O   UNL     1       3.683   1.874  17.657  0.00  0.00    +0.000 OA
BRANCH   9  20
ATOM     16  C   UNL     1       7.821   5.316  13.828  0.00  0.00    +0.000 C 
ATOM     17  C   UNL     1       6.802   4.999  14.884  0.00  0.00    +0.000 A 
ATOM     18  C   UNL     1       6.996   5.461  16.188  0.00  0.00    +0.000 A 
ATOM     19  C   UNL     1       6.052   5.206  17.192  0.00  0.00    +0.000 A 
ATOM     20  C   UNL     1       4.884   4.483  16.929  0.00  0.00    +0.000 A 
ATOM     21  C   UNL     1       4.706   4.002  15.619  0.00  0.00    +0.000 A 
ATOM     22  C   UNL     1       5.642   4.265  14.610  0.00  0.00    +0.000 A 
ATOM     23 CL   UNL     1       5.310   3.664  13.023  0.00  0.00    +0.000 Cl
ENDBRANCH   9  20
ENDBRANCH   1  11
BRANCH   6  24
ATOM     24  N   UNL     1       2.061  11.109  18.339  0.00  0.00    +0.000 N 
ATOM     25  H   UNL     1       2.765  10.949  17.620  0.00  0.00    +0.000 HD
BRANCH  24  26
ATOM     26  C   UNL     1       1.782  12.482  18.439  0.00  0.00    +0.000 A 
ATOM     27  C   UNL     1       2.837  13.397  18.345  0.00  0.00    +0.000 A 
ATOM     28  C   UNL     1       2.611  14.766  18.498  0.00  0.00    +0.000 A 
ATOM     29  C   UNL     1       1.326  15.192  18.779  0.00  0.00    +0.000 A 
ATOM     30  N   UNL     1       0.281  14.357  18.916  0.00  0.00    +0.000 NA
ATOM     31  C   UNL     1       0.539  13.034  18.754  0.00  0.00    +0.000 A 
ENDBRANCH  24  26
ENDBRANCH   6  24
TORSDOF 4
ENDMDL
MODEL 8
REMARK VINA RESULT:      -8.8      3.623      5.541
REMARK  Name = 
REMARK  5 active torsions:
REMARK  status: ('A' for Active; 'I' for Inactive)
REMARK    1  A    between atoms: C_1  and  C_2
REMARK    2  A    between atoms: C_5  and  N_6
REMARK    3  A    between atoms: C_8  and  C_9
REMARK    4  A    between atoms: C_14  and  N_15
REMARK    5  A    between atoms: N_15  and  C_16
REMARK                            x       y       z     vdW  Elec       q    Type
REMARK                         _______ _______ _______ _____ _____    ______ ____
ROOT
ATOM      1  C   UNL     1       0.946   9.759  20.557  0.00  0.00    +0.000 C 
ATOM      2  O   UNL     1       0.790   9.625  21.770  0.00  0.00    +0.000 OA
ATOM      3  N   UNL     1       1.437   8.744  19.730  0.00  0.00    +0.000 N 
ATOM      4  C   UNL     1       1.551   7.410  20.306  0.00  0.00    +0.000 C 
ATOM      5  C   UNL     1       2.871   6.767  19.916  0.00  0.00    +0.000 C 
ATOM      6  C   UNL     1       3.046   6.700  18.395  0.00  0.00    +0.000 C 
ATOM      7  C   UNL     1       2.857   8.103  17.800  0.00  0.00    +0.000 C 
ATOM      8  C   UNL     1       1.582   8.800  18.276  0.00  0.00    +0.000 C 
ENDROOT
BRANCH   1  11
ATOM      9  N   UNL     1       1.247  13.242  19.275  0.00  0.00    +0.000 N 
ATOM     10  N   UNL     1       1.582  11.976  19.731  0.00  0.00    +0.000 NA
ATOM     11  C   UNL     1       0.628  11.140  19.989  0.00  0.00    +0.000 A 
ATOM     12  C   UNL     1      -0.798  11.399  19.729  0.00  0.00    +0.000 A 
ATOM     13  C   UNL     1      -1.107  12.591  19.221  0.00  0.00    +0.000 A 
ATOM     14  C   UNL     1      -0.070  13.620  18.985  0.00  0.00    +0.000 A 
ATOM     15  O   UNL     1      -0.463  14.696  18.540  0.00  0.00    +0.000 OA
BRANCH   9  20
ATOM     16  C   UNL     1       5.811  16.786  18.908  0.00  0.00    +0.000 C 
ATOM     17  C   UNL     1       4.614  15.886  19.025  0.00  0.00    +0.000 A 
ATOM     18  C   UNL     1       4.043  15.348  17.868  0.00  0.00    +0.000 A 
ATOM     19  C   UNL     1       2.942  14.483  17.943  0.00  0.00    +0.000 A 
ATOM     20  C   UNL     1       2.375  14.128  19.171  0.00  0.00    +0.000 A 
ATOM     21  C   UNL     1       2.942  14.691  20.329  0.00  0.00    +0.000 A 
ATOM     22  C   UNL     1       4.050  15.545  20.259  0.00  0.00    +0.000 A 
ATOM     23 CL   UNL     1       4.697  16.152  21.743  0.00  0.00    +0.000 Cl
ENDBRANCH   9  20
ENDBRANCH   1  11
BRANCH   6  24
ATOM     24  N   UNL     1       2.101   5.759  17.772  0.00  0.00    +0.000 N 
ATOM     25  H   UNL     1       1.939   5.954  16.785  0.00  0.00    +0.000 HD
BRANCH  24  26
ATOM     26  C   UNL     1       2.278   4.379  17.964  0.00  0.00    +0.000 A 
ATOM     27  C   UNL     1       1.294   3.658  18.651  0.00  0.00    +0.000 A 
ATOM     28  C   UNL     1       1.459   2.297  18.913  0.00  0.00    +0.000 A 
ATOM     29  C   UNL     1       2.633   1.687  18.510  0.00  0.00    +0.000 A 
ATOM     30  N   UNL     1       3.627   2.337  17.879  0.00  0.00    +0.000 NA
ATOM     31  C   UNL     1       3.427   3.658  17.636  0.00  0.00    +0.000 A 
ENDBRANCH  24  26
ENDBRANCH   6  24
TORSDOF 4
ENDMDL
MODEL 9
REMARK VINA RESULT:      -8.8      2.830      4.289
REMARK  Name = 
REMARK  5 active torsions:
REMARK  status: ('A' for Active; 'I' for Inactive)
REMARK    1  A    between atoms: C_1  and  C_2
REMARK    2  A    between atoms: C_5  and  N_6
REMARK    3  A    between atoms: C_8  and  C_9
REMARK    4  A    between atoms: C_14  and  N_15
REMARK    5  A    between atoms: N_15  and  C_16
REMARK                            x       y       z     vdW  Elec       q    Type
REMARK                         _______ _______ _______ _____ _____    ______ ____
ROOT
ATOM      1  C   UNL     1       1.011   9.475  21.080  0.00  0.00    +0.000 C 
ATOM      2  O   UNL     1       1.113   9.211  22.277  0.00  0.00    +0.000 OA
ATOM      3  N   UNL     1       1.429   8.609  20.066  0.00  0.00    +0.000 N 
ATOM      4  C   UNL     1       1.791   7.250  20.454  0.00  0.00    +0.000 C 
ATOM      5  C   UNL     1       3.066   6.812  19.754  0.00  0.00    +0.000 C 
ATOM      6  C   UNL     1       2.943   6.908  18.230  0.00  0.00    +0.000 C 
ATOM      7  C   UNL     1       2.497   8.327  17.844  0.00  0.00    +0.000 C 
ATOM      8  C   UNL     1       1.277   8.815  18.626  0.00  0.00    +0.000 C 
ENDROOT
BRANCH   1  11
ATOM      9  N   UNL     1      -1.289  12.360  20.580  0.00  0.00    +0.000 N 
ATOM     10  N   UNL     1      -0.802  11.118  20.957  0.00  0.00    +0.000 NA
ATOM     11  C   UNL     1       0.447  10.853  20.743  0.00  0.00    +0.000 A 
ATOM     12  C   UNL     1       1.425  11.821  20.219  0.00  0.00    +0.000 A 
ATOM     13  C   UNL     1       0.966  13.037  19.927  0.00  0.00    +0.000 A 
ATOM     14  C   UNL     1      -0.468  13.374  20.070  0.00  0.00    +0.000 A 
ATOM     15  O   UNL     1      -0.794  14.515  19.748  0.00  0.00    +0.000 OA
BRANCH   9  20
ATOM     16  C   UNL     1      -7.019  12.893  21.210  0.00  0.00    +0.000 C 
ATOM     17  C   UNL     1      -5.532  12.737  21.073  0.00  0.00    +0.000 A 
ATOM     18  C   UNL     1      -4.980  12.479  19.815  0.00  0.00    +0.000 A 
ATOM     19  C   UNL     1      -3.595  12.354  19.647  0.00  0.00    +0.000 A 
ATOM     20  C   UNL     1      -2.714  12.482  20.727  0.00  0.00    +0.000 A 
ATOM     21  C   UNL     1      -3.278  12.720  21.993  0.00  0.00    +0.000 A 
ATOM     22  C   UNL     1      -4.662  12.857  22.163  0.00  0.00    +0.000 A 
ATOM     23 CL   UNL     1      -5.252  13.189  23.754  0.00  0.00    +0.000 Cl
ENDBRANCH   9  20
ENDBRANCH   1  11
BRANCH   6  24
ATOM     24  N   UNL     1       1.994   5.920  17.690  0.00  0.00    +0.000 N 
ATOM     25  H   UNL     1       1.723   6.113  16.727  0.00  0.00    +0.000 HD
BRANCH  24  26
ATOM     26  C   UNL     1       2.264   4.551  17.846  0.00  0.00    +0.000 A 
ATOM     27  C   UNL     1       1.341   3.749  18.526  0.00  0.00    +0.000 A 
ATOM     28  C   UNL     1       1.600   2.396  18.753  0.00  0.00    +0.000 A 
ATOM     29  C   UNL     1       2.806   1.877  18.321  0.00  0.00    +0.000 A 
ATOM     30  N   UNL     1       3.746   2.607  17.693  0.00  0.00    +0.000 NA
ATOM     31  C   UNL     1       3.455   3.916  17.486  0.00  0.00    +0.000 A 
ENDBRANCH  24  26
ENDBRANCH   6  24
TORSDOF 4
ENDMDL
