MODEL 1
REMARK VINA RESULT:      -9.0      0.000      0.000
REMARK  Name = 
REMARK  8 active torsions:
REMARK  status: ('A' for Active; 'I' for Inactive)
REMARK    1  A    between atoms: C_1  and  C_2
REMARK    2  A    between atoms: C_2  and  C_3
REMARK    3  A    between atoms: C_8  and  C_9
REMARK    4  A    between atoms: C_13  and  N_14
REMARK    5  A    between atoms: C_19  and  C_20
REMARK    6  A    between atoms: C_20  and  C_21
REMARK    7  A    between atoms: C_20  and  O_22
REMARK    8  A    between atoms: C_24  and  C_25
REMARK                            x       y       z     vdW  Elec       q    Type
REMARK                         _______ _______ _______ _____ _____    ______ ____
ROOT
ATOM      1  N   UNL     1       3.814   4.924  19.238  0.00  0.00    +0.000 N 
ATOM      2  C   UNL     1       5.177   5.503  19.376  0.00  0.00    +0.000 C 
ATOM      3  C   UNL     1       5.779   5.233  18.030  0.00  0.00    +0.000 A 
ATOM      4  C   UNL     1       5.135   4.109  17.512  0.00  0.00    +0.000 A 
ATOM      5  C   UNL     1       5.330   3.654  16.222  0.00  0.00    +0.000 A 
ATOM      6  C   UNL     1       6.220   4.363  15.404  0.00  0.00    +0.000 A 
ATOM      7  C   UNL     1       6.863   5.515  15.919  0.00  0.00    +0.000 A 
ATOM      8  C   UNL     1       6.653   5.972  17.241  0.00  0.00    +0.000 A 
ATOM      9  C   UNL     1       3.971   3.807  18.377  0.00  0.00    +0.000 C 
ATOM     10  O   UNL     1       3.210   2.877  18.193  0.00  0.00    +0.000 OA
ENDROOT
BRANCH   1  15
ATOM     11  C   UNL     1       1.960   8.039  19.613  0.00  0.00    +0.000 A 
ATOM     12  C   UNL     1       2.501   8.645  18.457  0.00  0.00    +0.000 A 
ATOM     13  C   UNL     1       2.981   7.894  17.386  0.00  0.00    +0.000 A 
ATOM     14  C   UNL     1       3.092   6.521  17.510  0.00  0.00    +0.000 A 
ATOM     15  C   UNL     1       2.882   5.943  18.766  0.00  0.00    +0.000 A 
ATOM     16  C   UNL     1       2.150   6.654  19.729  0.00  0.00    +0.000 A 
BRANCH  11  22
ATOM     17  C   UNL     1       0.194   9.792  20.362  0.00  0.00    +0.000 A 
ATOM     18  C   UNL     1      -0.268  10.525  21.461  0.00  0.00    +0.000 A 
ATOM     19  N   UNL     1       0.147  10.362  22.734  0.00  0.00    +0.000 NA
ATOM     20  N   UNL     1       1.079   9.445  22.994  0.00  0.00    +0.000 NA
ATOM     21  C   UNL     1       1.597   8.743  21.961  0.00  0.00    +0.000 A 
ATOM     22  C   UNL     1       1.221   8.860  20.614  0.00  0.00    +0.000 A 
BRANCH  17  24
ATOM     23  C   UNL     1      -1.594  11.014  18.934  0.00  0.00    +0.000 C 
ATOM     24  C   UNL     1      -0.394  10.067  18.997  0.00  0.00    +0.000 C 
ENDBRANCH  17  24
ENDBRANCH  11  22
ENDBRANCH   1  15
BRANCH   8  25
ATOM     25  C   UNL     1       7.295   7.262  17.683  0.00  0.00    +0.000 C 
ATOM     26  F   UNL     1       8.014   7.161  18.834  0.00  0.00    +0.000 F 
ATOM     27  F   UNL     1       8.160   7.750  16.751  0.00  0.00    +0.000 F 
ATOM     28  F   UNL     1       6.383   8.251  17.900  0.00  0.00    +0.000 F 
ENDBRANCH   8  25
BRANCH   6  29
ATOM     29  C   UNL     1       6.469   3.936  13.974  0.00  0.00    +0.000 C 
ATOM     30  C   UNL     1       5.163   3.750  13.211  0.00  0.00    +0.000 C 
BRANCH  29  31
ATOM     31  O   UNL     1       7.296   4.894  13.324  0.00  0.00    +0.000 OA
ATOM     32  H   UNL     1       6.723   5.528  12.861  0.00  0.00    +0.000 HD
ENDBRANCH  29  31
ENDBRANCH   6  29
TORSDOF 6
ENDMDL
MODEL 2
REMARK VINA RESULT:      -8.4      4.582      8.648
REMARK  Name = 
REMARK  8 active torsions:
REMARK  status: ('A' for Active; 'I' for Inactive)
REMARK    1  A    between atoms: C_1  and  C_2
REMARK    2  A    between atoms: C_2  and  C_3
REMARK    3  A    between atoms: C_8  and  C_9
REMARK    4  A    between atoms: C_13  and  N_14
REMARK    5  A    between atoms: C_19  and  C_20
REMARK    6  A    between atoms: C_20  and  C_21
REMARK    7  A    between atoms: C_20  and  O_22
REMARK    8  A    between atoms: C_24  and  C_25
REMARK                            x       y       z     vdW  Elec       q    Type
REMARK                         _______ _______ _______ _____ _____    ______ ____
ROOT
ATOM      1  N   UNL     1       0.286   8.750  21.047  0.00  0.00    +0.000 N 
ATOM      2  C   UNL     1      -0.917   8.894  20.184  0.00  0.00    +0.000 C 
ATOM      3  C   UNL     1      -0.957  10.371  19.931  0.00  0.00    +0.000 A 
ATOM      4  C   UNL     1      -0.328  10.989  21.013  0.00  0.00    +0.000 A 
ATOM      5  C   UNL     1      -0.049  12.341  21.052  0.00  0.00    +0.000 A 
ATOM      6  C   UNL     1      -0.420  13.120  19.948  0.00  0.00    +0.000 A 
ATOM      7  C   UNL     1      -1.042  12.495  18.840  0.00  0.00    +0.000 A 
ATOM      8  C   UNL     1      -1.321  11.109  18.811  0.00  0.00    +0.000 A 
ATOM      9  C   UNL     1       0.331   9.937  21.822  0.00  0.00    +0.000 C 
ATOM     10  O   UNL     1       0.958  10.157  22.841  0.00  0.00    +0.000 OA
ENDROOT
BRANCH   1  15
ATOM     11  C   UNL     1       2.622   6.558  19.310  0.00  0.00    +0.000 A 
ATOM     12  C   UNL     1       2.416   7.139  18.039  0.00  0.00    +0.000 A 
ATOM     13  C   UNL     1       1.987   8.456  17.890  0.00  0.00    +0.000 A 
ATOM     14  C   UNL     1       1.589   9.175  19.003  0.00  0.00    +0.000 A 
ATOM     15  C   UNL     1       1.466   8.504  20.223  0.00  0.00    +0.000 A 
ATOM     16  C   UNL     1       2.148   7.292  20.407  0.00  0.00    +0.000 A 
BRANCH  11  22
ATOM     17  C   UNL     1       2.764   4.007  19.784  0.00  0.00    +0.000 A 
ATOM     18  C   UNL     1       3.655   2.939  19.941  0.00  0.00    +0.000 A 
ATOM     19  N   UNL     1       4.985   2.998  19.720  0.00  0.00    +0.000 NA
ATOM     20  N   UNL     1       5.522   4.155  19.332  0.00  0.00    +0.000 NA
ATOM     21  C   UNL     1       4.713   5.232  19.213  0.00  0.00    +0.000 A 
ATOM     22  C   UNL     1       3.327   5.250  19.430  0.00  0.00    +0.000 A 
BRANCH  17  24
ATOM     23  C   UNL     1       0.573   2.789  19.117  0.00  0.00    +0.000 C 
ATOM     24  C   UNL     1       1.292   3.776  20.037  0.00  0.00    +0.000 C 
ENDBRANCH  17  24
ENDBRANCH  11  22
ENDBRANCH   1  15
BRANCH   8  25
ATOM     25  C   UNL     1      -1.893  10.501  17.555  0.00  0.00    +0.000 C 
ATOM     26  F   UNL     1      -1.083   9.581  16.963  0.00  0.00    +0.000 F 
ATOM     27  F   UNL     1      -3.070   9.859  17.786  0.00  0.00    +0.000 F 
ATOM     28  F   UNL     1      -2.158  11.434  16.598  0.00  0.00    +0.000 F 
ENDBRANCH   8  25
BRANCH   6  29
ATOM     29  C   UNL     1      -0.129  14.605  19.912  0.00  0.00    +0.000 C 
ATOM     30  C   UNL     1       1.015  14.927  18.958  0.00  0.00    +0.000 C 
BRANCH  29  31
ATOM     31  O   UNL     1      -1.305  15.315  19.541  0.00  0.00    +0.000 OA
ATOM     32  H   UNL     1      -1.695  15.699  20.344  0.00  0.00    +0.000 HD
ENDBRANCH  29  31
ENDBRANCH   6  29
TORSDOF 6
ENDMDL
MODEL 3
REMARK VINA RESULT:      -8.1      4.370      8.518
REMARK  Name = 
REMARK  8 active torsions:
REMARK  status: ('A' for Active; 'I' for Inactive)
REMARK    1  A    between atoms: C_1  and  C_2
REMARK    2  A    between atoms: C_2  and  C_3
REMARK    3  A    between atoms: C_8  and  C_9
REMARK    4  A    between atoms: C_13  and  N_14
REMARK    5  A    between atoms: C_19  and  C_20
REMARK    6  A    between atoms: C_20  and  C_21
REMARK    7  A    between atoms: C_20  and  O_22
REMARK    8  A    between atoms: C_24  and  C_25
REMARK                            x       y       z     vdW  Elec       q    Type
REMARK                         _______ _______ _______ _____ _____    ______ ____
ROOT
ATOM      1  N   UNL     1       0.763   8.312  21.130  0.00  0.00    +0.000 N 
ATOM      2  C   UNL     1      -0.511   8.587  20.413  0.00  0.00    +0.000 C 
ATOM      3  C   UNL     1      -0.425  10.061  20.157  0.00  0.00    +0.000 A 
ATOM      4  C   UNL     1       0.388  10.603  21.153  0.00  0.00    +0.000 A 
ATOM      5  C   UNL     1       0.810  11.918  21.149  0.00  0.00    +0.000 A 
ATOM      6  C   UNL     1       0.397  12.739  20.091  0.00  0.00    +0.000 A 
ATOM      7  C   UNL     1      -0.414  12.188  19.068  0.00  0.00    +0.000 A 
ATOM      8  C   UNL     1      -0.838  10.839  19.081  0.00  0.00    +0.000 A 
ATOM      9  C   UNL     1       1.023   9.484  21.887  0.00  0.00    +0.000 C 
ATOM     10  O   UNL     1       1.785   9.631  22.823  0.00  0.00    +0.000 OA
ENDROOT
BRANCH   1  15
ATOM     11  C   UNL     1       2.359   6.007  18.802  0.00  0.00    +0.000 A 
ATOM     12  C   UNL     1       2.280   6.877  17.692  0.00  0.00    +0.000 A 
ATOM     13  C   UNL     1       2.223   8.262  17.842  0.00  0.00    +0.000 A 
ATOM     14  C   UNL     1       2.070   8.806  19.105  0.00  0.00    +0.000 A 
ATOM     15  C   UNL     1       1.806   7.948  20.176  0.00  0.00    +0.000 A 
ATOM     16  C   UNL     1       2.136   6.589  20.059  0.00  0.00    +0.000 A 
BRANCH  11  22
ATOM     17  C   UNL     1       2.164   3.468  19.317  0.00  0.00    +0.000 A 
ATOM     18  C   UNL     1       2.711   2.214  19.020  0.00  0.00    +0.000 A 
ATOM     19  N   UNL     1       3.639   1.976  18.069  0.00  0.00    +0.000 NA
ATOM     20  N   UNL     1       4.098   2.999  17.349  0.00  0.00    +0.000 NA
ATOM     21  C   UNL     1       3.641   4.241  17.629  0.00  0.00    +0.000 A 
ATOM     22  C   UNL     1       2.684   4.566  18.603  0.00  0.00    +0.000 A 
BRANCH  17  24
ATOM     23  C   UNL     1       1.316   2.740  21.657  0.00  0.00    +0.000 C 
ATOM     24  C   UNL     1       1.105   3.569  20.390  0.00  0.00    +0.000 C 
ENDBRANCH  17  24
ENDBRANCH  11  22
ENDBRANCH   1  15
BRANCH   8  25
ATOM     25  C   UNL     1      -1.614  10.302  17.906  0.00  0.00    +0.000 C 
ATOM     26  F   UNL     1      -2.758   9.648  18.246  0.00  0.00    +0.000 F 
ATOM     27  F   UNL     1      -1.996  11.289  17.049  0.00  0.00    +0.000 F 
ATOM     28  F   UNL     1      -0.889   9.422  17.161  0.00  0.00    +0.000 F 
ENDBRANCH   8  25
BRANCH   6  29
ATOM     29  C   UNL     1       0.836  14.184  20.011  0.00  0.00    +0.000 C 
ATOM     30  C   UNL     1      -0.042  14.983  19.056  0.00  0.00    +0.000 C 
BRANCH  29  31
ATOM     31  O   UNL     1       0.819  14.764  21.310  0.00  0.00    +0.000 OA
ATOM     32  H   UNL     1       1.150  14.105  21.943  0.00  0.00    +0.000 HD
ENDBRANCH  29  31
ENDBRANCH   6  29
TORSDOF 6
ENDMDL
MODEL 4
REMARK VINA RESULT:      -8.0      4.271      8.580
REMARK  Name = 
REMARK  8 active torsions:
REMARK  status: ('A' for Active; 'I' for Inactive)
REMARK    1  A    between atoms: C_1  and  C_2
REMARK    2  A    between atoms: C_2  and  C_3
REMARK    3  A    between atoms: C_8  and  C_9
REMARK    4  A    between atoms: C_13  and  N_14
REMARK    5  A    between atoms: C_19  and  C_20
REMARK    6  A    between atoms: C_20  and  C_21
REMARK    7  A    between atoms: C_20  and  O_22
REMARK    8  A    between atoms: C_24  and  C_25
REMARK                            x       y       z     vdW  Elec       q    Type
REMARK                         _______ _______ _______ _____ _____    ______ ____
ROOT
ATOM      1  N   UNL     1       0.572   8.553  21.029  0.00  0.00    +0.000 N 
ATOM      2  C   UNL     1      -0.691   8.716  20.260  0.00  0.00    +0.000 C 
ATOM      3  C   UNL     1      -0.701  10.185  19.965  0.00  0.00    +0.000 A 
ATOM      4  C   UNL     1       0.032  10.811  20.973  0.00  0.00    +0.000 A 
ATOM      5  C   UNL     1       0.359  12.152  20.947  0.00  0.00    +0.000 A 
ATOM      6  C   UNL     1      -0.073  12.913  19.852  0.00  0.00    +0.000 A 
ATOM      7  C   UNL     1      -0.803  12.278  18.817  0.00  0.00    +0.000 A 
ATOM      8  C   UNL     1      -1.129  10.903  18.854  0.00  0.00    +0.000 A 
ATOM      9  C   UNL     1       0.719   9.760  21.760  0.00  0.00    +0.000 C 
ATOM     10  O   UNL     1       1.433   9.986  22.719  0.00  0.00    +0.000 OA
ENDROOT
BRANCH   1  15
ATOM     11  C   UNL     1       2.336   6.364  18.710  0.00  0.00    +0.000 A 
ATOM     12  C   UNL     1       2.305   7.275  17.631  0.00  0.00    +0.000 A 
ATOM     13  C   UNL     1       2.216   8.652  17.830  0.00  0.00    +0.000 A 
ATOM     14  C   UNL     1       1.983   9.145  19.101  0.00  0.00    +0.000 A 
ATOM     15  C   UNL     1       1.673   8.242  20.122  0.00  0.00    +0.000 A 
ATOM     16  C   UNL     1       2.033   6.894  19.973  0.00  0.00    +0.000 A 
BRANCH  11  22
ATOM     17  C   UNL     1       3.964   4.341  18.620  0.00  0.00    +0.000 A 
ATOM     18  C   UNL     1       4.074   3.001  18.229  0.00  0.00    +0.000 A 
ATOM     19  N   UNL     1       3.055   2.233  17.790  0.00  0.00    +0.000 NA
ATOM     20  N   UNL     1       1.838   2.770  17.701  0.00  0.00    +0.000 NA
ATOM     21  C   UNL     1       1.685   4.076  18.019  0.00  0.00    +0.000 A 
ATOM     22  C   UNL     1       2.695   4.937  18.475  0.00  0.00    +0.000 A 
BRANCH  17  24
ATOM     23  C   UNL     1       5.981   5.889  18.105  0.00  0.00    +0.000 C 
ATOM     24  C   UNL     1       5.195   5.061  19.122  0.00  0.00    +0.000 C 
ENDBRANCH  17  24
ENDBRANCH  11  22
ENDBRANCH   1  15
BRANCH   8  25
ATOM     25  C   UNL     1      -1.820  10.281  17.667  0.00  0.00    +0.000 C 
ATOM     26  F   UNL     1      -2.964   9.612  17.977  0.00  0.00    +0.000 F 
ATOM     27  F   UNL     1      -2.178  11.208  16.737  0.00  0.00    +0.000 F 
ATOM     28  F   UNL     1      -1.030   9.383  17.016  0.00  0.00    +0.000 F 
ENDBRANCH   8  25
BRANCH   6  29
ATOM     29  C   UNL     1       0.264  14.384  19.747  0.00  0.00    +0.000 C 
ATOM     30  C   UNL     1       1.659  14.598  19.173  0.00  0.00    +0.000 C 
BRANCH  29  31
ATOM     31  O   UNL     1      -0.712  15.044  18.949  0.00  0.00    +0.000 OA
ATOM     32  H   UNL     1      -0.310  15.260  18.091  0.00  0.00    +0.000 HD
ENDBRANCH  29  31
ENDBRANCH   6  29
TORSDOF 6
ENDMDL
MODEL 5
REMARK VINA RESULT:      -8.0      4.583      8.828
REMARK  Name = 
REMARK  8 active torsions:
REMARK  status: ('A' for Active; 'I' for Inactive)
REMARK    1  A    between atoms: C_1  and  C_2
REMARK    2  A    between atoms: C_2  and  C_3
REMARK    3  A    between atoms: C_8  and  C_9
REMARK    4  A    between atoms: C_13  and  N_14
REMARK    5  A    between atoms: C_19  and  C_20
REMARK    6  A    between atoms: C_20  and  C_21
REMARK    7  A    between atoms: C_20  and  O_22
REMARK    8  A    between atoms: C_24  and  C_25
REMARK                            x       y       z     vdW  Elec       q    Type
REMARK                         _______ _______ _______ _____ _____    ______ ____
ROOT
ATOM      1  N   UNL     1       0.338   8.679  21.128  0.00  0.00    +0.000 N 
ATOM      2  C   UNL     1      -0.867   9.038  20.334  0.00  0.00    +0.000 C 
ATOM      3  C   UNL     1      -0.834  10.537  20.359  0.00  0.00    +0.000 A 
ATOM      4  C   UNL     1      -0.160  10.912  21.521  0.00  0.00    +0.000 A 
ATOM      5  C   UNL     1       0.189  12.218  21.803  0.00  0.00    +0.000 A 
ATOM      6  C   UNL     1      -0.155  13.206  20.871  0.00  0.00    +0.000 A 
ATOM      7  C   UNL     1      -0.824  12.828  19.681  0.00  0.00    +0.000 A 
ATOM      8  C   UNL     1      -1.174  11.486  19.402  0.00  0.00    +0.000 A 
ATOM      9  C   UNL     1       0.454   9.698  22.108  0.00  0.00    +0.000 C 
ATOM     10  O   UNL     1       1.106   9.694  23.135  0.00  0.00    +0.000 OA
ENDROOT
BRANCH   1  15
ATOM     11  C   UNL     1       2.682   6.697  19.163  0.00  0.00    +0.000 A 
ATOM     12  C   UNL     1       2.404   7.350  17.942  0.00  0.00    +0.000 A 
ATOM     13  C   UNL     1       1.922   8.657  17.897  0.00  0.00    +0.000 A 
ATOM     14  C   UNL     1       1.543   9.286  19.070  0.00  0.00    +0.000 A 
ATOM     15  C   UNL     1       1.493   8.533  20.247  0.00  0.00    +0.000 A 
ATOM     16  C   UNL     1       2.225   7.339  20.324  0.00  0.00    +0.000 A 
BRANCH  11  22
ATOM     17  C   UNL     1       2.904   4.108  19.145  0.00  0.00    +0.000 A 
ATOM     18  C   UNL     1       3.819   3.056  19.274  0.00  0.00    +0.000 A 
ATOM     19  N   UNL     1       5.159   3.196  19.356  0.00  0.00    +0.000 NA
ATOM     20  N   UNL     1       5.679   4.422  19.325  0.00  0.00    +0.000 NA
ATOM     21  C   UNL     1       4.837   5.478  19.252  0.00  0.00    +0.000 A 
ATOM     22  C   UNL     1       3.438   5.412  19.170  0.00  0.00    +0.000 A 
BRANCH  17  24
ATOM     23  C   UNL     1       0.708   3.375  20.314  0.00  0.00    +0.000 C 
ATOM     24  C   UNL     1       1.431   3.789  19.032  0.00  0.00    +0.000 C 
ENDBRANCH  17  24
ENDBRANCH  11  22
ENDBRANCH   1  15
BRANCH   8  25
ATOM     25  C   UNL     1      -1.794  11.151  18.070  0.00  0.00    +0.000 C 
ATOM     26  F   UNL     1      -1.847  12.197  17.201  0.00  0.00    +0.000 F 
ATOM     27  F   UNL     1      -1.111  10.169  17.419  0.00  0.00    +0.000 F 
ATOM     28  F   UNL     1      -3.073  10.700  18.189  0.00  0.00    +0.000 F 
ENDBRANCH   8  25
BRANCH   6  29
ATOM     29  C   UNL     1       0.212  14.655  21.103  0.00  0.00    +0.000 C 
ATOM     30  C   UNL     1      -0.934  15.588  20.731  0.00  0.00    +0.000 C 
BRANCH  29  31
ATOM     31  O   UNL     1       0.590  14.843  22.461  0.00  0.00    +0.000 OA
ATOM     32  H   UNL     1      -0.123  14.501  23.026  0.00  0.00    +0.000 HD
ENDBRANCH  29  31
ENDBRANCH   6  29
TORSDOF 6
ENDMDL
MODEL 6
REMARK VINA RESULT:      -7.9      4.205      8.543
REMARK  Name = 
REMARK  8 active torsions:
REMARK  status: ('A' for Active; 'I' for Inactive)
REMARK    1  A    between atoms: C_1  and  C_2
REMARK    2  A    between atoms: C_2  and  C_3
REMARK    3  A    between atoms: C_8  and  C_9
REMARK    4  A    between atoms: C_13  and  N_14
REMARK    5  A    between atoms: C_19  and  C_20
REMARK    6  A    between atoms: C_20  and  C_21
REMARK    7  A    between atoms: C_20  and  O_22
REMARK    8  A    between atoms: C_24  and  C_25
REMARK                            x       y       z     vdW  Elec       q    Type
REMARK                         _______ _______ _______ _____ _____    ______ ____
ROOT
ATOM      1  N   UNL     1       0.763   8.332  21.102  0.00  0.00    +0.000 N 
ATOM      2  C   UNL     1      -0.510   8.610  20.384  0.00  0.00    +0.000 C 
ATOM      3  C   UNL     1      -0.421  10.084  20.129  0.00  0.00    +0.000 A 
ATOM      4  C   UNL     1       0.391  10.623  21.128  0.00  0.00    +0.000 A 
ATOM      5  C   UNL     1       0.815  11.938  21.128  0.00  0.00    +0.000 A 
ATOM      6  C   UNL     1       0.405  12.761  20.071  0.00  0.00    +0.000 A 
ATOM      7  C   UNL     1      -0.404  12.213  19.045  0.00  0.00    +0.000 A 
ATOM      8  C   UNL     1      -0.830  10.865  19.055  0.00  0.00    +0.000 A 
ATOM      9  C   UNL     1       1.023   9.502  21.861  0.00  0.00    +0.000 C 
ATOM     10  O   UNL     1       1.783   9.646  22.800  0.00  0.00    +0.000 OA
ENDROOT
BRANCH   1  15
ATOM     11  C   UNL     1       2.319   6.057  18.718  0.00  0.00    +0.000 A 
ATOM     12  C   UNL     1       2.282   6.966  17.637  0.00  0.00    +0.000 A 
ATOM     13  C   UNL     1       2.264   8.346  17.833  0.00  0.00    +0.000 A 
ATOM     14  C   UNL     1       2.111   8.853  19.111  0.00  0.00    +0.000 A 
ATOM     15  C   UNL     1       1.807   7.968  20.149  0.00  0.00    +0.000 A 
ATOM     16  C   UNL     1       2.097   6.604  19.991  0.00  0.00    +0.000 A 
BRANCH  11  22
ATOM     17  C   UNL     1       3.829   4.039  18.086  0.00  0.00    +0.000 A 
ATOM     18  C   UNL     1       3.816   2.667  17.808  0.00  0.00    +0.000 A 
ATOM     19  N   UNL     1       2.745   1.857  17.944  0.00  0.00    +0.000 NA
ATOM     20  N   UNL     1       1.593   2.379  18.364  0.00  0.00    +0.000 NA
ATOM     21  C   UNL     1       1.537   3.710  18.599  0.00  0.00    +0.000 A 
ATOM     22  C   UNL     1       2.603   4.614  18.474  0.00  0.00    +0.000 A 
BRANCH  17  24
ATOM     23  C   UNL     1       5.859   5.217  19.190  0.00  0.00    +0.000 C 
ATOM     24  C   UNL     1       5.119   4.809  17.916  0.00  0.00    +0.000 C 
ENDBRANCH  17  24
ENDBRANCH  11  22
ENDBRANCH   1  15
BRANCH   8  25
ATOM     25  C   UNL     1      -1.605  10.331  17.877  0.00  0.00    +0.000 C 
ATOM     26  F   UNL     1      -0.922   9.426  17.125  0.00  0.00    +0.000 F 
ATOM     27  F   UNL     1      -2.750   9.702  18.258  0.00  0.00    +0.000 F 
ATOM     28  F   UNL     1      -1.988  11.315  17.016  0.00  0.00    +0.000 F 
ENDBRANCH   8  25
BRANCH   6  29
ATOM     29  C   UNL     1       0.847  14.205  19.994  0.00  0.00    +0.000 C 
ATOM     30  C   UNL     1      -0.112  15.039  19.152  0.00  0.00    +0.000 C 
BRANCH  29  31
ATOM     31  O   UNL     1       0.959  14.744  21.306  0.00  0.00    +0.000 OA
ATOM     32  H   UNL     1       1.141  15.695  21.231  0.00  0.00    +0.000 HD
ENDBRANCH  29  31
ENDBRANCH   6  29
TORSDOF 6
ENDMDL
MODEL 7
REMARK VINA RESULT:      -7.9      3.441      4.431
REMARK  Name = 
REMARK  8 active torsions:
REMARK  status: ('A' for Active; 'I' for Inactive)
REMARK    1  A    between atoms: C_1  and  C_2
REMARK    2  A    between atoms: C_2  and  C_3
REMARK    3  A    between atoms: C_8  and  C_9
REMARK    4  A    between atoms: C_13  and  N_14
REMARK    5  A    between atoms: C_19  and  C_20
REMARK    6  A    between atoms: C_20  and  C_21
REMARK    7  A    between atoms: C_20  and  O_22
REMARK    8  A    between atoms: C_24  and  C_25
REMARK                            x       y       z     vdW  Elec       q    Type
REMARK                         _______ _______ _______ _____ _____    ______ ____
ROOT
ATOM      1  N   UNL     1       1.970   7.221  18.116  0.00  0.00    +0.000 N 
ATOM      2  C   UNL     1       1.909   5.753  18.354  0.00  0.00    +0.000 C 
ATOM      3  C   UNL     1       3.349   5.403  18.576  0.00  0.00    +0.000 A 
ATOM      4  C   UNL     1       4.111   6.352  17.894  0.00  0.00    +0.000 A 
ATOM      5  C   UNL     1       5.486   6.430  17.996  0.00  0.00    +0.000 A 
ATOM      6  C   UNL     1       6.137   5.508  18.826  0.00  0.00    +0.000 A 
ATOM      7  C   UNL     1       5.366   4.554  19.535  0.00  0.00    +0.000 A 
ATOM      8  C   UNL     1       3.958   4.485  19.424  0.00  0.00    +0.000 A 
ATOM      9  C   UNL     1       3.205   7.438  17.453  0.00  0.00    +0.000 C 
ATOM     10  O   UNL     1       3.568   8.413  16.823  0.00  0.00    +0.000 OA
ENDROOT
BRANCH   1  15
ATOM     11  C   UNL     1       0.389   9.729  20.236  0.00  0.00    +0.000 A 
ATOM     12  C   UNL     1      -0.019   8.812  21.230  0.00  0.00    +0.000 A 
ATOM     13  C   UNL     1       0.647   7.606  21.440  0.00  0.00    +0.000 A 
ATOM     14  C   UNL     1       1.630   7.206  20.554  0.00  0.00    +0.000 A 
ATOM     15  C   UNL     1       1.810   7.939  19.377  0.00  0.00    +0.000 A 
ATOM     16  C   UNL     1       1.343   9.261  19.319  0.00  0.00    +0.000 A 
BRANCH  11  22
ATOM     17  C   UNL     1      -1.302  11.560  19.502  0.00  0.00    +0.000 A 
ATOM     18  C   UNL     1      -1.566  12.934  19.552  0.00  0.00    +0.000 A 
ATOM     19  N   UNL     1      -0.864  13.834  20.272  0.00  0.00    +0.000 NA
ATOM     20  N   UNL     1       0.174  13.412  20.993  0.00  0.00    +0.000 NA
ATOM     21  C   UNL     1       0.503  12.101  20.941  0.00  0.00    +0.000 A 
ATOM     22  C   UNL     1      -0.172  11.110  20.214  0.00  0.00    +0.000 A 
BRANCH  17  24
ATOM     23  C   UNL     1      -1.661  10.201  17.322  0.00  0.00    +0.000 C 
ATOM     24  C   UNL     1      -2.201  10.671  18.673  0.00  0.00    +0.000 C 
ENDBRANCH  17  24
ENDBRANCH  11  22
ENDBRANCH   1  15
BRANCH   8  25
ATOM     25  C   UNL     1       3.201   3.508  20.287  0.00  0.00    +0.000 C 
ATOM     26  F   UNL     1       2.226   2.824  19.629  0.00  0.00    +0.000 F 
ATOM     27  F   UNL     1       4.016   2.560  20.826  0.00  0.00    +0.000 F 
ATOM     28  F   UNL     1       2.584   4.113  21.340  0.00  0.00    +0.000 F 
ENDBRANCH   8  25
BRANCH   6  29
ATOM     29  C   UNL     1       7.639   5.545  19.002  0.00  0.00    +0.000 C 
ATOM     30  C   UNL     1       8.224   6.870  18.528  0.00  0.00    +0.000 C 
BRANCH  29  31
ATOM     31  O   UNL     1       7.969   5.312  20.366  0.00  0.00    +0.000 OA
ATOM     32  H   UNL     1       8.206   4.375  20.466  0.00  0.00    +0.000 HD
ENDBRANCH  29  31
ENDBRANCH   6  29
TORSDOF 6
ENDMDL
MODEL 8
REMARK VINA RESULT:      -7.9      6.999      9.807
REMARK  Name = 
REMARK  8 active torsions:
REMARK  status: ('A' for Active; 'I' for Inactive)
REMARK    1  A    between atoms: C_1  and  C_2
REMARK    2  A    between atoms: C_2  and  C_3
REMARK    3  A    between atoms: C_8  and  C_9
REMARK    4  A    between atoms: C_13  and  N_14
REMARK    5  A    between atoms: C_19  and  C_20
REMARK    6  A    between atoms: C_20  and  C_21
REMARK    7  A    between atoms: C_20  and  O_22
REMARK    8  A    between atoms: C_24  and  C_25
REMARK                            x       y       z     vdW  Elec       q    Type
REMARK                         _______ _______ _______ _____ _____    ______ ____
ROOT
ATOM      1  N   UNL     1      -0.375  11.159  18.366  0.00  0.00    +0.000 N 
ATOM      2  C   UNL     1       0.361  10.463  19.456  0.00  0.00    +0.000 C 
ATOM      3  C   UNL     1      -0.059  11.233  20.671  0.00  0.00    +0.000 A 
ATOM      4  C   UNL     1      -0.387  12.521  20.247  0.00  0.00    +0.000 A 
ATOM      5  C   UNL     1      -0.957  13.467  21.076  0.00  0.00    +0.000 A 
ATOM      6  C   UNL     1      -1.215  13.106  22.405  0.00  0.00    +0.000 A 
ATOM      7  C   UNL     1      -0.900  11.794  22.836  0.00  0.00    +0.000 A 
ATOM      8  C   UNL     1      -0.318  10.833  21.977  0.00  0.00    +0.000 A 
ATOM      9  C   UNL     1      -0.428  12.519  18.765  0.00  0.00    +0.000 C 
ATOM     10  O   UNL     1      -0.679  13.500  18.091  0.00  0.00    +0.000 OA
ENDROOT
BRANCH   1  15
ATOM     11  C   UNL     1      -4.017  11.203  18.235  0.00  0.00    +0.000 A 
ATOM     12  C   UNL     1      -4.098  10.777  16.890  0.00  0.00    +0.000 A 
ATOM     13  C   UNL     1      -3.088  10.026  16.292  0.00  0.00    +0.000 A 
ATOM     14  C   UNL     1      -1.896   9.825  16.965  0.00  0.00    +0.000 A 
ATOM     15  C   UNL     1      -1.673  10.525  18.154  0.00  0.00    +0.000 A 
ATOM     16  C   UNL     1      -2.771  11.038  18.860  0.00  0.00    +0.000 A 
BRANCH  11  22
ATOM     17  C   UNL     1      -6.400  11.089  19.263  0.00  0.00    +0.000 A 
ATOM     18  C   UNL     1      -7.435  11.868  19.795  0.00  0.00    +0.000 A 
ATOM     19  N   UNL     1      -7.358  13.190  20.054  0.00  0.00    +0.000 NA
ATOM     20  N   UNL     1      -6.224  13.833  19.781  0.00  0.00    +0.000 NA
ATOM     21  C   UNL     1      -5.208  13.139  19.218  0.00  0.00    +0.000 A 
ATOM     22  C   UNL     1      -5.216  11.769  18.915  0.00  0.00    +0.000 A 
BRANCH  17  24
ATOM     23  C   UNL     1      -7.402   8.867  20.150  0.00  0.00    +0.000 C 
ATOM     24  C   UNL     1      -6.627   9.609  19.060  0.00  0.00    +0.000 C 
ENDBRANCH  17  24
ENDBRANCH  11  22
ENDBRANCH   1  15
BRANCH   8  25
ATOM     25  C   UNL     1      -0.107   9.429  22.482  0.00  0.00    +0.000 C 
ATOM     26  F   UNL     1       1.147   8.944  22.271  0.00  0.00    +0.000 F 
ATOM     27  F   UNL     1      -0.318   9.329  23.824  0.00  0.00    +0.000 F 
ATOM     28  F   UNL     1      -0.954   8.533  21.903  0.00  0.00    +0.000 F 
ENDBRANCH   8  25
BRANCH   6  29
ATOM     29  C   UNL     1      -1.856  14.083  23.366  0.00  0.00    +0.000 C 
ATOM     30  C   UNL     1      -3.081  13.480  24.041  0.00  0.00    +0.000 C 
BRANCH  29  31
ATOM     31  O   UNL     1      -0.902  14.497  24.337  0.00  0.00    +0.000 OA
ATOM     32  H   UNL     1      -0.054  14.068  24.134  0.00  0.00    +0.000 HD
ENDBRANCH  29  31
ENDBRANCH   6  29
TORSDOF 6
ENDMDL
MODEL 9
REMARK VINA RESULT:      -7.8      5.311     10.156
REMARK  Name = 
REMARK  8 active torsions:
REMARK  status: ('A' for Active; 'I' for Inactive)
REMARK    1  A    between atoms: C_1  and  C_2
REMARK    2  A    between atoms: C_2  and  C_3
REMARK    3  A    between atoms: C_8  and  C_9
REMARK    4  A    between atoms: C_13  and  N_14
REMARK    5  A    between atoms: C_19  and  C_20
REMARK    6  A    between atoms: C_20  and  C_21
REMARK    7  A    between atoms: C_20  and  O_22
REMARK    8  A    between atoms: C_24  and  C_25
REMARK                            x       y       z     vdW  Elec       q    Type
REMARK                         _______ _______ _______ _____ _____    ______ ____
ROOT
ATOM      1  N   UNL     1      -0.341  11.697  19.528  0.00  0.00    +0.000 N 
ATOM      2  C   UNL     1      -0.471  12.673  20.643  0.00  0.00    +0.000 C 
ATOM      3  C   UNL     1      -1.956  12.758  20.826  0.00  0.00    +0.000 A 
ATOM      4  C   UNL     1      -2.538  12.444  19.598  0.00  0.00    +0.000 A 
ATOM      5  C   UNL     1      -3.899  12.279  19.429  0.00  0.00    +0.000 A 
ATOM      6  C   UNL     1      -4.725  12.437  20.550  0.00  0.00    +0.000 A 
ATOM      7  C   UNL     1      -4.136  12.738  21.803  0.00  0.00    +0.000 A 
ATOM      8  C   UNL     1      -2.741  12.903  21.964  0.00  0.00    +0.000 A 
ATOM      9  C   UNL     1      -1.477  11.919  18.708  0.00  0.00    +0.000 C 
ATOM     10  O   UNL     1      -1.667  11.563  17.560  0.00  0.00    +0.000 OA
ENDROOT
BRANCH   1  15
ATOM     11  C   UNL     1       1.403   8.521  19.926  0.00  0.00    +0.000 A 
ATOM     12  C   UNL     1       1.472   8.594  21.335  0.00  0.00    +0.000 A 
ATOM     13  C   UNL     1       0.552   9.326  22.083  0.00  0.00    +0.000 A 
ATOM     14  C   UNL     1      -0.358  10.143  21.436  0.00  0.00    +0.000 A 
ATOM     15  C   UNL     1      -0.217  10.343  20.060  0.00  0.00    +0.000 A 
ATOM     16  C   UNL     1       0.512   9.411  19.306  0.00  0.00    +0.000 A 
BRANCH  11  22
ATOM     17  C   UNL     1       2.390   6.160  19.482  0.00  0.00    +0.000 A 
ATOM     18  C   UNL     1       3.315   5.455  18.701  0.00  0.00    +0.000 A 
ATOM     19  N   UNL     1       4.005   5.967  17.661  0.00  0.00    +0.000 NA
ATOM     20  N   UNL     1       3.821   7.247  17.336  0.00  0.00    +0.000 NA
ATOM     21  C   UNL     1       2.976   7.988  18.088  0.00  0.00    +0.000 A 
ATOM     22  C   UNL     1       2.230   7.528  19.185  0.00  0.00    +0.000 A 
BRANCH  17  24
ATOM     23  C   UNL     1       1.108   4.050  20.276  0.00  0.00    +0.000 C 
ATOM     24  C   UNL     1       1.669   5.436  20.595  0.00  0.00    +0.000 C 
ENDBRANCH  17  24
ENDBRANCH  11  22
ENDBRANCH   1  15
BRANCH   8  25
ATOM     25  C   UNL     1      -2.183  13.122  23.347  0.00  0.00    +0.000 C 
ATOM     26  F   UNL     1      -3.129  13.341  24.301  0.00  0.00    +0.000 F 
ATOM     27  F   UNL     1      -1.461  12.054  23.784  0.00  0.00    +0.000 F 
ATOM     28  F   UNL     1      -1.341  14.191  23.406  0.00  0.00    +0.000 F 
ENDBRANCH   8  25
BRANCH   6  29
ATOM     29  C   UNL     1      -6.223  12.252  20.444  0.00  0.00    +0.000 C 
ATOM     30  C   UNL     1      -6.599  11.433  19.216  0.00  0.00    +0.000 C 
BRANCH  29  31
ATOM     31  O   UNL     1      -6.715  11.635  21.628  0.00  0.00    +0.000 OA
ATOM     32  H   UNL     1      -5.981  11.560  22.260  0.00  0.00    +0.000 HD
ENDBRANCH  29  31
ENDBRANCH   6  29
TORSDOF 6
ENDMDL
