MODEL 1
REMARK VINA RESULT:      -8.1      0.000      0.000
REMARK  Name = 
REMARK  6 active torsions:
REMARK  status: ('A' for Active; 'I' for Inactive)
REMARK    1  A    between atoms: C_1  and  C_2
REMARK    2  A    between atoms: C_2  and  C_3
REMARK    3  A    between atoms: C_10  and  C_11
REMARK    4  A    between atoms: C_16  and  O_17
REMARK    5  A    between atoms: C_16  and  C_18
REMARK    6  A    between atoms: C_18  and  C_19
REMARK                            x       y       z     vdW  Elec       q    Type
REMARK                         _______ _______ _______ _____ _____    ______ ____
ROOT
ATOM      1  C   UNL     1       1.478   8.284  20.532  0.00  0.00    +0.000 C 
ATOM      2  O   UNL     1       1.473   8.341  21.762  0.00  0.00    +0.000 OA
ATOM      3  N   UNL     1       0.923   9.274  19.719  0.00  0.00    +0.000 N 
ATOM      4  C   UNL     1       0.214  10.394  20.330  0.00  0.00    +0.000 C 
ATOM      5  C   UNL     1       0.989  11.701  20.135  0.00  0.00    +0.000 C 
ATOM      6  C   UNL     1       1.342  11.951  18.652  0.00  0.00    +0.000 C 
ATOM      7  C   UNL     1       2.001  10.704  18.050  0.00  0.00    +0.000 C 
ATOM      8  C   UNL     1       1.180   9.451  18.290  0.00  0.00    +0.000 C 
ENDROOT
BRANCH   1  18
ATOM      9  C   UNL     1       0.639   2.864  19.670  0.00  0.00    +0.000 C 
ATOM     10  C   UNL     1       2.097   3.259  19.917  0.00  0.00    +0.000 C 
ATOM     11  C   UNL     1       2.564   2.864  21.313  0.00  0.00    +0.000 C 
ATOM     12  C   UNL     1       3.001   2.638  18.825  0.00  0.00    +0.000 C 
ATOM     13  O   UNL     1       3.184   1.451  18.609  0.00  0.00    +0.000 OA
ATOM     14  N   UNL     1       3.571   3.686  18.103  0.00  0.00    +0.000 N 
ATOM     15  C   UNL     1       3.178   4.917  18.599  0.00  0.00    +0.000 A 
ATOM     16  C   UNL     1       3.547   6.170  18.156  0.00  0.00    +0.000 A 
ATOM     17  C   UNL     1       2.994   7.276  18.816  0.00  0.00    +0.000 A 
ATOM     18  C   UNL     1       2.108   7.097  19.900  0.00  0.00    +0.000 A 
ATOM     19  C   UNL     1       1.830   5.814  20.383  0.00  0.00    +0.000 A 
ATOM     20  C   UNL     1       2.326   4.732  19.684  0.00  0.00    +0.000 A 
ATOM     21  H   UNL     1       4.204   3.533  17.332  0.00  0.00    +0.000 HD
ENDBRANCH   1  18
BRANCH   6  22
ATOM     22  O   UNL     1       0.112  12.184  17.949  0.00  0.00    +0.000 OA
ATOM     23  H   UNL     1       0.328  12.580  17.085  0.00  0.00    +0.000 HD
ENDBRANCH   6  22
BRANCH   6  24
ATOM     24  C   UNL     1       2.273  13.189  18.510  0.00  0.00    +0.000 C 
BRANCH  24  25
ATOM     25  C   UNL     1       1.864  14.362  19.384  0.00  0.00    +0.000 A 
ATOM     26  C   UNL     1       0.801  15.192  19.001  0.00  0.00    +0.000 A 
ATOM     27  C   UNL     1       0.512  16.351  19.726  0.00  0.00    +0.000 A 
ATOM     28  C   UNL     1       1.285  16.678  20.832  0.00  0.00    +0.000 A 
ATOM     29  F   UNL     1       1.032  17.811  21.500  0.00  0.00    +0.000 F 
ATOM     30  C   UNL     1       2.323  15.855  21.248  0.00  0.00    +0.000 A 
ATOM     31  C   UNL     1       2.604  14.690  20.534  0.00  0.00    +0.000 A 
ENDBRANCH  24  25
ENDBRANCH   6  24
TORSDOF 4
ENDMDL
MODEL 2
REMARK VINA RESULT:      -8.1      3.428      4.914
REMARK  Name = 
REMARK  6 active torsions:
REMARK  status: ('A' for Active; 'I' for Inactive)
REMARK    1  A    between atoms: C_1  and  C_2
REMARK    2  A    between atoms: C_2  and  C_3
REMARK    3  A    between atoms: C_10  and  C_11
REMARK    4  A    between atoms: C_16  and  O_17
REMARK    5  A    between atoms: C_16  and  C_18
REMARK    6  A    between atoms: C_18  and  C_19
REMARK                            x       y       z     vdW  Elec       q    Type
REMARK                         _______ _______ _______ _____ _____    ______ ____
ROOT
ATOM      1  C   UNL     1       2.090   8.782  18.368  0.00  0.00    +0.000 C 
ATOM      2  O   UNL     1       2.362   8.968  17.182  0.00  0.00    +0.000 OA
ATOM      3  N   UNL     1       1.590   9.783  19.203  0.00  0.00    +0.000 N 
ATOM      4  C   UNL     1       1.464  11.147  18.698  0.00  0.00    +0.000 C 
ATOM      5  C   UNL     1      -0.010  11.544  18.564  0.00  0.00    +0.000 C 
ATOM      6  C   UNL     1      -0.794  11.315  19.875  0.00  0.00    +0.000 C 
ATOM      7  C   UNL     1      -0.545   9.894  20.396  0.00  0.00    +0.000 C 
ATOM      8  C   UNL     1       0.934   9.572  20.494  0.00  0.00    +0.000 C 
ENDROOT
BRANCH   1  18
ATOM      9  C   UNL     1       5.963   4.823  18.744  0.00  0.00    +0.000 C 
ATOM     10  C   UNL     1       4.530   4.309  18.583  0.00  0.00    +0.000 C 
ATOM     11  C   UNL     1       4.271   3.783  17.175  0.00  0.00    +0.000 C 
ATOM     12  C   UNL     1       4.238   3.228  19.650  0.00  0.00    +0.000 C 
ATOM     13  O   UNL     1       4.789   2.146  19.771  0.00  0.00    +0.000 OA
ATOM     14  N   UNL     1       3.225   3.714  20.476  0.00  0.00    +0.000 N 
ATOM     15  C   UNL     1       2.797   4.966  20.071  0.00  0.00    +0.000 A 
ATOM     16  C   UNL     1       1.808   5.749  20.630  0.00  0.00    +0.000 A 
ATOM     17  C   UNL     1       1.570   7.001  20.046  0.00  0.00    +0.000 A 
ATOM     18  C   UNL     1       2.310   7.421  18.921  0.00  0.00    +0.000 A 
ATOM     19  C   UNL     1       3.239   6.562  18.323  0.00  0.00    +0.000 A 
ATOM     20  C   UNL     1       3.514   5.362  18.946  0.00  0.00    +0.000 A 
ATOM     21  H   UNL     1       2.859   3.185  21.253  0.00  0.00    +0.000 HD
ENDBRANCH   1  18
BRANCH   6  22
ATOM     22  O   UNL     1      -0.286  12.239  20.850  0.00  0.00    +0.000 OA
ATOM     23  H   UNL     1      -0.972  12.368  21.529  0.00  0.00    +0.000 HD
ENDBRANCH   6  22
BRANCH   6  24
ATOM     24  C   UNL     1      -2.314  11.562  19.656  0.00  0.00    +0.000 C 
BRANCH  24  25
ATOM     25  C   UNL     1      -2.820  11.086  18.305  0.00  0.00    +0.000 A 
ATOM     26  C   UNL     1      -2.125  10.093  17.599  0.00  0.00    +0.000 A 
ATOM     27  C   UNL     1      -2.506   9.753  16.300  0.00  0.00    +0.000 A 
ATOM     28  C   UNL     1      -3.580  10.403  15.707  0.00  0.00    +0.000 A 
ATOM     29  F   UNL     1      -3.917  10.104  14.445  0.00  0.00    +0.000 F 
ATOM     30  C   UNL     1      -4.303  11.367  16.398  0.00  0.00    +0.000 A 
ATOM     31  C   UNL     1      -3.933  11.699  17.701  0.00  0.00    +0.000 A 
ENDBRANCH  24  25
ENDBRANCH   6  24
TORSDOF 4
ENDMDL
MODEL 3
REMARK VINA RESULT:      -8.0      2.220      3.205
REMARK  Name = 
REMARK  6 active torsions:
REMARK  status: ('A' for Active; 'I' for Inactive)
REMARK    1  A    between atoms: C_1  and  C_2
REMARK    2  A    between atoms: C_2  and  C_3
REMARK    3  A    between atoms: C_10  and  C_11
REMARK    4  A    between atoms: C_16  and  O_17
REMARK    5  A    between atoms: C_16  and  C_18
REMARK    6  A    between atoms: C_18  and  C_19
REMARK                            x       y       z     vdW  Elec       q    Type
REMARK                         _______ _______ _______ _____ _____    ______ ____
ROOT
ATOM      1  C   UNL     1       2.055   7.291  19.692  0.00  0.00    +0.000 C 
ATOM      2  O   UNL     1       1.924   6.999  20.881  0.00  0.00    +0.000 OA
ATOM      3  N   UNL     1       1.396   8.366  19.092  0.00  0.00    +0.000 N 
ATOM      4  C   UNL     1       0.429   9.140  19.864  0.00  0.00    +0.000 C 
ATOM      5  C   UNL     1       0.950  10.557  20.127  0.00  0.00    +0.000 C 
ATOM      6  C   UNL     1       1.385  11.266  18.826  0.00  0.00    +0.000 C 
ATOM      7  C   UNL     1       2.327  10.361  18.022  0.00  0.00    +0.000 C 
ATOM      8  C   UNL     1       1.748   8.976  17.810  0.00  0.00    +0.000 C 
ENDROOT
BRANCH   1  18
ATOM      9  C   UNL     1       7.341   5.623  19.384  0.00  0.00    +0.000 C 
ATOM     10  C   UNL     1       6.659   5.856  18.033  0.00  0.00    +0.000 C 
ATOM     11  C   UNL     1       7.131   7.147  17.373  0.00  0.00    +0.000 C 
ATOM     12  C   UNL     1       6.891   4.635  17.111  0.00  0.00    +0.000 C 
ATOM     13  O   UNL     1       7.960   4.225  16.689  0.00  0.00    +0.000 OA
ATOM     14  N   UNL     1       5.647   4.061  16.850  0.00  0.00    +0.000 N 
ATOM     15  C   UNL     1       4.625   4.765  17.462  0.00  0.00    +0.000 A 
ATOM     16  C   UNL     1       3.270   4.509  17.417  0.00  0.00    +0.000 A 
ATOM     17  C   UNL     1       2.428   5.362  18.143  0.00  0.00    +0.000 A 
ATOM     18  C   UNL     1       2.961   6.447  18.871  0.00  0.00    +0.000 A 
ATOM     19  C   UNL     1       4.329   6.734  18.817  0.00  0.00    +0.000 A 
ATOM     20  C   UNL     1       5.155   5.848  18.156  0.00  0.00    +0.000 A 
ATOM     21  H   UNL     1       5.539   3.245  16.267  0.00  0.00    +0.000 HD
ENDBRANCH   1  18
BRANCH   6  22
ATOM     22  O   UNL     1       0.204  11.485  18.037  0.00  0.00    +0.000 OA
ATOM     23  H   UNL     1       0.245  12.390  17.677  0.00  0.00    +0.000 HD
ENDBRANCH   6  22
BRANCH   6  24
ATOM     24  C   UNL     1       2.066  12.627  19.144  0.00  0.00    +0.000 C 
BRANCH  24  25
ATOM     25  C   UNL     1       1.086  13.731  19.500  0.00  0.00    +0.000 A 
ATOM     26  C   UNL     1       0.416  13.711  20.732  0.00  0.00    +0.000 A 
ATOM     27  C   UNL     1      -0.587  14.643  21.006  0.00  0.00    +0.000 A 
ATOM     28  C   UNL     1      -0.919  15.595  20.051  0.00  0.00    +0.000 A 
ATOM     29  F   UNL     1      -1.909  16.462  20.300  0.00  0.00    +0.000 F 
ATOM     30  C   UNL     1      -0.247  15.654  18.837  0.00  0.00    +0.000 A 
ATOM     31  C   UNL     1       0.765  14.733  18.566  0.00  0.00    +0.000 A 
ENDBRANCH  24  25
ENDBRANCH   6  24
TORSDOF 4
ENDMDL
MODEL 4
REMARK VINA RESULT:      -8.0      1.598      1.984
REMARK  Name = 
REMARK  6 active torsions:
REMARK  status: ('A' for Active; 'I' for Inactive)
REMARK    1  A    between atoms: C_1  and  C_2
REMARK    2  A    between atoms: C_2  and  C_3
REMARK    3  A    between atoms: C_10  and  C_11
REMARK    4  A    between atoms: C_16  and  O_17
REMARK    5  A    between atoms: C_16  and  C_18
REMARK    6  A    between atoms: C_18  and  C_19
REMARK                            x       y       z     vdW  Elec       q    Type
REMARK                         _______ _______ _______ _____ _____    ______ ____
ROOT
ATOM      1  C   UNL     1       1.163   8.793  21.050  0.00  0.00    +0.000 C 
ATOM      2  O   UNL     1       1.739   9.013  22.115  0.00  0.00    +0.000 OA
ATOM      3  N   UNL     1       0.044   9.512  20.623  0.00  0.00    +0.000 N 
ATOM      4  C   UNL     1      -0.550  10.511  21.506  0.00  0.00    +0.000 C 
ATOM      5  C   UNL     1      -0.344  11.923  20.946  0.00  0.00    +0.000 C 
ATOM      6  C   UNL     1      -0.834  12.045  19.485  0.00  0.00    +0.000 C 
ATOM      7  C   UNL     1      -0.244  10.912  18.636  0.00  0.00    +0.000 C 
ATOM      8  C   UNL     1      -0.479   9.549  19.258  0.00  0.00    +0.000 C 
ENDROOT
BRANCH   1  18
ATOM      9  C   UNL     1       0.525   3.383  19.984  0.00  0.00    +0.000 C 
ATOM     10  C   UNL     1       1.967   3.891  19.897  0.00  0.00    +0.000 C 
ATOM     11  C   UNL     1       2.796   3.455  21.100  0.00  0.00    +0.000 C 
ATOM     12  C   UNL     1       2.609   3.421  18.570  0.00  0.00    +0.000 C 
ATOM     13  O   UNL     1       2.818   2.270  18.221  0.00  0.00    +0.000 OA
ATOM     14  N   UNL     1       2.904   4.557  17.818  0.00  0.00    +0.000 N 
ATOM     15  C   UNL     1       2.560   5.716  18.493  0.00  0.00    +0.000 A 
ATOM     16  C   UNL     1       2.716   7.022  18.076  0.00  0.00    +0.000 A 
ATOM     17  C   UNL     1       2.269   8.032  18.938  0.00  0.00    +0.000 A 
ATOM     18  C   UNL     1       1.698   7.708  20.188  0.00  0.00    +0.000 A 
ATOM     19  C   UNL     1       1.643   6.378  20.619  0.00  0.00    +0.000 A 
ATOM     20  C   UNL     1       2.023   5.390  19.735  0.00  0.00    +0.000 A 
ATOM     21  H   UNL     1       3.332   4.508  16.906  0.00  0.00    +0.000 HD
ENDBRANCH   1  18
BRANCH   6  22
ATOM     22  O   UNL     1      -2.262  11.893  19.494  0.00  0.00    +0.000 OA
ATOM     23  H   UNL     1      -2.575  11.930  18.572  0.00  0.00    +0.000 HD
ENDBRANCH   6  22
BRANCH   6  24
ATOM     24  C   UNL     1      -0.454  13.432  18.893  0.00  0.00    +0.000 C 
BRANCH  24  25
ATOM     25  C   UNL     1       0.998  13.814  19.118  0.00  0.00    +0.000 A 
ATOM     26  C   UNL     1       1.341  14.735  20.119  0.00  0.00    +0.000 A 
ATOM     27  C   UNL     1       2.654  15.194  20.237  0.00  0.00    +0.000 A 
ATOM     28  C   UNL     1       3.624  14.734  19.356  0.00  0.00    +0.000 A 
ATOM     29  F   UNL     1       4.873  15.208  19.446  0.00  0.00    +0.000 F 
ATOM     30  C   UNL     1       3.315  13.798  18.377  0.00  0.00    +0.000 A 
ATOM     31  C   UNL     1       2.006  13.327  18.266  0.00  0.00    +0.000 A 
ENDBRANCH  24  25
ENDBRANCH   6  24
TORSDOF 4
ENDMDL
MODEL 5
REMARK VINA RESULT:      -8.0      5.427      9.441
REMARK  Name = 
REMARK  6 active torsions:
REMARK  status: ('A' for Active; 'I' for Inactive)
REMARK    1  A    between atoms: C_1  and  C_2
REMARK    2  A    between atoms: C_2  and  C_3
REMARK    3  A    between atoms: C_10  and  C_11
REMARK    4  A    between atoms: C_16  and  O_17
REMARK    5  A    between atoms: C_16  and  C_18
REMARK    6  A    between atoms: C_18  and  C_19
REMARK                            x       y       z     vdW  Elec       q    Type
REMARK                         _______ _______ _______ _____ _____    ______ ____
ROOT
ATOM      1  C   UNL     1      -0.873  11.511  22.644  0.00  0.00    +0.000 C 
ATOM      2  O   UNL     1      -0.845  10.556  23.421  0.00  0.00    +0.000 OA
ATOM      3  N   UNL     1      -0.138  11.552  21.457  0.00  0.00    +0.000 N 
ATOM      4  C   UNL     1       0.788  10.468  21.145  0.00  0.00    +0.000 C 
ATOM      5  C   UNL     1       0.289   9.654  19.946  0.00  0.00    +0.000 C 
ATOM      6  C   UNL     1      -0.021  10.549  18.725  0.00  0.00    +0.000 C 
ATOM      7  C   UNL     1      -0.923  11.717  19.144  0.00  0.00    +0.000 C 
ATOM      8  C   UNL     1      -0.370  12.468  20.340  0.00  0.00    +0.000 C 
ENDROOT
BRANCH   1  18
ATOM      9  C   UNL     1      -6.079  12.746  24.124  0.00  0.00    +0.000 C 
ATOM     10  C   UNL     1      -5.400  13.786  23.230  0.00  0.00    +0.000 C 
ATOM     11  C   UNL     1      -5.924  13.734  21.799  0.00  0.00    +0.000 C 
ATOM     12  C   UNL     1      -5.572  15.196  23.842  0.00  0.00    +0.000 C 
ATOM     13  O   UNL     1      -6.620  15.795  24.026  0.00  0.00    +0.000 OA
ATOM     14  N   UNL     1      -4.303  15.673  24.168  0.00  0.00    +0.000 N 
ATOM     15  C   UNL     1      -3.316  14.766  23.823  0.00  0.00    +0.000 A 
ATOM     16  C   UNL     1      -1.952  14.895  23.977  0.00  0.00    +0.000 A 
ATOM     17  C   UNL     1      -1.152  13.820  23.565  0.00  0.00    +0.000 A 
ATOM     18  C   UNL     1      -1.736  12.665  23.002  0.00  0.00    +0.000 A 
ATOM     19  C   UNL     1      -3.115  12.608  22.774  0.00  0.00    +0.000 A 
ATOM     20  C   UNL     1      -3.898  13.642  23.245  0.00  0.00    +0.000 A 
ATOM     21  H   UNL     1      -4.156  16.580  24.585  0.00  0.00    +0.000 HD
ENDBRANCH   1  18
BRANCH   6  22
ATOM     22  O   UNL     1       1.224  11.097  18.263  0.00  0.00    +0.000 OA
ATOM     23  H   UNL     1       1.830  10.357  18.081  0.00  0.00    +0.000 HD
ENDBRANCH   6  22
BRANCH   6  24
ATOM     24  C   UNL     1      -0.685   9.719  17.591  0.00  0.00    +0.000 C 
BRANCH  24  25
ATOM     25  C   UNL     1      -2.105  10.151  17.271  0.00  0.00    +0.000 A 
ATOM     26  C   UNL     1      -2.376  10.883  16.105  0.00  0.00    +0.000 A 
ATOM     27  C   UNL     1      -3.652  11.401  15.877  0.00  0.00    +0.000 A 
ATOM     28  C   UNL     1      -4.657  11.188  16.812  0.00  0.00    +0.000 A 
ATOM     29  F   UNL     1      -5.869  11.722  16.611  0.00  0.00    +0.000 F 
ATOM     30  C   UNL     1      -4.420  10.440  17.958  0.00  0.00    +0.000 A 
ATOM     31  C   UNL     1      -3.149   9.909  18.182  0.00  0.00    +0.000 A 
ENDBRANCH  24  25
ENDBRANCH   6  24
TORSDOF 4
ENDMDL
MODEL 6
REMARK VINA RESULT:      -8.0      4.914      9.631
REMARK  Name = 
REMARK  6 active torsions:
REMARK  status: ('A' for Active; 'I' for Inactive)
REMARK    1  A    between atoms: C_1  and  C_2
REMARK    2  A    between atoms: C_2  and  C_3
REMARK    3  A    between atoms: C_10  and  C_11
REMARK    4  A    between atoms: C_16  and  O_17
REMARK    5  A    between atoms: C_16  and  C_18
REMARK    6  A    between atoms: C_18  and  C_19
REMARK                            x       y       z     vdW  Elec       q    Type
REMARK                         _______ _______ _______ _____ _____    ______ ____
ROOT
ATOM      1  C   UNL     1       2.630   5.228  18.372  0.00  0.00    +0.000 C 
ATOM      2  O   UNL     1       1.765   4.600  17.761  0.00  0.00    +0.000 OA
ATOM      3  N   UNL     1       3.977   4.857  18.387  0.00  0.00    +0.000 N 
ATOM      4  C   UNL     1       4.390   3.620  17.733  0.00  0.00    +0.000 C 
ATOM      5  C   UNL     1       5.245   3.917  16.496  0.00  0.00    +0.000 C 
ATOM      6  C   UNL     1       6.432   4.850  16.821  0.00  0.00    +0.000 C 
ATOM      7  C   UNL     1       5.938   6.084  17.586  0.00  0.00    +0.000 C 
ATOM      8  C   UNL     1       5.094   5.711  18.790  0.00  0.00    +0.000 C 
ENDROOT
BRANCH   1  18
ATOM      9  C   UNL     1      -0.168   9.980  17.736  0.00  0.00    +0.000 C 
ATOM     10  C   UNL     1       1.037  10.063  18.678  0.00  0.00    +0.000 C 
ATOM     11  C   UNL     1       2.214  10.784  18.031  0.00  0.00    +0.000 C 
ATOM     12  C   UNL     1       0.621  10.741  20.004  0.00  0.00    +0.000 C 
ATOM     13  O   UNL     1       0.217  11.884  20.150  0.00  0.00    +0.000 OA
ATOM     14  N   UNL     1       0.774   9.804  21.024  0.00  0.00    +0.000 N 
ATOM     15  C   UNL     1       1.263   8.603  20.540  0.00  0.00    +0.000 A 
ATOM     16  C   UNL     1       1.556   7.456  21.249  0.00  0.00    +0.000 A 
ATOM     17  C   UNL     1       2.026   6.352  20.524  0.00  0.00    +0.000 A 
ATOM     18  C   UNL     1       2.203   6.434  19.126  0.00  0.00    +0.000 A 
ATOM     19  C   UNL     1       1.987   7.642  18.454  0.00  0.00    +0.000 A 
ATOM     20  C   UNL     1       1.460   8.700  19.166  0.00  0.00    +0.000 A 
ATOM     21  H   UNL     1       0.564  10.013  21.989  0.00  0.00    +0.000 HD
ENDBRANCH   1  18
BRANCH   6  22
ATOM     22  O   UNL     1       7.328   4.127  17.680  0.00  0.00    +0.000 OA
ATOM     23  H   UNL     1       6.929   3.258  17.869  0.00  0.00    +0.000 HD
ENDBRANCH   6  22
BRANCH   6  24
ATOM     24  C   UNL     1       7.174   5.269  15.520  0.00  0.00    +0.000 C 
BRANCH  24  25
ATOM     25  C   UNL     1       6.597   4.644  14.261  0.00  0.00    +0.000 A 
ATOM     26  C   UNL     1       5.227   4.351  14.181  0.00  0.00    +0.000 A 
ATOM     27  C   UNL     1       4.717   3.651  13.086  0.00  0.00    +0.000 A 
ATOM     28  C   UNL     1       5.575   3.245  12.071  0.00  0.00    +0.000 A 
ATOM     29  F   UNL     1       5.090   2.538  11.043  0.00  0.00    +0.000 F 
ATOM     30  C   UNL     1       6.929   3.551  12.114  0.00  0.00    +0.000 A 
ATOM     31  C   UNL     1       7.438   4.263  13.201  0.00  0.00    +0.000 A 
ENDBRANCH  24  25
ENDBRANCH   6  24
TORSDOF 4
ENDMDL
MODEL 7
REMARK VINA RESULT:      -7.8      5.044      9.545
REMARK  Name = 
REMARK  6 active torsions:
REMARK  status: ('A' for Active; 'I' for Inactive)
REMARK    1  A    between atoms: C_1  and  C_2
REMARK    2  A    between atoms: C_2  and  C_3
REMARK    3  A    between atoms: C_10  and  C_11
REMARK    4  A    between atoms: C_16  and  O_17
REMARK    5  A    between atoms: C_16  and  C_18
REMARK    6  A    between atoms: C_18  and  C_19
REMARK                            x       y       z     vdW  Elec       q    Type
REMARK                         _______ _______ _______ _____ _____    ______ ____
ROOT
ATOM      1  C   UNL     1       2.971   5.690  18.113  0.00  0.00    +0.000 C 
ATOM      2  O   UNL     1       2.171   4.803  17.813  0.00  0.00    +0.000 OA
ATOM      3  N   UNL     1       4.354   5.494  18.140  0.00  0.00    +0.000 N 
ATOM      4  C   UNL     1       4.897   4.161  17.899  0.00  0.00    +0.000 C 
ATOM      5  C   UNL     1       5.657   4.114  16.569  0.00  0.00    +0.000 C 
ATOM      6  C   UNL     1       6.726   5.225  16.472  0.00  0.00    +0.000 C 
ATOM      7  C   UNL     1       6.107   6.584  16.825  0.00  0.00    +0.000 C 
ATOM      8  C   UNL     1       5.367   6.549  18.148  0.00  0.00    +0.000 C 
ENDROOT
BRANCH   1  18
ATOM      9  C   UNL     1       1.956   8.970  22.475  0.00  0.00    +0.000 C 
ATOM     10  C   UNL     1       0.922   9.057  21.348  0.00  0.00    +0.000 C 
ATOM     11  C   UNL     1      -0.374   8.341  21.711  0.00  0.00    +0.000 C 
ATOM     12  C   UNL     1       0.665  10.539  20.987  0.00  0.00    +0.000 C 
ATOM     13  O   UNL     1       0.195  11.402  21.711  0.00  0.00    +0.000 OA
ATOM     14  N   UNL     1       1.083  10.732  19.671  0.00  0.00    +0.000 N 
ATOM     15  C   UNL     1       1.558   9.557  19.113  0.00  0.00    +0.000 A 
ATOM     16  C   UNL     1       2.038   9.356  17.835  0.00  0.00    +0.000 A 
ATOM     17  C   UNL     1       2.484   8.069  17.510  0.00  0.00    +0.000 A 
ATOM     18  C   UNL     1       2.422   7.026  18.458  0.00  0.00    +0.000 A 
ATOM     19  C   UNL     1       1.841   7.242  19.712  0.00  0.00    +0.000 A 
ATOM     20  C   UNL     1       1.469   8.529  20.045  0.00  0.00    +0.000 A 
ATOM     21  H   UNL     1       1.015  11.624  19.206  0.00  0.00    +0.000 HD
ENDBRANCH   1  18
BRANCH   6  22
ATOM     22  O   UNL     1       7.741   4.936  17.446  0.00  0.00    +0.000 OA
ATOM     23  H   UNL     1       7.967   3.991  17.375  0.00  0.00    +0.000 HD
ENDBRANCH   6  22
BRANCH   6  24
ATOM     24  C   UNL     1       7.355   5.259  15.050  0.00  0.00    +0.000 C 
BRANCH  24  25
ATOM     25  C   UNL     1       6.589   4.442  14.025  0.00  0.00    +0.000 A 
ATOM     26  C   UNL     1       7.260   3.857  12.941  0.00  0.00    +0.000 A 
ATOM     27  C   UNL     1       6.544   3.225  11.923  0.00  0.00    +0.000 A 
ATOM     28  C   UNL     1       5.157   3.176  11.989  0.00  0.00    +0.000 A 
ATOM     29  F   UNL     1       4.470   2.606  10.990  0.00  0.00    +0.000 F 
ATOM     30  C   UNL     1       4.472   3.721  13.068  0.00  0.00    +0.000 A 
ATOM     31  C   UNL     1       5.187   4.341  14.093  0.00  0.00    +0.000 A 
ENDBRANCH  24  25
ENDBRANCH   6  24
TORSDOF 4
ENDMDL
MODEL 8
REMARK VINA RESULT:      -7.8      0.996      1.214
REMARK  Name = 
REMARK  6 active torsions:
REMARK  status: ('A' for Active; 'I' for Inactive)
REMARK    1  A    between atoms: C_1  and  C_2
REMARK    2  A    between atoms: C_2  and  C_3
REMARK    3  A    between atoms: C_10  and  C_11
REMARK    4  A    between atoms: C_16  and  O_17
REMARK    5  A    between atoms: C_16  and  C_18
REMARK    6  A    between atoms: C_18  and  C_19
REMARK                            x       y       z     vdW  Elec       q    Type
REMARK                         _______ _______ _______ _____ _____    ______ ____
ROOT
ATOM      1  C   UNL     1       1.427   8.470  20.445  0.00  0.00    +0.000 C 
ATOM      2  O   UNL     1       1.328   8.456  21.672  0.00  0.00    +0.000 OA
ATOM      3  N   UNL     1       1.000   9.541  19.656  0.00  0.00    +0.000 N 
ATOM      4  C   UNL     1       0.314  10.667  20.281  0.00  0.00    +0.000 C 
ATOM      5  C   UNL     1       1.181  11.930  20.229  0.00  0.00    +0.000 C 
ATOM      6  C   UNL     1       1.665  12.242  18.795  0.00  0.00    +0.000 C 
ATOM      7  C   UNL     1       2.293  10.991  18.168  0.00  0.00    +0.000 C 
ATOM      8  C   UNL     1       1.381   9.783  18.265  0.00  0.00    +0.000 C 
ENDROOT
BRANCH   1  18
ATOM      9  C   UNL     1       0.619   3.026  19.720  0.00  0.00    +0.000 C 
ATOM     10  C   UNL     1       2.085   3.447  19.862  0.00  0.00    +0.000 C 
ATOM     11  C   UNL     1       2.650   3.080  21.230  0.00  0.00    +0.000 C 
ATOM     12  C   UNL     1       2.922   2.823  18.720  0.00  0.00    +0.000 C 
ATOM     13  O   UNL     1       3.110   1.636  18.510  0.00  0.00    +0.000 OA
ATOM     14  N   UNL     1       3.425   3.868  17.947  0.00  0.00    +0.000 N 
ATOM     15  C   UNL     1       3.047   5.100  18.451  0.00  0.00    +0.000 A 
ATOM     16  C   UNL     1       3.365   6.352  17.966  0.00  0.00    +0.000 A 
ATOM     17  C   UNL     1       2.840   7.459  18.645  0.00  0.00    +0.000 A 
ATOM     18  C   UNL     1       2.032   7.283  19.789  0.00  0.00    +0.000 A 
ATOM     19  C   UNL     1       1.808   6.004  20.308  0.00  0.00    +0.000 A 
ATOM     20  C   UNL     1       2.273   4.919  19.593  0.00  0.00    +0.000 A 
ATOM     21  H   UNL     1       4.007   3.712  17.137  0.00  0.00    +0.000 HD
ENDBRANCH   1  18
BRANCH   6  22
ATOM     22  O   UNL     1       0.512  12.596  18.016  0.00  0.00    +0.000 OA
ATOM     23  H   UNL     1       0.326  13.541  18.163  0.00  0.00    +0.000 HD
ENDBRANCH   6  22
BRANCH   6  24
ATOM     24  C   UNL     1       2.678  13.422  18.803  0.00  0.00    +0.000 C 
BRANCH  24  25
ATOM     25  C   UNL     1       2.021  14.790  18.760  0.00  0.00    +0.000 A 
ATOM     26  C   UNL     1       0.816  15.018  19.442  0.00  0.00    +0.000 A 
ATOM     27  C   UNL     1       0.137  16.228  19.292  0.00  0.00    +0.000 A 
ATOM     28  C   UNL     1       0.661  17.211  18.462  0.00  0.00    +0.000 A 
ATOM     29  F   UNL     1      -0.014  18.355  18.287  0.00  0.00    +0.000 F 
ATOM     30  C   UNL     1       1.868  17.020  17.801  0.00  0.00    +0.000 A 
ATOM     31  C   UNL     1       2.556  15.817  17.961  0.00  0.00    +0.000 A 
ENDBRANCH  24  25
ENDBRANCH   6  24
TORSDOF 4
ENDMDL
MODEL 9
REMARK VINA RESULT:      -7.8      4.846      9.409
REMARK  Name = 
REMARK  6 active torsions:
REMARK  status: ('A' for Active; 'I' for Inactive)
REMARK    1  A    between atoms: C_1  and  C_2
REMARK    2  A    between atoms: C_2  and  C_3
REMARK    3  A    between atoms: C_10  and  C_11
REMARK    4  A    between atoms: C_16  and  O_17
REMARK    5  A    between atoms: C_16  and  C_18
REMARK    6  A    between atoms: C_18  and  C_19
REMARK                            x       y       z     vdW  Elec       q    Type
REMARK                         _______ _______ _______ _____ _____    ______ ____
ROOT
ATOM      1  C   UNL     1       2.698   5.665  18.135  0.00  0.00    +0.000 C 
ATOM      2  O   UNL     1       1.879   4.894  17.635  0.00  0.00    +0.000 OA
ATOM      3  N   UNL     1       4.028   5.315  18.377  0.00  0.00    +0.000 N 
ATOM      4  C   UNL     1       4.471   3.947  18.124  0.00  0.00    +0.000 C 
ATOM      5  C   UNL     1       5.443   3.899  16.941  0.00  0.00    +0.000 C 
ATOM      6  C   UNL     1       6.617   4.888  17.114  0.00  0.00    +0.000 C 
ATOM      7  C   UNL     1       6.084   6.282  17.467  0.00  0.00    +0.000 C 
ATOM      8  C   UNL     1       5.124   6.248  18.640  0.00  0.00    +0.000 C 
ENDROOT
BRANCH   1  18
ATOM      9  C   UNL     1       1.899   8.974  22.520  0.00  0.00    +0.000 C 
ATOM     10  C   UNL     1       0.869   9.131  21.398  0.00  0.00    +0.000 C 
ATOM     11  C   UNL     1      -0.468   8.493  21.761  0.00  0.00    +0.000 C 
ATOM     12  C   UNL     1       0.701  10.628  21.046  0.00  0.00    +0.000 C 
ATOM     13  O   UNL     1       0.286  11.513  21.777  0.00  0.00    +0.000 OA
ATOM     14  N   UNL     1       1.125  10.803  19.730  0.00  0.00    +0.000 N 
ATOM     15  C   UNL     1       1.526   9.606  19.163  0.00  0.00    +0.000 A 
ATOM     16  C   UNL     1       1.989   9.383  17.883  0.00  0.00    +0.000 A 
ATOM     17  C   UNL     1       2.355   8.073  17.547  0.00  0.00    +0.000 A 
ATOM     18  C   UNL     1       2.233   7.030  18.490  0.00  0.00    +0.000 A 
ATOM     19  C   UNL     1       1.670   7.274  19.748  0.00  0.00    +0.000 A 
ATOM     20  C   UNL     1       1.377   8.578  20.090  0.00  0.00    +0.000 A 
ATOM     21  H   UNL     1       1.110  11.701  19.270  0.00  0.00    +0.000 HD
ENDBRANCH   1  18
BRANCH   6  22
ATOM     22  O   UNL     1       7.412   4.426  18.218  0.00  0.00    +0.000 OA
ATOM     23  H   UNL     1       8.074   3.801  17.873  0.00  0.00    +0.000 HD
ENDBRANCH   6  22
BRANCH   6  24
ATOM     24  C   UNL     1       7.486   4.940  15.825  0.00  0.00    +0.000 C 
BRANCH  24  25
ATOM     25  C   UNL     1       6.733   4.545  14.567  0.00  0.00    +0.000 A 
ATOM     26  C   UNL     1       5.368   4.227  14.629  0.00  0.00    +0.000 A 
ATOM     27  C   UNL     1       4.706   3.730  13.505  0.00  0.00    +0.000 A 
ATOM     28  C   UNL     1       5.407   3.553  12.319  0.00  0.00    +0.000 A 
ATOM     29  F   UNL     1       4.779   3.037  11.253  0.00  0.00    +0.000 F 
ATOM     30  C   UNL     1       6.751   3.891  12.224  0.00  0.00    +0.000 A 
ATOM     31  C   UNL     1       7.411   4.401  13.343  0.00  0.00    +0.000 A 
ENDBRANCH  24  25
ENDBRANCH   6  24
TORSDOF 4
ENDMDL
