MODEL 1
REMARK VINA RESULT:      -9.1      0.000      0.000
REMARK  Name = 
REMARK  5 active torsions:
REMARK  status: ('A' for Active; 'I' for Inactive)
REMARK    1  A    between atoms: C_2  and  C_23
REMARK    2  A    between atoms: N_3  and  C_4
REMARK    3  A    between atoms: C_8  and  C_9
REMARK    4  A    between atoms: C_9  and  N_10
REMARK    5  A    between atoms: N_10  and  C_11
REMARK                            x       y       z     vdW  Elec       q    Type
REMARK                         _______ _______ _______ _____ _____    ______ ____
ROOT
ATOM      1  C   UNL     1       1.977   4.951  20.521  0.00  0.00    +0.000 A 
ATOM      2  C   UNL     1       2.117   4.084  21.609  0.00  0.00    +0.000 A 
ATOM      3  C   UNL     1       2.560   2.775  21.433  0.00  0.00    +0.000 A 
ATOM      4  C   UNL     1       2.845   2.305  20.158  0.00  0.00    +0.000 A 
ATOM      5  C   UNL     1       2.659   3.130  19.039  0.00  0.00    +0.000 A 
ATOM      6  C   UNL     1       2.215   4.455  19.232  0.00  0.00    +0.000 A 
ENDROOT
BRANCH   1   9
ATOM      7  O   UNL     1       2.861   7.229  18.962  0.00  0.00    +0.000 OA
ATOM      8  C   UNL     1       2.110   7.360  19.926  0.00  0.00    +0.000 C 
ATOM      9  N   UNL     1       1.600   6.310  20.676  0.00  0.00    +0.000 N 
ATOM     10  H   UNL     1       0.801   6.501  21.267  0.00  0.00    +0.000 HD
BRANCH   8  11
ATOM     11  C   UNL     1       1.617   8.754  20.344  0.00  0.00    +0.000 C 
ATOM     12  C   UNL     1       0.521   8.583  21.418  0.00  0.00    +0.000 C 
ATOM     13  C   UNL     1      -0.169   9.884  21.797  0.00  0.00    +0.000 C 
ATOM     14  C   UNL     1      -0.718  10.589  20.566  0.00  0.00    +0.000 C 
ATOM     15  C   UNL     1       0.387  10.841  19.546  0.00  0.00    +0.000 C 
ATOM     16  C   UNL     1       1.092   9.546  19.140  0.00  0.00    +0.000 C 
ENDBRANCH   8  11
ENDBRANCH   1   9
BRANCH   5  17
ATOM     17  C   UNL     1       2.977   2.596  17.661  0.00  0.00    +0.000 C 
BRANCH  17  18
ATOM     18  N   UNL     1       4.410   2.697  17.404  0.00  0.00    +0.000 N 
ATOM     19  H   UNL     1       4.665   2.137  16.590  0.00  0.00    +0.000 HD
BRANCH  18  20
ATOM     20  C   UNL     1       5.053   3.917  17.270  0.00  0.00    +0.000 A 
ATOM     21  C   UNL     1       4.721   4.762  16.286  0.00  0.00    +0.000 A 
ATOM     22  C   UNL     1       5.394   6.066  16.174  0.00  0.00    +0.000 A 
ATOM     23  O   UNL     1       5.077   6.820  15.255  0.00  0.00    +0.000 OA
ATOM     24  N   UNL     1       6.354   6.327  17.135  0.00  0.00    +0.000 N 
ATOM     25  C   UNL     1       7.040   7.536  17.109  0.00  0.00    +0.000 A 
ATOM     26  C   UNL     1       7.984   7.827  18.012  0.00  0.00    +0.000 A 
ATOM     27  C   UNL     1       8.314   6.873  19.038  0.00  0.00    +0.000 A 
ATOM     28  C   UNL     1       7.671   5.701  19.105  0.00  0.00    +0.000 A 
ATOM     29  C   UNL     1       6.613   5.373  18.106  0.00  0.00    +0.000 A 
ATOM     30  N   UNL     1       6.009   4.229  18.196  0.00  0.00    +0.000 NA
ENDBRANCH  18  20
ENDBRANCH  17  18
ENDBRANCH   5  17
TORSDOF 5
ENDMDL
MODEL 2
REMARK VINA RESULT:      -8.8      2.316      7.629
REMARK  Name = 
REMARK  5 active torsions:
REMARK  status: ('A' for Active; 'I' for Inactive)
REMARK    1  A    between atoms: C_2  and  C_23
REMARK    2  A    between atoms: N_3  and  C_4
REMARK    3  A    between atoms: C_8  and  C_9
REMARK    4  A    between atoms: C_9  and  N_10
REMARK    5  A    between atoms: N_10  and  C_11
REMARK                            x       y       z     vdW  Elec       q    Type
REMARK                         _______ _______ _______ _____ _____    ______ ____
ROOT
ATOM      1  C   UNL     1       3.483   3.546  17.561  0.00  0.00    +0.000 A 
ATOM      2  C   UNL     1       3.308   2.226  17.985  0.00  0.00    +0.000 A 
ATOM      3  C   UNL     1       2.677   1.936  19.193  0.00  0.00    +0.000 A 
ATOM      4  C   UNL     1       2.235   2.968  20.010  0.00  0.00    +0.000 A 
ATOM      5  C   UNL     1       2.447   4.305  19.642  0.00  0.00    +0.000 A 
ATOM      6  C   UNL     1       3.081   4.585  18.414  0.00  0.00    +0.000 A 
ENDROOT
BRANCH   1   9
ATOM      7  O   UNL     1       6.189   4.428  17.012  0.00  0.00    +0.000 OA
ATOM      8  C   UNL     1       5.345   4.343  16.122  0.00  0.00    +0.000 C 
ATOM      9  N   UNL     1       4.053   3.871  16.304  0.00  0.00    +0.000 N 
ATOM     10  H   UNL     1       3.533   3.599  15.480  0.00  0.00    +0.000 HD
BRANCH   8  11
ATOM     11  C   UNL     1       5.702   4.715  14.675  0.00  0.00    +0.000 C 
ATOM     12  C   UNL     1       5.143   3.622  13.738  0.00  0.00    +0.000 C 
ATOM     13  C   UNL     1       5.572   3.785  12.288  0.00  0.00    +0.000 C 
ATOM     14  C   UNL     1       7.086   3.878  12.174  0.00  0.00    +0.000 C 
ATOM     15  C   UNL     1       7.625   5.019  13.029  0.00  0.00    +0.000 C 
ATOM     16  C   UNL     1       7.217   4.876  14.495  0.00  0.00    +0.000 C 
ENDBRANCH   8  11
ENDBRANCH   1   9
BRANCH   5  17
ATOM     17  C   UNL     1       1.955   5.412  20.547  0.00  0.00    +0.000 C 
BRANCH  17  18
ATOM     18  N   UNL     1       2.475   6.698  20.092  0.00  0.00    +0.000 N 
ATOM     19  H   UNL     1       2.750   6.641  19.111  0.00  0.00    +0.000 HD
BRANCH  18  20
ATOM     20  C   UNL     1       1.763   7.877  20.242  0.00  0.00    +0.000 A 
ATOM     21  C   UNL     1       1.677   8.759  19.238  0.00  0.00    +0.000 A 
ATOM     22  C   UNL     1       0.894   9.994  19.404  0.00  0.00    +0.000 A 
ATOM     23  O   UNL     1       0.840  10.792  18.469  0.00  0.00    +0.000 OA
ATOM     24  N   UNL     1       0.281  10.151  20.634  0.00  0.00    +0.000 N 
ATOM     25  C   UNL     1      -0.482  11.286  20.880  0.00  0.00    +0.000 A 
ATOM     26  C   UNL     1      -1.085  11.485  22.058  0.00  0.00    +0.000 A 
ATOM     27  C   UNL     1      -0.945  10.512  23.109  0.00  0.00    +0.000 A 
ATOM     28  C   UNL     1      -0.227   9.400  22.911  0.00  0.00    +0.000 A 
ATOM     29  C   UNL     1       0.442   9.169  21.598  0.00  0.00    +0.000 A 
ATOM     30  N   UNL     1       1.132   8.082  21.436  0.00  0.00    +0.000 NA
ENDBRANCH  18  20
ENDBRANCH  17  18
ENDBRANCH   5  17
TORSDOF 5
ENDMDL
MODEL 3
REMARK VINA RESULT:      -8.6      0.546      1.094
REMARK  Name = 
REMARK  5 active torsions:
REMARK  status: ('A' for Active; 'I' for Inactive)
REMARK    1  A    between atoms: C_2  and  C_23
REMARK    2  A    between atoms: N_3  and  C_4
REMARK    3  A    between atoms: C_8  and  C_9
REMARK    4  A    between atoms: C_9  and  N_10
REMARK    5  A    between atoms: N_10  and  C_11
REMARK                            x       y       z     vdW  Elec       q    Type
REMARK                         _______ _______ _______ _____ _____    ______ ____
ROOT
ATOM      1  C   UNL     1       1.620   4.740  20.523  0.00  0.00    +0.000 A 
ATOM      2  C   UNL     1       2.056   3.969  21.604  0.00  0.00    +0.000 A 
ATOM      3  C   UNL     1       2.808   2.813  21.406  0.00  0.00    +0.000 A 
ATOM      4  C   UNL     1       3.112   2.395  20.116  0.00  0.00    +0.000 A 
ATOM      5  C   UNL     1       2.639   3.113  19.008  0.00  0.00    +0.000 A 
ATOM      6  C   UNL     1       1.884   4.285  19.223  0.00  0.00    +0.000 A 
ENDROOT
BRANCH   1   9
ATOM      7  O   UNL     1       2.572   7.427  19.997  0.00  0.00    +0.000 OA
ATOM      8  C   UNL     1       1.458   7.219  20.476  0.00  0.00    +0.000 C 
ATOM      9  N   UNL     1       0.917   5.960  20.694  0.00  0.00    +0.000 N 
ATOM     10  H   UNL     1      -0.082   5.899  20.840  0.00  0.00    +0.000 HD
BRANCH   8  11
ATOM     11  C   UNL     1       0.530   8.392  20.821  0.00  0.00    +0.000 C 
ATOM     12  C   UNL     1       0.695   9.482  19.740  0.00  0.00    +0.000 C 
ATOM     13  C   UNL     1      -0.048  10.771  20.053  0.00  0.00    +0.000 C 
ATOM     14  C   UNL     1       0.338  11.303  21.425  0.00  0.00    +0.000 C 
ATOM     15  C   UNL     1       0.084  10.256  22.504  0.00  0.00    +0.000 C 
ATOM     16  C   UNL     1       0.828   8.951  22.218  0.00  0.00    +0.000 C 
ENDBRANCH   8  11
ENDBRANCH   1   9
BRANCH   5  17
ATOM     17  C   UNL     1       2.983   2.640  17.614  0.00  0.00    +0.000 C 
BRANCH  17  18
ATOM     18  N   UNL     1       4.424   2.731  17.397  0.00  0.00    +0.000 N 
ATOM     19  H   UNL     1       4.699   2.161  16.597  0.00  0.00    +0.000 HD
BRANCH  18  20
ATOM     20  C   UNL     1       5.076   3.947  17.267  0.00  0.00    +0.000 A 
ATOM     21  C   UNL     1       4.760   4.792  16.277  0.00  0.00    +0.000 A 
ATOM     22  C   UNL     1       5.442   6.091  16.168  0.00  0.00    +0.000 A 
ATOM     23  O   UNL     1       5.140   6.845  15.243  0.00  0.00    +0.000 OA
ATOM     24  N   UNL     1       6.394   6.348  17.138  0.00  0.00    +0.000 N 
ATOM     25  C   UNL     1       7.087   7.553  17.117  0.00  0.00    +0.000 A 
ATOM     26  C   UNL     1       8.023   7.840  18.029  0.00  0.00    +0.000 A 
ATOM     27  C   UNL     1       8.336   6.888  19.061  0.00  0.00    +0.000 A 
ATOM     28  C   UNL     1       7.686   5.720  19.125  0.00  0.00    +0.000 A 
ATOM     29  C   UNL     1       6.637   5.396  18.115  0.00  0.00    +0.000 A 
ATOM     30  N   UNL     1       6.024   4.255  18.202  0.00  0.00    +0.000 NA
ENDBRANCH  18  20
ENDBRANCH  17  18
ENDBRANCH   5  17
TORSDOF 5
ENDMDL
MODEL 4
REMARK VINA RESULT:      -8.6      0.980      1.119
REMARK  Name = 
REMARK  5 active torsions:
REMARK  status: ('A' for Active; 'I' for Inactive)
REMARK    1  A    between atoms: C_2  and  C_23
REMARK    2  A    between atoms: N_3  and  C_4
REMARK    3  A    between atoms: C_8  and  C_9
REMARK    4  A    between atoms: C_9  and  N_10
REMARK    5  A    between atoms: N_10  and  C_11
REMARK                            x       y       z     vdW  Elec       q    Type
REMARK                         _______ _______ _______ _____ _____    ______ ____
ROOT
ATOM      1  C   UNL     1       1.569   4.957  20.461  0.00  0.00    +0.000 A 
ATOM      2  C   UNL     1       0.497   4.107  20.175  0.00  0.00    +0.000 A 
ATOM      3  C   UNL     1       0.711   2.803  19.731  0.00  0.00    +0.000 A 
ATOM      4  C   UNL     1       2.006   2.339  19.542  0.00  0.00    +0.000 A 
ATOM      5  C   UNL     1       3.103   3.185  19.764  0.00  0.00    +0.000 A 
ATOM      6  C   UNL     1       2.872   4.500  20.218  0.00  0.00    +0.000 A 
ENDROOT
BRANCH   1   9
ATOM      7  O   UNL     1       2.028   7.488  19.125  0.00  0.00    +0.000 OA
ATOM      8  C   UNL     1       1.680   7.434  20.303  0.00  0.00    +0.000 C 
ATOM      9  N   UNL     1       1.385   6.262  20.985  0.00  0.00    +0.000 N 
ATOM     10  H   UNL     1       0.866   6.341  21.849  0.00  0.00    +0.000 HD
BRANCH   8  11
ATOM     11  C   UNL     1       1.484   8.723  21.115  0.00  0.00    +0.000 C 
ATOM     12  C   UNL     1       0.424   8.458  22.206  0.00  0.00    +0.000 C 
ATOM     13  C   UNL     1       0.015   9.703  22.976  0.00  0.00    +0.000 C 
ATOM     14  C   UNL     1      -0.441  10.804  22.029  0.00  0.00    +0.000 C 
ATOM     15  C   UNL     1       0.646  11.129  21.011  0.00  0.00    +0.000 C 
ATOM     16  C   UNL     1       1.070   9.895  20.216  0.00  0.00    +0.000 C 
ENDBRANCH   8  11
ENDBRANCH   1   9
BRANCH   5  17
ATOM     17  C   UNL     1       4.503   2.657  19.552  0.00  0.00    +0.000 C 
BRANCH  17  18
ATOM     18  N   UNL     1       4.948   2.949  18.193  0.00  0.00    +0.000 N 
ATOM     19  H   UNL     1       4.211   2.726  17.523  0.00  0.00    +0.000 HD
BRANCH  18  20
ATOM     20  C   UNL     1       5.457   4.186  17.831  0.00  0.00    +0.000 A 
ATOM     21  C   UNL     1       4.971   4.844  16.771  0.00  0.00    +0.000 A 
ATOM     22  C   UNL     1       5.504   6.169  16.418  0.00  0.00    +0.000 A 
ATOM     23  O   UNL     1       5.047   6.749  15.433  0.00  0.00    +0.000 OA
ATOM     24  N   UNL     1       6.504   6.651  17.243  0.00  0.00    +0.000 N 
ATOM     25  C   UNL     1       7.065   7.897  16.987  0.00  0.00    +0.000 A 
ATOM     26  C   UNL     1       8.041   8.398  17.753  0.00  0.00    +0.000 A 
ATOM     27  C   UNL     1       8.538   7.639  18.870  0.00  0.00    +0.000 A 
ATOM     28  C   UNL     1       8.019   6.439  19.158  0.00  0.00    +0.000 A 
ATOM     29  C   UNL     1       6.926   5.878  18.313  0.00  0.00    +0.000 A 
ATOM     30  N   UNL     1       6.444   4.712  18.616  0.00  0.00    +0.000 NA
ENDBRANCH  18  20
ENDBRANCH  17  18
ENDBRANCH   5  17
TORSDOF 5
ENDMDL
MODEL 5
REMARK VINA RESULT:      -8.4      2.964      7.967
REMARK  Name = 
REMARK  5 active torsions:
REMARK  status: ('A' for Active; 'I' for Inactive)
REMARK    1  A    between atoms: C_2  and  C_23
REMARK    2  A    between atoms: N_3  and  C_4
REMARK    3  A    between atoms: C_8  and  C_9
REMARK    4  A    between atoms: C_9  and  N_10
REMARK    5  A    between atoms: N_10  and  C_11
REMARK                            x       y       z     vdW  Elec       q    Type
REMARK                         _______ _______ _______ _____ _____    ______ ____
ROOT
ATOM      1  C   UNL     1       6.192   4.815  16.246  0.00  0.00    +0.000 A 
ATOM      2  C   UNL     1       7.285   5.577  16.665  0.00  0.00    +0.000 A 
ATOM      3  C   UNL     1       7.390   6.021  17.982  0.00  0.00    +0.000 A 
ATOM      4  C   UNL     1       6.385   5.728  18.895  0.00  0.00    +0.000 A 
ATOM      5  C   UNL     1       5.247   5.015  18.492  0.00  0.00    +0.000 A 
ATOM      6  C   UNL     1       5.156   4.567  17.157  0.00  0.00    +0.000 A 
ENDROOT
BRANCH   1   9
ATOM      7  O   UNL     1       7.816   5.476  13.937  0.00  0.00    +0.000 OA
ATOM      8  C   UNL     1       6.871   4.693  13.858  0.00  0.00    +0.000 C 
ATOM      9  N   UNL     1       6.093   4.286  14.933  0.00  0.00    +0.000 N 
ATOM     10  H   UNL     1       5.524   3.459  14.813  0.00  0.00    +0.000 HD
BRANCH   8  11
ATOM     11  C   UNL     1       6.512   4.040  12.515  0.00  0.00    +0.000 C 
ATOM     12  C   UNL     1       5.079   3.474  12.613  0.00  0.00    +0.000 C 
ATOM     13  C   UNL     1       4.663   2.654  11.402  0.00  0.00    +0.000 C 
ATOM     14  C   UNL     1       5.668   1.546  11.123  0.00  0.00    +0.000 C 
ATOM     15  C   UNL     1       7.068   2.119  10.932  0.00  0.00    +0.000 C 
ATOM     16  C   UNL     1       7.516   2.942  12.141  0.00  0.00    +0.000 C 
ENDBRANCH   8  11
ENDBRANCH   1   9
BRANCH   5  17
ATOM     17  C   UNL     1       4.166   4.707  19.503  0.00  0.00    +0.000 C 
BRANCH  17  18
ATOM     18  N   UNL     1       2.869   5.149  18.999  0.00  0.00    +0.000 N 
ATOM     19  H   UNL     1       2.127   4.548  19.357  0.00  0.00    +0.000 HD
BRANCH  18  20
ATOM     20  C   UNL     1       2.429   6.456  19.137  0.00  0.00    +0.000 A 
ATOM     21  C   UNL     1       2.468   7.305  18.102  0.00  0.00    +0.000 A 
ATOM     22  C   UNL     1       1.971   8.682  18.258  0.00  0.00    +0.000 A 
ATOM     23  O   UNL     1       2.027   9.445  17.294  0.00  0.00    +0.000 OA
ATOM     24  N   UNL     1       1.482   9.002  19.511  0.00  0.00    +0.000 N 
ATOM     25  C   UNL     1       0.989  10.280  19.749  0.00  0.00    +0.000 A 
ATOM     26  C   UNL     1       0.516  10.637  20.949  0.00  0.00    +0.000 A 
ATOM     27  C   UNL     1       0.515   9.689  22.032  0.00  0.00    +0.000 A 
ATOM     28  C   UNL     1       0.971   8.446  21.843  0.00  0.00    +0.000 A 
ATOM     29  C   UNL     1       1.494   8.038  20.507  0.00  0.00    +0.000 A 
ATOM     30  N   UNL     1       1.931   6.826  20.355  0.00  0.00    +0.000 NA
ENDBRANCH  18  20
ENDBRANCH  17  18
ENDBRANCH   5  17
TORSDOF 5
ENDMDL
MODEL 6
REMARK VINA RESULT:      -8.4      2.736      7.061
REMARK  Name = 
REMARK  5 active torsions:
REMARK  status: ('A' for Active; 'I' for Inactive)
REMARK    1  A    between atoms: C_2  and  C_23
REMARK    2  A    between atoms: N_3  and  C_4
REMARK    3  A    between atoms: C_8  and  C_9
REMARK    4  A    between atoms: C_9  and  N_10
REMARK    5  A    between atoms: N_10  and  C_11
REMARK                            x       y       z     vdW  Elec       q    Type
REMARK                         _______ _______ _______ _____ _____    ______ ____
ROOT
ATOM      1  C   UNL     1       8.123   7.292  18.539  0.00  0.00    +0.000 A 
ATOM      2  C   UNL     1       8.376   6.126  19.268  0.00  0.00    +0.000 A 
ATOM      3  C   UNL     1       7.872   4.895  18.855  0.00  0.00    +0.000 A 
ATOM      4  C   UNL     1       7.081   4.816  17.715  0.00  0.00    +0.000 A 
ATOM      5  C   UNL     1       6.760   5.976  16.994  0.00  0.00    +0.000 A 
ATOM      6  C   UNL     1       7.282   7.214  17.420  0.00  0.00    +0.000 A 
ENDROOT
BRANCH   1   9
ATOM      7  O   UNL     1       7.632   9.869  17.306  0.00  0.00    +0.000 OA
ATOM      8  C   UNL     1       8.445   9.734  18.218  0.00  0.00    +0.000 C 
ATOM      9  N   UNL     1       8.683   8.546  18.893  0.00  0.00    +0.000 N 
ATOM     10  H   UNL     1       9.166   8.599  19.780  0.00  0.00    +0.000 HD
BRANCH   8  11
ATOM     11  C   UNL     1       9.241  10.943  18.733  0.00  0.00    +0.000 C 
ATOM     12  C   UNL     1      10.481  11.131  17.834  0.00  0.00    +0.000 C 
ATOM     13  C   UNL     1      11.444  12.196  18.337  0.00  0.00    +0.000 C 
ATOM     14  C   UNL     1      11.852  11.924  19.777  0.00  0.00    +0.000 C 
ATOM     15  C   UNL     1      10.627  11.833  20.680  0.00  0.00    +0.000 C 
ATOM     16  C   UNL     1       9.646  10.763  20.202  0.00  0.00    +0.000 C 
ENDBRANCH   8  11
ENDBRANCH   1   9
BRANCH   5  17
ATOM     17  C   UNL     1       5.899   5.865  15.756  0.00  0.00    +0.000 C 
BRANCH  17  18
ATOM     18  N   UNL     1       4.835   4.889  15.973  0.00  0.00    +0.000 N 
ATOM     19  H   UNL     1       5.206   3.941  15.905  0.00  0.00    +0.000 HD
BRANCH  18  20
ATOM     20  C   UNL     1       4.018   4.922  17.091  0.00  0.00    +0.000 A 
ATOM     21  C   UNL     1       3.602   6.088  17.602  0.00  0.00    +0.000 A 
ATOM     22  C   UNL     1       2.712   6.105  18.774  0.00  0.00    +0.000 A 
ATOM     23  O   UNL     1       2.352   7.191  19.229  0.00  0.00    +0.000 OA
ATOM     24  N   UNL     1       2.360   4.865  19.274  0.00  0.00    +0.000 N 
ATOM     25  C   UNL     1       1.519   4.785  20.378  0.00  0.00    +0.000 A 
ATOM     26  C   UNL     1       1.160   3.607  20.902  0.00  0.00    +0.000 A 
ATOM     27  C   UNL     1       1.652   2.384  20.324  0.00  0.00    +0.000 A 
ATOM     28  C   UNL     1       2.455   2.416  19.255  0.00  0.00    +0.000 A 
ATOM     29  C   UNL     1       2.854   3.725  18.661  0.00  0.00    +0.000 A 
ATOM     30  N   UNL     1       3.635   3.724  17.625  0.00  0.00    +0.000 NA
ENDBRANCH  18  20
ENDBRANCH  17  18
ENDBRANCH   5  17
TORSDOF 5
ENDMDL
MODEL 7
REMARK VINA RESULT:      -8.4      2.338      7.750
REMARK  Name = 
REMARK  5 active torsions:
REMARK  status: ('A' for Active; 'I' for Inactive)
REMARK    1  A    between atoms: C_2  and  C_23
REMARK    2  A    between atoms: N_3  and  C_4
REMARK    3  A    between atoms: C_8  and  C_9
REMARK    4  A    between atoms: C_9  and  N_10
REMARK    5  A    between atoms: N_10  and  C_11
REMARK                            x       y       z     vdW  Elec       q    Type
REMARK                         _______ _______ _______ _____ _____    ______ ____
ROOT
ATOM      1  C   UNL     1       3.684   3.409  17.464  0.00  0.00    +0.000 A 
ATOM      2  C   UNL     1       2.715   2.413  17.614  0.00  0.00    +0.000 A 
ATOM      3  C   UNL     1       1.681   2.548  18.539  0.00  0.00    +0.000 A 
ATOM      4  C   UNL     1       1.619   3.675  19.349  0.00  0.00    +0.000 A 
ATOM      5  C   UNL     1       2.608   4.665  19.265  0.00  0.00    +0.000 A 
ATOM      6  C   UNL     1       3.645   4.519  18.321  0.00  0.00    +0.000 A 
ENDROOT
BRANCH   1   9
ATOM      7  O   UNL     1       4.842   5.585  15.938  0.00  0.00    +0.000 OA
ATOM      8  C   UNL     1       5.171   4.416  15.747  0.00  0.00    +0.000 C 
ATOM      9  N   UNL     1       4.704   3.335  16.481  0.00  0.00    +0.000 N 
ATOM     10  H   UNL     1       5.222   2.469  16.422  0.00  0.00    +0.000 HD
BRANCH   8  11
ATOM     11  C   UNL     1       6.214   4.068  14.674  0.00  0.00    +0.000 C 
ATOM     12  C   UNL     1       7.089   5.314  14.420  0.00  0.00    +0.000 C 
ATOM     13  C   UNL     1       8.057   5.153  13.258  0.00  0.00    +0.000 C 
ATOM     14  C   UNL     1       7.324   4.736  11.992  0.00  0.00    +0.000 C 
ATOM     15  C   UNL     1       6.535   3.452  12.220  0.00  0.00    +0.000 C 
ATOM     16  C   UNL     1       5.546   3.588  13.378  0.00  0.00    +0.000 C 
ENDBRANCH   8  11
ENDBRANCH   1   9
BRANCH   5  17
ATOM     17  C   UNL     1       2.518   5.882  20.157  0.00  0.00    +0.000 C 
BRANCH  17  18
ATOM     18  N   UNL     1       2.436   7.092  19.345  0.00  0.00    +0.000 N 
ATOM     19  H   UNL     1       2.134   6.863  18.398  0.00  0.00    +0.000 HD
BRANCH  18  20
ATOM     20  C   UNL     1       1.706   8.201  19.742  0.00  0.00    +0.000 A 
ATOM     21  C   UNL     1       1.496   9.221  18.901  0.00  0.00    +0.000 A 
ATOM     22  C   UNL     1       0.695  10.379  19.330  0.00  0.00    +0.000 A 
ATOM     23  O   UNL     1       0.526  11.308  18.540  0.00  0.00    +0.000 OA
ATOM     24  N   UNL     1       0.200  10.318  20.620  0.00  0.00    +0.000 N 
ATOM     25  C   UNL     1      -0.570  11.367  21.109  0.00  0.00    +0.000 A 
ATOM     26  C   UNL     1      -1.061  11.355  22.354  0.00  0.00    +0.000 A 
ATOM     27  C   UNL     1      -0.789  10.240  23.223  0.00  0.00    +0.000 A 
ATOM     28  C   UNL     1      -0.060   9.205  22.788  0.00  0.00    +0.000 A 
ATOM     29  C   UNL     1       0.485   9.208  21.400  0.00  0.00    +0.000 A 
ATOM     30  N   UNL     1       1.189   8.192  21.007  0.00  0.00    +0.000 NA
ENDBRANCH  18  20
ENDBRANCH  17  18
ENDBRANCH   5  17
TORSDOF 5
ENDMDL
MODEL 8
REMARK VINA RESULT:      -8.4      2.955      7.071
REMARK  Name = 
REMARK  5 active torsions:
REMARK  status: ('A' for Active; 'I' for Inactive)
REMARK    1  A    between atoms: C_2  and  C_23
REMARK    2  A    between atoms: N_3  and  C_4
REMARK    3  A    between atoms: C_8  and  C_9
REMARK    4  A    between atoms: C_9  and  N_10
REMARK    5  A    between atoms: N_10  and  C_11
REMARK                            x       y       z     vdW  Elec       q    Type
REMARK                         _______ _______ _______ _____ _____    ______ ____
ROOT
ATOM      1  C   UNL     1       8.079   7.200  18.586  0.00  0.00    +0.000 A 
ATOM      2  C   UNL     1       8.286   5.907  19.074  0.00  0.00    +0.000 A 
ATOM      3  C   UNL     1       7.535   4.831  18.605  0.00  0.00    +0.000 A 
ATOM      4  C   UNL     1       6.543   5.040  17.655  0.00  0.00    +0.000 A 
ATOM      5  C   UNL     1       6.270   6.334  17.187  0.00  0.00    +0.000 A 
ATOM      6  C   UNL     1       7.041   7.413  17.666  0.00  0.00    +0.000 A 
ENDROOT
BRANCH   1   9
ATOM      7  O   UNL     1       7.821   9.972  17.775  0.00  0.00    +0.000 OA
ATOM      8  C   UNL     1       8.730   9.597  18.514  0.00  0.00    +0.000 C 
ATOM      9  N   UNL     1       8.876   8.302  18.989  0.00  0.00    +0.000 N 
ATOM     10  H   UNL     1       9.488   8.160  19.782  0.00  0.00    +0.000 HD
BRANCH   8  11
ATOM     11  C   UNL     1       9.774  10.598  19.030  0.00  0.00    +0.000 C 
ATOM     12  C   UNL     1       9.359  11.052  20.446  0.00  0.00    +0.000 C 
ATOM     13  C   UNL     1      10.223  12.172  21.005  0.00  0.00    +0.000 C 
ATOM     14  C   UNL     1      10.271  13.353  20.047  0.00  0.00    +0.000 C 
ATOM     15  C   UNL     1      10.772  12.918  18.675  0.00  0.00    +0.000 C 
ATOM     16  C   UNL     1       9.915  11.798  18.084  0.00  0.00    +0.000 C 
ENDBRANCH   8  11
ENDBRANCH   1   9
BRANCH   5  17
ATOM     17  C   UNL     1       5.187   6.536  16.152  0.00  0.00    +0.000 C 
BRANCH  17  18
ATOM     18  N   UNL     1       3.993   7.094  16.780  0.00  0.00    +0.000 N 
ATOM     19  H   UNL     1       3.318   7.378  16.070  0.00  0.00    +0.000 HD
BRANCH  18  20
ATOM     20  C   UNL     1       3.285   6.412  17.757  0.00  0.00    +0.000 A 
ATOM     21  C   UNL     1       2.870   7.037  18.866  0.00  0.00    +0.000 A 
ATOM     22  C   UNL     1       2.095   6.305  19.880  0.00  0.00    +0.000 A 
ATOM     23  O   UNL     1       1.735   6.901  20.896  0.00  0.00    +0.000 OA
ATOM     24  N   UNL     1       1.844   4.975  19.595  0.00  0.00    +0.000 N 
ATOM     25  C   UNL     1       1.116   4.206  20.495  0.00  0.00    +0.000 A 
ATOM     26  C   UNL     1       0.857   2.913  20.265  0.00  0.00    +0.000 A 
ATOM     27  C   UNL     1       1.342   2.287  19.064  0.00  0.00    +0.000 A 
ATOM     28  C   UNL     1       2.039   2.993  18.166  0.00  0.00    +0.000 A 
ATOM     29  C   UNL     1       2.325   4.436  18.413  0.00  0.00    +0.000 A 
ATOM     30  N   UNL     1       3.003   5.095  17.524  0.00  0.00    +0.000 NA
ENDBRANCH  18  20
ENDBRANCH  17  18
ENDBRANCH   5  17
TORSDOF 5
ENDMDL
MODEL 9
REMARK VINA RESULT:      -8.3      2.508      7.916
REMARK  Name = 
REMARK  5 active torsions:
REMARK  status: ('A' for Active; 'I' for Inactive)
REMARK    1  A    between atoms: C_2  and  C_23
REMARK    2  A    between atoms: N_3  and  C_4
REMARK    3  A    between atoms: C_8  and  C_9
REMARK    4  A    between atoms: C_9  and  N_10
REMARK    5  A    between atoms: N_10  and  C_11
REMARK                            x       y       z     vdW  Elec       q    Type
REMARK                         _______ _______ _______ _____ _____    ______ ____
ROOT
ATOM      1  C   UNL     1       3.908   4.048  17.954  0.00  0.00    +0.000 A 
ATOM      2  C   UNL     1       4.266   2.938  18.724  0.00  0.00    +0.000 A 
ATOM      3  C   UNL     1       3.757   2.759  20.009  0.00  0.00    +0.000 A 
ATOM      4  C   UNL     1       2.901   3.708  20.554  0.00  0.00    +0.000 A 
ATOM      5  C   UNL     1       2.568   4.862  19.830  0.00  0.00    +0.000 A 
ATOM      6  C   UNL     1       3.085   5.027  18.528  0.00  0.00    +0.000 A 
ENDROOT
BRANCH   1   9
ATOM      7  O   UNL     1       6.481   5.026  17.043  0.00  0.00    +0.000 OA
ATOM      8  C   UNL     1       5.580   4.749  16.254  0.00  0.00    +0.000 C 
ATOM      9  N   UNL     1       4.350   4.219  16.616  0.00  0.00    +0.000 N 
ATOM     10  H   UNL     1       3.792   3.789  15.890  0.00  0.00    +0.000 HD
BRANCH   8  11
ATOM     11  C   UNL     1       5.790   4.922  14.742  0.00  0.00    +0.000 C 
ATOM     12  C   UNL     1       5.160   3.712  14.019  0.00  0.00    +0.000 C 
ATOM     13  C   UNL     1       5.444   3.678  12.525  0.00  0.00    +0.000 C 
ATOM     14  C   UNL     1       6.940   3.757  12.254  0.00  0.00    +0.000 C 
ATOM     15  C   UNL     1       7.542   5.004  12.891  0.00  0.00    +0.000 C 
ATOM     16  C   UNL     1       7.279   5.059  14.396  0.00  0.00    +0.000 C 
ENDBRANCH   8  11
ENDBRANCH   1   9
BRANCH   5  17
ATOM     17  C   UNL     1       1.633   5.879  20.443  0.00  0.00    +0.000 C 
BRANCH  17  18
ATOM     18  N   UNL     1       2.145   7.228  20.219  0.00  0.00    +0.000 N 
ATOM     19  H   UNL     1       2.393   7.355  19.238  0.00  0.00    +0.000 HD
BRANCH  18  20
ATOM     20  C   UNL     1       1.443   8.358  20.606  0.00  0.00    +0.000 A 
ATOM     21  C   UNL     1       1.150   8.577  21.894  0.00  0.00    +0.000 A 
ATOM     22  C   UNL     1       0.428   9.796  22.291  0.00  0.00    +0.000 A 
ATOM     23  O   UNL     1       0.163   9.967  23.481  0.00  0.00    +0.000 OA
ATOM     24  N   UNL     1       0.097  10.656  21.260  0.00  0.00    +0.000 N 
ATOM     25  C   UNL     1      -0.583  11.835  21.542  0.00  0.00    +0.000 A 
ATOM     26  C   UNL     1      -0.932  12.692  20.576  0.00  0.00    +0.000 A 
ATOM     27  C   UNL     1      -0.608  12.399  19.205  0.00  0.00    +0.000 A 
ATOM     28  C   UNL     1       0.055  11.280  18.890  0.00  0.00    +0.000 A 
ATOM     29  C   UNL     1       0.453  10.323  19.963  0.00  0.00    +0.000 A 
ATOM     30  N   UNL     1       1.094   9.247  19.627  0.00  0.00    +0.000 NA
ENDBRANCH  18  20
ENDBRANCH  17  18
ENDBRANCH   5  17
TORSDOF 5
ENDMDL
