MODEL 1
REMARK VINA RESULT:      -9.4      0.000      0.000
REMARK  Name = 
REMARK  5 active torsions:
REMARK  status: ('A' for Active; 'I' for Inactive)
REMARK    1  A    between atoms: C_1  and  N_2
REMARK    2  A    between atoms: C_6  and  C_7
REMARK    3  A    between atoms: C_7  and  C_8
REMARK    4  A    between atoms: C_13  and  N_14
REMARK    5  A    between atoms: C_21  and  C_22
REMARK                            x       y       z     vdW  Elec       q    Type
REMARK                         _______ _______ _______ _____ _____    ______ ____
ROOT
ATOM      1  C   UNL     1       4.352   3.748  17.400  0.00  0.00    +0.000 C 
ATOM      2  C   UNL     1       4.273   2.823  18.413  0.00  0.00    +0.000 C 
ATOM      3  C   UNL     1       3.775   2.938  19.876  0.00  0.00    +0.000 C 
ATOM      4  C   UNL     1       3.064   4.247  19.929  0.00  0.00    +0.000 C 
ATOM      5  C   UNL     1       2.640   5.591  20.319  0.00  0.00    +0.000 C 
ATOM      6  C   UNL     1       2.526   6.464  19.274  0.00  0.00    +0.000 C 
ATOM      7  C   UNL     1       2.876   5.937  17.862  0.00  0.00    +0.000 C 
ATOM      8  C   UNL     1       4.016   5.268  17.462  0.00  0.00    +0.000 C 
ENDROOT
BRANCH   6   9
ATOM      9  N   UNL     1       1.949   7.718  19.505  0.00  0.00    +0.000 N 
ATOM     10  C   UNL     1       1.304   8.049  20.781  0.00  0.00    +0.000 C 
ATOM     11  C   UNL     1       0.750   9.422  20.580  0.00  0.00    +0.000 A 
ATOM     12  C   UNL     1       1.049   9.843  19.291  0.00  0.00    +0.000 A 
ATOM     13  C   UNL     1       0.615  11.053  18.787  0.00  0.00    +0.000 A 
ATOM     14  C   UNL     1      -0.144  11.871  19.627  0.00  0.00    +0.000 A 
ATOM     15  C   UNL     1      -0.442  11.462  20.940  0.00  0.00    +0.000 A 
ATOM     16  C   UNL     1       0.002  10.224  21.442  0.00  0.00    +0.000 A 
ATOM     17  C   UNL     1       1.827   8.794  18.609  0.00  0.00    +0.000 C 
ATOM     18  O   UNL     1       2.237   8.932  17.484  0.00  0.00    +0.000 OA
BRANCH  16  19
ATOM     19  C   UNL     1      -0.347   9.809  22.848  0.00  0.00    +0.000 C 
ATOM     20  F   UNL     1       0.739   9.572  23.633  0.00  0.00    +0.000 F 
ATOM     21  F   UNL     1      -1.077  10.754  23.500  0.00  0.00    +0.000 F 
ATOM     22  F   UNL     1      -1.088   8.668  22.888  0.00  0.00    +0.000 F 
ENDBRANCH  16  19
ENDBRANCH   6   9
BRANCH   1  23
ATOM     23  C   UNL     1       4.926   3.321  16.017  0.00  0.00    +0.000 C 
BRANCH  23  29
ATOM     24  C   UNL     1       5.707   3.448  12.792  0.00  0.00    +0.000 C 
ATOM     25  N   UNL     1       6.266   4.162  13.910  0.00  0.00    +0.000 N 
ATOM     26  C   UNL     1       7.342   4.996  13.764  0.00  0.00    +0.000 A 
ATOM     27  N   UNL     1       7.691   5.472  14.931  0.00  0.00    +0.000 NA
ATOM     28  N   UNL     1       6.825   4.956  15.860  0.00  0.00    +0.000 NA
ATOM     29  C   UNL     1       5.945   4.168  15.255  0.00  0.00    +0.000 A 
ENDBRANCH  23  29
ENDBRANCH   1  23
TORSDOF 4
ENDMDL
MODEL 2
REMARK VINA RESULT:      -9.4      0.982      1.089
REMARK  Name = 
REMARK  5 active torsions:
REMARK  status: ('A' for Active; 'I' for Inactive)
REMARK    1  A    between atoms: C_1  and  N_2
REMARK    2  A    between atoms: C_6  and  C_7
REMARK    3  A    between atoms: C_7  and  C_8
REMARK    4  A    between atoms: C_13  and  N_14
REMARK    5  A    between atoms: C_21  and  C_22
REMARK                            x       y       z     vdW  Elec       q    Type
REMARK                         _______ _______ _______ _____ _____    ______ ____
ROOT
ATOM      1  C   UNL     1       5.248   4.469  17.276  0.00  0.00    +0.000 C 
ATOM      2  C   UNL     1       4.437   3.362  17.237  0.00  0.00    +0.000 C 
ATOM      3  C   UNL     1       2.989   3.126  17.738  0.00  0.00    +0.000 C 
ATOM      4  C   UNL     1       2.468   4.492  18.032  0.00  0.00    +0.000 C 
ATOM      5  C   UNL     1       1.868   5.643  18.706  0.00  0.00    +0.000 C 
ATOM      6  C   UNL     1       2.582   6.800  18.574  0.00  0.00    +0.000 C 
ATOM      7  C   UNL     1       3.906   6.735  17.775  0.00  0.00    +0.000 C 
ATOM      8  C   UNL     1       4.954   5.850  17.935  0.00  0.00    +0.000 C 
ENDROOT
BRANCH   6   9
ATOM      9  N   UNL     1       2.009   7.997  19.017  0.00  0.00    +0.000 N 
ATOM     10  C   UNL     1       1.429   8.128  20.358  0.00  0.00    +0.000 C 
ATOM     11  C   UNL     1       0.855   9.507  20.391  0.00  0.00    +0.000 A 
ATOM     12  C   UNL     1       1.084  10.117  19.164  0.00  0.00    +0.000 A 
ATOM     13  C   UNL     1       0.615  11.381  18.867  0.00  0.00    +0.000 A 
ATOM     14  C   UNL     1      -0.105  12.056  19.856  0.00  0.00    +0.000 A 
ATOM     15  C   UNL     1      -0.332  11.454  21.107  0.00  0.00    +0.000 A 
ATOM     16  C   UNL     1       0.147  10.162  21.398  0.00  0.00    +0.000 A 
ATOM     17  C   UNL     1       1.833   9.192  18.296  0.00  0.00    +0.000 C 
ATOM     18  O   UNL     1       2.183   9.500  17.185  0.00  0.00    +0.000 OA
BRANCH  16  19
ATOM     19  C   UNL     1      -0.125   9.539  22.743  0.00  0.00    +0.000 C 
ATOM     20  F   UNL     1       1.002   9.245  23.447  0.00  0.00    +0.000 F 
ATOM     21  F   UNL     1      -0.864  10.351  23.549  0.00  0.00    +0.000 F 
ATOM     22  F   UNL     1      -0.818   8.372  22.648  0.00  0.00    +0.000 F 
ENDBRANCH  16  19
ENDBRANCH   6   9
BRANCH   1  23
ATOM     23  C   UNL     1       6.690   4.384  16.693  0.00  0.00    +0.000 C 
BRANCH  23  29
ATOM     24  C   UNL     1       5.375   3.459  13.789  0.00  0.00    +0.000 C 
ATOM     25  N   UNL     1       6.470   4.350  14.069  0.00  0.00    +0.000 N 
ATOM     26  C   UNL     1       7.216   4.908  13.065  0.00  0.00    +0.000 A 
ATOM     27  N   UNL     1       8.180   5.626  13.581  0.00  0.00    +0.000 NA
ATOM     28  N   UNL     1       8.061   5.553  14.945  0.00  0.00    +0.000 NA
ATOM     29  C   UNL     1       7.021   4.791  15.258  0.00  0.00    +0.000 A 
ENDBRANCH  23  29
ENDBRANCH   1  23
TORSDOF 4
ENDMDL
MODEL 3
REMARK VINA RESULT:      -9.1      0.758      1.417
REMARK  Name = 
REMARK  5 active torsions:
REMARK  status: ('A' for Active; 'I' for Inactive)
REMARK    1  A    between atoms: C_1  and  N_2
REMARK    2  A    between atoms: C_6  and  C_7
REMARK    3  A    between atoms: C_7  and  C_8
REMARK    4  A    between atoms: C_13  and  N_14
REMARK    5  A    between atoms: C_21  and  C_22
REMARK                            x       y       z     vdW  Elec       q    Type
REMARK                         _______ _______ _______ _____ _____    ______ ____
ROOT
ATOM      1  C   UNL     1       4.126   3.460  17.697  0.00  0.00    +0.000 C 
ATOM      2  C   UNL     1       3.785   2.516  18.634  0.00  0.00    +0.000 C 
ATOM      3  C   UNL     1       3.071   2.636  20.005  0.00  0.00    +0.000 C 
ATOM      4  C   UNL     1       2.504   4.015  20.013  0.00  0.00    +0.000 C 
ATOM      5  C   UNL     1       2.168   5.385  20.401  0.00  0.00    +0.000 C 
ATOM      6  C   UNL     1       2.320   6.301  19.398  0.00  0.00    +0.000 C 
ATOM      7  C   UNL     1       2.837   5.786  18.034  0.00  0.00    +0.000 C 
ATOM      8  C   UNL     1       3.949   5.006  17.784  0.00  0.00    +0.000 C 
ENDROOT
BRANCH   6   9
ATOM      9  N   UNL     1       1.850   7.603  19.601  0.00  0.00    +0.000 N 
ATOM     10  C   UNL     1       1.214   8.008  20.859  0.00  0.00    +0.000 C 
ATOM     11  C   UNL     1       0.784   9.421  20.629  0.00  0.00    +0.000 A 
ATOM     12  C   UNL     1       1.141   9.794  19.340  0.00  0.00    +0.000 A 
ATOM     13  C   UNL     1       0.823  11.029  18.811  0.00  0.00    +0.000 A 
ATOM     14  C   UNL     1       0.123  11.923  19.624  0.00  0.00    +0.000 A 
ATOM     15  C   UNL     1      -0.233  11.562  20.937  0.00  0.00    +0.000 A 
ATOM     16  C   UNL     1       0.094  10.298  21.465  0.00  0.00    +0.000 A 
ATOM     17  C   UNL     1       1.837   8.672  18.687  0.00  0.00    +0.000 C 
ATOM     18  O   UNL     1       2.278   8.756  17.569  0.00  0.00    +0.000 OA
BRANCH  16  19
ATOM     19  C   UNL     1      -0.315   9.937  22.870  0.00  0.00    +0.000 C 
ATOM     20  F   UNL     1      -1.022  10.913  23.501  0.00  0.00    +0.000 F 
ATOM     21  F   UNL     1      -1.099   8.826  22.911  0.00  0.00    +0.000 F 
ATOM     22  F   UNL     1       0.752   9.674  23.673  0.00  0.00    +0.000 F 
ENDBRANCH  16  19
ENDBRANCH   6   9
BRANCH   1  23
ATOM     23  C   UNL     1       4.870   3.020  16.401  0.00  0.00    +0.000 C 
BRANCH  23  29
ATOM     24  C   UNL     1       7.579   4.521  17.597  0.00  0.00    +0.000 C 
ATOM     25  N   UNL     1       7.022   4.532  16.270  0.00  0.00    +0.000 N 
ATOM     26  C   UNL     1       7.557   5.305  15.274  0.00  0.00    +0.000 A 
ATOM     27  N   UNL     1       6.837   5.183  14.189  0.00  0.00    +0.000 NA
ATOM     28  N   UNL     1       5.820   4.307  14.467  0.00  0.00    +0.000 NA
ATOM     29  C   UNL     1       5.925   3.893  15.723  0.00  0.00    +0.000 A 
ENDBRANCH  23  29
ENDBRANCH   1  23
TORSDOF 4
ENDMDL
MODEL 4
REMARK VINA RESULT:      -9.1      4.385      9.071
REMARK  Name = 
REMARK  5 active torsions:
REMARK  status: ('A' for Active; 'I' for Inactive)
REMARK    1  A    between atoms: C_1  and  N_2
REMARK    2  A    between atoms: C_6  and  C_7
REMARK    3  A    between atoms: C_7  and  C_8
REMARK    4  A    between atoms: C_13  and  N_14
REMARK    5  A    between atoms: C_21  and  C_22
REMARK                            x       y       z     vdW  Elec       q    Type
REMARK                         _______ _______ _______ _____ _____    ______ ____
ROOT
ATOM      1  C   UNL     1      -0.635  11.118  19.380  0.00  0.00    +0.000 C 
ATOM      2  C   UNL     1      -0.589  11.375  20.728  0.00  0.00    +0.000 C 
ATOM      3  C   UNL     1       0.025  10.579  21.908  0.00  0.00    +0.000 C 
ATOM      4  C   UNL     1       0.884   9.549  21.258  0.00  0.00    +0.000 C 
ATOM      5  C   UNL     1       1.488   8.272  20.877  0.00  0.00    +0.000 C 
ATOM      6  C   UNL     1       1.625   8.103  19.528  0.00  0.00    +0.000 C 
ATOM      7  C   UNL     1       1.113   9.239  18.610  0.00  0.00    +0.000 C 
ATOM      8  C   UNL     1      -0.122   9.855  18.627  0.00  0.00    +0.000 C 
ENDROOT
BRANCH   6   9
ATOM      9  N   UNL     1       2.357   7.006  19.059  0.00  0.00    +0.000 N 
ATOM     10  C   UNL     1       3.371   7.145  18.008  0.00  0.00    +0.000 C 
ATOM     11  C   UNL     1       3.838   5.750  17.745  0.00  0.00    +0.000 A 
ATOM     12  C   UNL     1       3.144   4.880  18.575  0.00  0.00    +0.000 A 
ATOM     13  C   UNL     1       3.313   3.512  18.522  0.00  0.00    +0.000 A 
ATOM     14  C   UNL     1       4.230   3.006  17.596  0.00  0.00    +0.000 A 
ATOM     15  C   UNL     1       4.949   3.878  16.758  0.00  0.00    +0.000 A 
ATOM     16  C   UNL     1       4.765   5.273  16.819  0.00  0.00    +0.000 A 
ATOM     17  C   UNL     1       2.227   5.656  19.429  0.00  0.00    +0.000 C 
ATOM     18  O   UNL     1       1.533   5.132  20.263  0.00  0.00    +0.000 OA
BRANCH  16  19
ATOM     19  C   UNL     1       5.540   6.179  15.897  0.00  0.00    +0.000 C 
ATOM     20  F   UNL     1       4.753   6.984  15.133  0.00  0.00    +0.000 F 
ATOM     21  F   UNL     1       6.377   7.012  16.574  0.00  0.00    +0.000 F 
ATOM     22  F   UNL     1       6.323   5.489  15.023  0.00  0.00    +0.000 F 
ENDBRANCH  16  19
ENDBRANCH   6   9
BRANCH   1  23
ATOM     23  C   UNL     1      -1.355  12.124  18.432  0.00  0.00    +0.000 C 
BRANCH  23  29
ATOM     24  C   UNL     1      -4.575  12.144  19.242  0.00  0.00    +0.000 C 
ATOM     25  N   UNL     1      -3.928  11.735  18.022  0.00  0.00    +0.000 N 
ATOM     26  C   UNL     1      -4.632  11.180  16.987  0.00  0.00    +0.000 A 
ATOM     27  N   UNL     1      -3.809  10.844  16.028  0.00  0.00    +0.000 NA
ATOM     28  N   UNL     1      -2.546  11.195  16.427  0.00  0.00    +0.000 NA
ATOM     29  C   UNL     1      -2.602  11.748  17.632  0.00  0.00    +0.000 A 
ENDBRANCH  23  29
ENDBRANCH   1  23
TORSDOF 4
ENDMDL
MODEL 5
REMARK VINA RESULT:      -9.0      4.433      9.072
REMARK  Name = 
REMARK  5 active torsions:
REMARK  status: ('A' for Active; 'I' for Inactive)
REMARK    1  A    between atoms: C_1  and  N_2
REMARK    2  A    between atoms: C_6  and  C_7
REMARK    3  A    between atoms: C_7  and  C_8
REMARK    4  A    between atoms: C_13  and  N_14
REMARK    5  A    between atoms: C_21  and  C_22
REMARK                            x       y       z     vdW  Elec       q    Type
REMARK                         _______ _______ _______ _____ _____    ______ ____
ROOT
ATOM      1  C   UNL     1      -0.756  11.061  19.725  0.00  0.00    +0.000 C 
ATOM      2  C   UNL     1      -0.650  11.308  21.072  0.00  0.00    +0.000 C 
ATOM      3  C   UNL     1       0.034  10.515  22.214  0.00  0.00    +0.000 C 
ATOM      4  C   UNL     1       0.882   9.507  21.515  0.00  0.00    +0.000 C 
ATOM      5  C   UNL     1       1.492   8.246  21.094  0.00  0.00    +0.000 C 
ATOM      6  C   UNL     1       1.567   8.090  19.738  0.00  0.00    +0.000 C 
ATOM      7  C   UNL     1       0.990   9.223  18.856  0.00  0.00    +0.000 C 
ATOM      8  C   UNL     1      -0.255   9.814  18.937  0.00  0.00    +0.000 C 
ENDROOT
BRANCH   6   9
ATOM      9  N   UNL     1       2.298   7.012  19.226  0.00  0.00    +0.000 N 
ATOM     10  C   UNL     1       3.310   7.192  18.180  0.00  0.00    +0.000 C 
ATOM     11  C   UNL     1       3.775   5.808  17.861  0.00  0.00    +0.000 A 
ATOM     12  C   UNL     1       3.081   4.906  18.657  0.00  0.00    +0.000 A 
ATOM     13  C   UNL     1       3.249   3.541  18.549  0.00  0.00    +0.000 A 
ATOM     14  C   UNL     1       4.164   3.072  17.603  0.00  0.00    +0.000 A 
ATOM     15  C   UNL     1       4.883   3.975  16.799  0.00  0.00    +0.000 A 
ATOM     16  C   UNL     1       4.701   5.367  16.915  0.00  0.00    +0.000 A 
ATOM     17  C   UNL     1       2.166   5.648  19.542  0.00  0.00    +0.000 C 
ATOM     18  O   UNL     1       1.472   5.092  20.355  0.00  0.00    +0.000 OA
BRANCH  16  19
ATOM     19  C   UNL     1       5.476   6.308  16.029  0.00  0.00    +0.000 C 
ATOM     20  F   UNL     1       6.245   7.196  16.716  0.00  0.00    +0.000 F 
ATOM     21  F   UNL     1       6.326   5.650  15.195  0.00  0.00    +0.000 F 
ATOM     22  F   UNL     1       4.670   7.057  15.229  0.00  0.00    +0.000 F 
ENDBRANCH  16  19
ENDBRANCH   6   9
BRANCH   1  23
ATOM     23  C   UNL     1      -1.540  12.059  18.822  0.00  0.00    +0.000 C 
BRANCH  23  29
ATOM     24  C   UNL     1      -2.690  10.951  15.911  0.00  0.00    +0.000 C 
ATOM     25  N   UNL     1      -3.401  11.356  17.096  0.00  0.00    +0.000 N 
ATOM     26  C   UNL     1      -4.768  11.409  17.129  0.00  0.00    +0.000 A 
ATOM     27  N   UNL     1      -5.162  11.860  18.291  0.00  0.00    +0.000 NA
ATOM     28  N   UNL     1      -4.040  12.095  19.042  0.00  0.00    +0.000 NA
ATOM     29  C   UNL     1      -2.962  11.783  18.335  0.00  0.00    +0.000 A 
ENDBRANCH  23  29
ENDBRANCH   1  23
TORSDOF 4
ENDMDL
MODEL 6
REMARK VINA RESULT:      -8.9      1.106      1.725
REMARK  Name = 
REMARK  5 active torsions:
REMARK  status: ('A' for Active; 'I' for Inactive)
REMARK    1  A    between atoms: C_1  and  N_2
REMARK    2  A    between atoms: C_6  and  C_7
REMARK    3  A    between atoms: C_7  and  C_8
REMARK    4  A    between atoms: C_13  and  N_14
REMARK    5  A    between atoms: C_21  and  C_22
REMARK                            x       y       z     vdW  Elec       q    Type
REMARK                         _______ _______ _______ _____ _____    ______ ____
ROOT
ATOM      1  C   UNL     1       5.378   5.057  16.697  0.00  0.00    +0.000 C 
ATOM      2  C   UNL     1       4.832   3.836  17.007  0.00  0.00    +0.000 C 
ATOM      3  C   UNL     1       3.651   3.441  17.930  0.00  0.00    +0.000 C 
ATOM      4  C   UNL     1       2.958   4.728  18.225  0.00  0.00    +0.000 C 
ATOM      5  C   UNL     1       2.337   5.851  18.926  0.00  0.00    +0.000 C 
ATOM      6  C   UNL     1       2.737   7.078  18.476  0.00  0.00    +0.000 C 
ATOM      7  C   UNL     1       3.783   7.114  17.336  0.00  0.00    +0.000 C 
ATOM      8  C   UNL     1       4.994   6.453  17.271  0.00  0.00    +0.000 C 
ENDROOT
BRANCH   6   9
ATOM      9  N   UNL     1       2.071   8.215  18.945  0.00  0.00    +0.000 N 
ATOM     10  C   UNL     1       1.436   8.250  20.267  0.00  0.00    +0.000 C 
ATOM     11  C   UNL     1       0.771   9.587  20.333  0.00  0.00    +0.000 A 
ATOM     12  C   UNL     1       1.002  10.262  19.142  0.00  0.00    +0.000 A 
ATOM     13  C   UNL     1       0.461  11.504  18.878  0.00  0.00    +0.000 A 
ATOM     14  C   UNL     1      -0.337  12.088  19.865  0.00  0.00    +0.000 A 
ATOM     15  C   UNL     1      -0.568  11.420  21.082  0.00  0.00    +0.000 A 
ATOM     16  C   UNL     1      -0.014  10.151  21.338  0.00  0.00    +0.000 A 
ATOM     17  C   UNL     1       1.841   9.426  18.267  0.00  0.00    +0.000 C 
ATOM     18  O   UNL     1       2.209   9.802  17.183  0.00  0.00    +0.000 OA
BRANCH  16  19
ATOM     19  C   UNL     1      -0.292   9.455  22.646  0.00  0.00    +0.000 C 
ATOM     20  F   UNL     1      -1.116  10.155  23.473  0.00  0.00    +0.000 F 
ATOM     21  F   UNL     1      -0.886   8.243  22.471  0.00  0.00    +0.000 F 
ATOM     22  F   UNL     1       0.840   9.219  23.364  0.00  0.00    +0.000 F 
ENDBRANCH  16  19
ENDBRANCH   6   9
BRANCH   1  23
ATOM     23  C   UNL     1       6.598   5.127  15.730  0.00  0.00    +0.000 C 
BRANCH  23  29
ATOM     24  C   UNL     1       8.371   5.792  13.002  0.00  0.00    +0.000 C 
ATOM     25  N   UNL     1       7.307   4.844  13.209  0.00  0.00    +0.000 N 
ATOM     26  C   UNL     1       6.805   4.092  12.180  0.00  0.00    +0.000 A 
ATOM     27  N   UNL     1       5.814   3.359  12.615  0.00  0.00    +0.000 NA
ATOM     28  N   UNL     1       5.667   3.618  13.953  0.00  0.00    +0.000 NA
ATOM     29  C   UNL     1       6.574   4.509  14.332  0.00  0.00    +0.000 A 
ENDBRANCH  23  29
ENDBRANCH   1  23
TORSDOF 4
ENDMDL
MODEL 7
REMARK VINA RESULT:      -8.8      4.524     10.024
REMARK  Name = 
REMARK  5 active torsions:
REMARK  status: ('A' for Active; 'I' for Inactive)
REMARK    1  A    between atoms: C_1  and  N_2
REMARK    2  A    between atoms: C_6  and  C_7
REMARK    3  A    between atoms: C_7  and  C_8
REMARK    4  A    between atoms: C_13  and  N_14
REMARK    5  A    between atoms: C_21  and  C_22
REMARK                            x       y       z     vdW  Elec       q    Type
REMARK                         _______ _______ _______ _____ _____    ______ ____
ROOT
ATOM      1  C   UNL     1      -0.539  10.833  21.648  0.00  0.00    +0.000 C 
ATOM      2  C   UNL     1      -0.946  11.622  20.600  0.00  0.00    +0.000 C 
ATOM      3  C   UNL     1      -0.547  11.631  19.102  0.00  0.00    +0.000 C 
ATOM      4  C   UNL     1       0.192  10.352  18.903  0.00  0.00    +0.000 C 
ATOM      5  C   UNL     1       1.219   9.373  18.545  0.00  0.00    +0.000 C 
ATOM      6  C   UNL     1       1.482   8.459  19.526  0.00  0.00    +0.000 C 
ATOM      7  C   UNL     1       0.702   8.594  20.855  0.00  0.00    +0.000 C 
ATOM      8  C   UNL     1       0.549   9.718  21.642  0.00  0.00    +0.000 C 
ENDROOT
BRANCH   6   9
ATOM      9  N   UNL     1       2.306   7.370  19.224  0.00  0.00    +0.000 N 
ATOM     10  C   UNL     1       3.319   7.435  18.165  0.00  0.00    +0.000 C 
ATOM     11  C   UNL     1       3.900   6.059  18.110  0.00  0.00    +0.000 A 
ATOM     12  C   UNL     1       3.266   5.266  19.058  0.00  0.00    +0.000 A 
ATOM     13  C   UNL     1       3.545   3.923  19.205  0.00  0.00    +0.000 A 
ATOM     14  C   UNL     1       4.511   3.364  18.365  0.00  0.00    +0.000 A 
ATOM     15  C   UNL     1       5.170   4.159  17.409  0.00  0.00    +0.000 A 
ATOM     16  C   UNL     1       4.874   5.528  17.265  0.00  0.00    +0.000 A 
ATOM     17  C   UNL     1       2.279   6.081  19.787  0.00  0.00    +0.000 C 
ATOM     18  O   UNL     1       1.618   5.630  20.688  0.00  0.00    +0.000 OA
BRANCH  16  19
ATOM     19  C   UNL     1       5.587   6.350  16.221  0.00  0.00    +0.000 C 
ATOM     20  F   UNL     1       4.749   6.943  15.327  0.00  0.00    +0.000 F 
ATOM     21  F   UNL     1       6.319   7.358  16.768  0.00  0.00    +0.000 F 
ATOM     22  F   UNL     1       6.457   5.612  15.480  0.00  0.00    +0.000 F 
ENDBRANCH  16  19
ENDBRANCH   6   9
BRANCH   1  23
ATOM     23  C   UNL     1      -1.122  11.087  23.070  0.00  0.00    +0.000 C 
BRANCH  23  29
ATOM     24  C   UNL     1      -0.889  14.396  23.214  0.00  0.00    +0.000 C 
ATOM     25  N   UNL     1      -2.022  13.535  23.435  0.00  0.00    +0.000 N 
ATOM     26  C   UNL     1      -3.230  14.031  23.848  0.00  0.00    +0.000 A 
ATOM     27  N   UNL     1      -4.070  13.045  24.031  0.00  0.00    +0.000 NA
ATOM     28  N   UNL     1      -3.412  11.882  23.722  0.00  0.00    +0.000 NA
ATOM     29  C   UNL     1      -2.171  12.164  23.346  0.00  0.00    +0.000 A 
ENDBRANCH  23  29
ENDBRANCH   1  23
TORSDOF 4
ENDMDL
MODEL 8
REMARK VINA RESULT:      -8.8      2.773      4.143
REMARK  Name = 
REMARK  5 active torsions:
REMARK  status: ('A' for Active; 'I' for Inactive)
REMARK    1  A    between atoms: C_1  and  N_2
REMARK    2  A    between atoms: C_6  and  C_7
REMARK    3  A    between atoms: C_7  and  C_8
REMARK    4  A    between atoms: C_13  and  N_14
REMARK    5  A    between atoms: C_21  and  C_22
REMARK                            x       y       z     vdW  Elec       q    Type
REMARK                         _______ _______ _______ _____ _____    ______ ____
ROOT
ATOM      1  C   UNL     1       3.868   4.305  18.001  0.00  0.00    +0.000 C 
ATOM      2  C   UNL     1       4.769   4.608  17.010  0.00  0.00    +0.000 C 
ATOM      3  C   UNL     1       5.039   5.919  16.228  0.00  0.00    +0.000 C 
ATOM      4  C   UNL     1       4.302   6.968  16.989  0.00  0.00    +0.000 C 
ATOM      5  C   UNL     1       3.410   8.073  17.337  0.00  0.00    +0.000 C 
ATOM      6  C   UNL     1       2.651   7.847  18.451  0.00  0.00    +0.000 C 
ATOM      7  C   UNL     1       2.812   6.480  19.158  0.00  0.00    +0.000 C 
ATOM      8  C   UNL     1       2.756   5.220  18.598  0.00  0.00    +0.000 C 
ENDROOT
BRANCH   6   9
ATOM      9  N   UNL     1       1.904   8.904  18.981  0.00  0.00    +0.000 N 
ATOM     10  C   UNL     1       1.265   8.816  20.299  0.00  0.00    +0.000 C 
ATOM     11  C   UNL     1       0.506  10.095  20.439  0.00  0.00    +0.000 A 
ATOM     12  C   UNL     1       0.691  10.855  19.291  0.00  0.00    +0.000 A 
ATOM     13  C   UNL     1       0.064  12.069  19.098  0.00  0.00    +0.000 A 
ATOM     14  C   UNL     1      -0.776  12.535  20.112  0.00  0.00    +0.000 A 
ATOM     15  C   UNL     1      -0.961  11.781  21.285  0.00  0.00    +0.000 A 
ATOM     16  C   UNL     1      -0.320  10.542  21.470  0.00  0.00    +0.000 A 
ATOM     17  C   UNL     1       1.590  10.133  18.374  0.00  0.00    +0.000 C 
ATOM     18  O   UNL     1       1.934  10.599  17.317  0.00  0.00    +0.000 OA
BRANCH  16  19
ATOM     19  C   UNL     1      -0.551   9.752  22.733  0.00  0.00    +0.000 C 
ATOM     20  F   UNL     1      -1.464  10.315  23.570  0.00  0.00    +0.000 F 
ATOM     21  F   UNL     1      -1.005   8.494  22.480  0.00  0.00    +0.000 F 
ATOM     22  F   UNL     1       0.583   9.600  23.470  0.00  0.00    +0.000 F 
ENDBRANCH  16  19
ENDBRANCH   6   9
BRANCH   1  23
ATOM     23  C   UNL     1       3.828   2.862  18.586  0.00  0.00    +0.000 C 
BRANCH  23  29
ATOM     24  C   UNL     1       0.600   2.433  19.237  0.00  0.00    +0.000 C 
ATOM     25  N   UNL     1       1.738   2.390  20.118  0.00  0.00    +0.000 N 
ATOM     26  C   UNL     1       1.593   2.229  21.470  0.00  0.00    +0.000 A 
ATOM     27  N   UNL     1       2.765   2.282  22.047  0.00  0.00    +0.000 NA
ATOM     28  N   UNL     1       3.701   2.466  21.061  0.00  0.00    +0.000 NA
ATOM     29  C   UNL     1       3.094   2.522  19.882  0.00  0.00    +0.000 A 
ENDBRANCH  23  29
ENDBRANCH   1  23
TORSDOF 4
ENDMDL
MODEL 9
REMARK VINA RESULT:      -8.8      4.338      8.869
REMARK  Name = 
REMARK  5 active torsions:
REMARK  status: ('A' for Active; 'I' for Inactive)
REMARK    1  A    between atoms: C_1  and  N_2
REMARK    2  A    between atoms: C_6  and  C_7
REMARK    3  A    between atoms: C_7  and  C_8
REMARK    4  A    between atoms: C_13  and  N_14
REMARK    5  A    between atoms: C_21  and  C_22
REMARK                            x       y       z     vdW  Elec       q    Type
REMARK                         _______ _______ _______ _____ _____    ______ ____
ROOT
ATOM      1  C   UNL     1      -0.198  11.290  19.649  0.00  0.00    +0.000 C 
ATOM      2  C   UNL     1      -0.350  11.349  21.013  0.00  0.00    +0.000 C 
ATOM      3  C   UNL     1      -0.022  10.327  22.131  0.00  0.00    +0.000 C 
ATOM      4  C   UNL     1       0.826   9.299  21.462  0.00  0.00    +0.000 C 
ATOM      5  C   UNL     1       1.354   8.023  20.978  0.00  0.00    +0.000 C 
ATOM      6  C   UNL     1       1.693   8.027  19.655  0.00  0.00    +0.000 C 
ATOM      7  C   UNL     1       1.456   9.335  18.861  0.00  0.00    +0.000 C 
ATOM      8  C   UNL     1       0.303  10.090  18.791  0.00  0.00    +0.000 C 
ENDROOT
BRANCH   6   9
ATOM      9  N   UNL     1       2.380   6.925  19.134  0.00  0.00    +0.000 N 
ATOM     10  C   UNL     1       3.400   7.071  18.090  0.00  0.00    +0.000 C 
ATOM     11  C   UNL     1       3.808   5.672  17.760  0.00  0.00    +0.000 A 
ATOM     12  C   UNL     1       3.076   4.794  18.547  0.00  0.00    +0.000 A 
ATOM     13  C   UNL     1       3.188   3.423  18.428  0.00  0.00    +0.000 A 
ATOM     14  C   UNL     1       4.084   2.925  17.479  0.00  0.00    +0.000 A 
ATOM     15  C   UNL     1       4.841   3.805  16.684  0.00  0.00    +0.000 A 
ATOM     16  C   UNL     1       4.716   5.201  16.812  0.00  0.00    +0.000 A 
ATOM     17  C   UNL     1       2.191   5.565  19.438  0.00  0.00    +0.000 C 
ATOM     18  O   UNL     1       1.474   5.031  20.245  0.00  0.00    +0.000 OA
BRANCH  16  19
ATOM     19  C   UNL     1       5.531   6.117  15.935  0.00  0.00    +0.000 C 
ATOM     20  F   UNL     1       6.327   5.459  15.048  0.00  0.00    +0.000 F 
ATOM     21  F   UNL     1       4.753   6.947  15.189  0.00  0.00    +0.000 F 
ATOM     22  F   UNL     1       6.362   6.923  16.651  0.00  0.00    +0.000 F 
ENDBRANCH  16  19
ENDBRANCH   6   9
BRANCH   1  23
ATOM     23  C   UNL     1      -0.648  12.499  18.775  0.00  0.00    +0.000 C 
BRANCH  23  29
ATOM     24  C   UNL     1       2.578  13.125  18.300  0.00  0.00    +0.000 C 
ATOM     25  N   UNL     1       1.487  14.027  18.565  0.00  0.00    +0.000 N 
ATOM     26  C   UNL     1       1.693  15.368  18.747  0.00  0.00    +0.000 A 
ATOM     27  N   UNL     1       0.558  15.952  19.029  0.00  0.00    +0.000 NA
ATOM     28  N   UNL     1      -0.415  14.986  19.020  0.00  0.00    +0.000 NA
ATOM     29  C   UNL     1       0.131  13.813  18.728  0.00  0.00    +0.000 A 
ENDBRANCH  23  29
ENDBRANCH   1  23
TORSDOF 4
ENDMDL
