MODEL 1
REMARK VINA RESULT:      -8.5      0.000      0.000
REMARK  Name = 
REMARK  6 active torsions:
REMARK  status: ('A' for Active; 'I' for Inactive)
REMARK    1  A    between atoms: C_1  and  N_2
REMARK    2  A    between atoms: C_6  and  C_7
REMARK    3  A    between atoms: C_7  and  C_8
REMARK    4  A    between atoms: C_8  and  C_9
REMARK    5  A    between atoms: C_10  and  N_11
REMARK    6  A    between atoms: C_18  and  C_19
REMARK                            x       y       z     vdW  Elec       q    Type
REMARK                         _______ _______ _______ _____ _____    ______ ____
ROOT
ATOM      1  N   UNL     1       2.000   7.657  19.239  0.00  0.00    +0.000 N 
ATOM      2  C   UNL     1       1.271   7.832  20.492  0.00  0.00    +0.000 C 
ATOM      3  C   UNL     1       0.840   9.287  20.440  0.00  0.00    +0.000 A 
ATOM      4  C   UNL     1       1.174   9.813  19.192  0.00  0.00    +0.000 A 
ATOM      5  C   UNL     1       0.883  11.103  18.777  0.00  0.00    +0.000 A 
ATOM      6  C   UNL     1       0.256  11.938  19.686  0.00  0.00    +0.000 A 
ATOM      7  C   UNL     1      -0.061  11.461  20.965  0.00  0.00    +0.000 A 
ATOM      8  C   UNL     1       0.219  10.125  21.365  0.00  0.00    +0.000 A 
ATOM      9  C   UNL     1       1.887   8.791  18.433  0.00  0.00    +0.000 C 
ATOM     10  O   UNL     1       2.287   9.008  17.296  0.00  0.00    +0.000 OA
ENDROOT
BRANCH   1  12
ATOM     11  C   UNL     1       2.505   5.299  18.179  0.00  0.00    +0.000 C 
ATOM     12  C   UNL     1       2.633   6.516  18.753  0.00  0.00    +0.000 C 
ATOM     13  C   UNL     1       4.033   6.151  18.979  0.00  0.00    +0.000 C 
ATOM     14  C   UNL     1       3.936   5.357  17.901  0.00  0.00    +0.000 C 
BRANCH  11  15
ATOM     15  C   UNL     1       1.571   4.237  17.625  0.00  0.00    +0.000 C 
BRANCH  15  16
ATOM     16  C   UNL     1       1.810   2.832  18.164  0.00  0.00    +0.000 C 
BRANCH  16  22
ATOM     17  C   UNL     1       4.345   2.287  19.847  0.00  0.00    +0.000 C 
ATOM     18  N   UNL     1       3.033   2.557  20.358  0.00  0.00    +0.000 N 
ATOM     19  C   UNL     1       2.676   2.610  21.669  0.00  0.00    +0.000 A 
ATOM     20  N   UNL     1       1.383   2.823  21.764  0.00  0.00    +0.000 NA
ATOM     21  N   UNL     1       0.888   2.920  20.492  0.00  0.00    +0.000 NA
ATOM     22  C   UNL     1       1.887   2.786  19.644  0.00  0.00    +0.000 A 
ENDBRANCH  16  22
ENDBRANCH  15  16
ENDBRANCH  11  15
ENDBRANCH   1  12
BRANCH   8  23
ATOM     23  C   UNL     1      -0.152   9.734  22.770  0.00  0.00    +0.000 C 
ATOM     24  F   UNL     1      -0.983   8.670  22.855  0.00  0.00    +0.000 F 
ATOM     25  F   UNL     1       0.947   9.406  23.511  0.00  0.00    +0.000 F 
ATOM     26  F   UNL     1      -0.756  10.751  23.447  0.00  0.00    +0.000 F 
ENDBRANCH   8  23
TORSDOF 5
ENDMDL
MODEL 2
REMARK VINA RESULT:      -8.1      1.391      2.087
REMARK  Name = 
REMARK  6 active torsions:
REMARK  status: ('A' for Active; 'I' for Inactive)
REMARK    1  A    between atoms: C_1  and  N_2
REMARK    2  A    between atoms: C_6  and  C_7
REMARK    3  A    between atoms: C_7  and  C_8
REMARK    4  A    between atoms: C_8  and  C_9
REMARK    5  A    between atoms: C_10  and  N_11
REMARK    6  A    between atoms: C_18  and  C_19
REMARK                            x       y       z     vdW  Elec       q    Type
REMARK                         _______ _______ _______ _____ _____    ______ ____
ROOT
ATOM      1  N   UNL     1       3.300   6.558  18.886  0.00  0.00    +0.000 N 
ATOM      2  C   UNL     1       2.340   6.805  19.959  0.00  0.00    +0.000 C 
ATOM      3  C   UNL     1       1.752   8.156  19.592  0.00  0.00    +0.000 A 
ATOM      4  C   UNL     1       2.239   8.537  18.343  0.00  0.00    +0.000 A 
ATOM      5  C   UNL     1       1.873   9.694  17.673  0.00  0.00    +0.000 A 
ATOM      6  C   UNL     1       0.996  10.550  18.315  0.00  0.00    +0.000 A 
ATOM      7  C   UNL     1       0.513  10.224  19.590  0.00  0.00    +0.000 A 
ATOM      8  C   UNL     1       0.876   9.018  20.251  0.00  0.00    +0.000 A 
ATOM      9  C   UNL     1       3.197   7.533  17.891  0.00  0.00    +0.000 C 
ATOM     10  O   UNL     1       3.767   7.637  16.812  0.00  0.00    +0.000 OA
ENDROOT
BRANCH   1  12
ATOM     11  C   UNL     1       4.293   4.204  18.247  0.00  0.00    +0.000 C 
ATOM     12  C   UNL     1       4.144   5.466  18.708  0.00  0.00    +0.000 C 
ATOM     13  C   UNL     1       5.452   5.281  19.341  0.00  0.00    +0.000 C 
ATOM     14  C   UNL     1       5.733   4.406  18.363  0.00  0.00    +0.000 C 
BRANCH  11  15
ATOM     15  C   UNL     1       3.653   3.005  17.570  0.00  0.00    +0.000 C 
BRANCH  15  16
ATOM     16  C   UNL     1       3.385   1.820  18.490  0.00  0.00    +0.000 C 
BRANCH  16  22
ATOM     17  C   UNL     1       0.469   2.683  19.047  0.00  0.00    +0.000 C 
ATOM     18  N   UNL     1       1.522   2.583  20.016  0.00  0.00    +0.000 N 
ATOM     19  C   UNL     1       1.420   2.860  21.344  0.00  0.00    +0.000 A 
ATOM     20  N   UNL     1       2.596   2.714  21.913  0.00  0.00    +0.000 NA
ATOM     21  N   UNL     1       3.478   2.325  20.942  0.00  0.00    +0.000 NA
ATOM     22  C   UNL     1       2.825   2.221  19.803  0.00  0.00    +0.000 A 
ENDBRANCH  16  22
ENDBRANCH  15  16
ENDBRANCH  11  15
ENDBRANCH   1  12
BRANCH   8  23
ATOM     23  C   UNL     1       0.308   8.786  21.624  0.00  0.00    +0.000 C 
ATOM     24  F   UNL     1       1.234   8.540  22.580  0.00  0.00    +0.000 F 
ATOM     25  F   UNL     1      -0.404   9.864  22.067  0.00  0.00    +0.000 F 
ATOM     26  F   UNL     1      -0.564   7.739  21.653  0.00  0.00    +0.000 F 
ENDBRANCH   8  23
TORSDOF 5
ENDMDL
MODEL 3
REMARK VINA RESULT:      -8.1      0.988      1.348
REMARK  Name = 
REMARK  6 active torsions:
REMARK  status: ('A' for Active; 'I' for Inactive)
REMARK    1  A    between atoms: C_1  and  N_2
REMARK    2  A    between atoms: C_6  and  C_7
REMARK    3  A    between atoms: C_7  and  C_8
REMARK    4  A    between atoms: C_8  and  C_9
REMARK    5  A    between atoms: C_10  and  N_11
REMARK    6  A    between atoms: C_18  and  C_19
REMARK                            x       y       z     vdW  Elec       q    Type
REMARK                         _______ _______ _______ _____ _____    ______ ____
ROOT
ATOM      1  N   UNL     1       2.820   6.904  18.786  0.00  0.00    +0.000 N 
ATOM      2  C   UNL     1       1.936   7.121  19.927  0.00  0.00    +0.000 C 
ATOM      3  C   UNL     1       1.464   8.551  19.731  0.00  0.00    +0.000 A 
ATOM      4  C   UNL     1       1.930   9.016  18.503  0.00  0.00    +0.000 A 
ATOM      5  C   UNL     1       1.648  10.266  17.974  0.00  0.00    +0.000 A 
ATOM      6  C   UNL     1       0.885  11.126  18.746  0.00  0.00    +0.000 A 
ATOM      7  C   UNL     1       0.429  10.711  20.004  0.00  0.00    +0.000 A 
ATOM      8  C   UNL     1       0.704   9.414  20.520  0.00  0.00    +0.000 A 
ATOM      9  C   UNL     1       2.768   7.983  17.902  0.00  0.00    +0.000 C 
ATOM     10  O   UNL     1       3.297   8.150  16.810  0.00  0.00    +0.000 OA
ENDROOT
BRANCH   1  12
ATOM     11  C   UNL     1       3.546   4.534  17.895  0.00  0.00    +0.000 C 
ATOM     12  C   UNL     1       3.548   5.765  18.454  0.00  0.00    +0.000 C 
ATOM     13  C   UNL     1       4.886   5.429  18.945  0.00  0.00    +0.000 C 
ATOM     14  C   UNL     1       5.003   4.611  17.887  0.00  0.00    +0.000 C 
BRANCH  11  15
ATOM     15  C   UNL     1       2.747   3.445  17.201  0.00  0.00    +0.000 C 
BRANCH  15  16
ATOM     16  C   UNL     1       2.529   2.185  18.030  0.00  0.00    +0.000 C 
BRANCH  16  22
ATOM     17  C   UNL     1       4.469   2.008  20.431  0.00  0.00    +0.000 C 
ATOM     18  N   UNL     1       3.091   2.402  20.485  0.00  0.00    +0.000 N 
ATOM     19  C   UNL     1       2.399   2.756  21.601  0.00  0.00    +0.000 A 
ATOM     20  N   UNL     1       1.147   2.999  21.282  0.00  0.00    +0.000 NA
ATOM     21  N   UNL     1       1.023   2.811  19.932  0.00  0.00    +0.000 NA
ATOM     22  C   UNL     1       2.201   2.476  19.447  0.00  0.00    +0.000 A 
ENDBRANCH  16  22
ENDBRANCH  15  16
ENDBRANCH  11  15
ENDBRANCH   1  12
BRANCH   8  23
ATOM     23  C   UNL     1       0.176   9.090  21.891  0.00  0.00    +0.000 C 
ATOM     24  F   UNL     1       1.132   8.839  22.815  0.00  0.00    +0.000 F 
ATOM     25  F   UNL     1      -0.572  10.113  22.400  0.00  0.00    +0.000 F 
ATOM     26  F   UNL     1      -0.649   8.006  21.884  0.00  0.00    +0.000 F 
ENDBRANCH   8  23
TORSDOF 5
ENDMDL
MODEL 4
REMARK VINA RESULT:      -8.0      0.675      1.460
REMARK  Name = 
REMARK  6 active torsions:
REMARK  status: ('A' for Active; 'I' for Inactive)
REMARK    1  A    between atoms: C_1  and  N_2
REMARK    2  A    between atoms: C_6  and  C_7
REMARK    3  A    between atoms: C_7  and  C_8
REMARK    4  A    between atoms: C_8  and  C_9
REMARK    5  A    between atoms: C_10  and  N_11
REMARK    6  A    between atoms: C_18  and  C_19
REMARK                            x       y       z     vdW  Elec       q    Type
REMARK                         _______ _______ _______ _____ _____    ______ ____
ROOT
ATOM      1  N   UNL     1       2.036   7.641  19.178  0.00  0.00    +0.000 N 
ATOM      2  C   UNL     1       1.319   7.792  20.441  0.00  0.00    +0.000 C 
ATOM      3  C   UNL     1       0.878   9.245  20.417  0.00  0.00    +0.000 A 
ATOM      4  C   UNL     1       1.195   9.793  19.175  0.00  0.00    +0.000 A 
ATOM      5  C   UNL     1       0.892  11.087  18.783  0.00  0.00    +0.000 A 
ATOM      6  C   UNL     1       0.269  11.904  19.712  0.00  0.00    +0.000 A 
ATOM      7  C   UNL     1      -0.032  11.404  20.986  0.00  0.00    +0.000 A 
ATOM      8  C   UNL     1       0.261  10.064  21.362  0.00  0.00    +0.000 A 
ATOM      9  C   UNL     1       1.907   8.788  18.392  0.00  0.00    +0.000 C 
ATOM     10  O   UNL     1       2.294   9.025  17.255  0.00  0.00    +0.000 OA
ENDROOT
BRANCH   1  12
ATOM     11  C   UNL     1       2.543   5.288  18.109  0.00  0.00    +0.000 C 
ATOM     12  C   UNL     1       2.671   6.513  18.668  0.00  0.00    +0.000 C 
ATOM     13  C   UNL     1       4.089   6.184  18.822  0.00  0.00    +0.000 C 
ATOM     14  C   UNL     1       3.956   5.379  17.756  0.00  0.00    +0.000 C 
BRANCH  11  15
ATOM     15  C   UNL     1       1.609   4.200  17.611  0.00  0.00    +0.000 C 
BRANCH  15  16
ATOM     16  C   UNL     1       1.393   3.048  18.585  0.00  0.00    +0.000 C 
BRANCH  16  22
ATOM     17  C   UNL     1       2.154   3.651  21.520  0.00  0.00    +0.000 C 
ATOM     18  N   UNL     1       2.937   2.903  20.580  0.00  0.00    +0.000 N 
ATOM     19  C   UNL     1       4.151   2.337  20.816  0.00  0.00    +0.000 A 
ATOM     20  N   UNL     1       4.597   1.780  19.712  0.00  0.00    +0.000 NA
ATOM     21  N   UNL     1       3.652   1.976  18.742  0.00  0.00    +0.000 NA
ATOM     22  C   UNL     1       2.639   2.631  19.272  0.00  0.00    +0.000 A 
ENDBRANCH  16  22
ENDBRANCH  15  16
ENDBRANCH  11  15
ENDBRANCH   1  12
BRANCH   8  23
ATOM     23  C   UNL     1      -0.093   9.648  22.764  0.00  0.00    +0.000 C 
ATOM     24  F   UNL     1       0.969   9.328  23.539  0.00  0.00    +0.000 F 
ATOM     25  F   UNL     1      -0.757  10.635  23.433  0.00  0.00    +0.000 F 
ATOM     26  F   UNL     1      -0.927   8.570  22.788  0.00  0.00    +0.000 F 
ENDBRANCH   8  23
TORSDOF 5
ENDMDL
MODEL 5
REMARK VINA RESULT:      -7.9      3.937      7.342
REMARK  Name = 
REMARK  6 active torsions:
REMARK  status: ('A' for Active; 'I' for Inactive)
REMARK    1  A    between atoms: C_1  and  N_2
REMARK    2  A    between atoms: C_6  and  C_7
REMARK    3  A    between atoms: C_7  and  C_8
REMARK    4  A    between atoms: C_8  and  C_9
REMARK    5  A    between atoms: C_10  and  N_11
REMARK    6  A    between atoms: C_18  and  C_19
REMARK                            x       y       z     vdW  Elec       q    Type
REMARK                         _______ _______ _______ _____ _____    ______ ____
ROOT
ATOM      1  N   UNL     1       3.705   4.731  18.802  0.00  0.00    +0.000 N 
ATOM      2  C   UNL     1       4.679   5.815  18.706  0.00  0.00    +0.000 C 
ATOM      3  C   UNL     1       5.503   5.431  17.490  0.00  0.00    +0.000 A 
ATOM      4  C   UNL     1       4.926   4.315  16.886  0.00  0.00    +0.000 A 
ATOM      5  C   UNL     1       5.386   3.722  15.721  0.00  0.00    +0.000 A 
ATOM      6  C   UNL     1       6.528   4.252  15.145  0.00  0.00    +0.000 A 
ATOM      7  C   UNL     1       7.163   5.350  15.742  0.00  0.00    +0.000 A 
ATOM      8  C   UNL     1       6.660   5.965  16.923  0.00  0.00    +0.000 A 
ATOM      9  C   UNL     1       3.792   3.883  17.696  0.00  0.00    +0.000 C 
ATOM     10  O   UNL     1       3.111   2.917  17.373  0.00  0.00    +0.000 OA
ENDROOT
BRANCH   1  12
ATOM     11  C   UNL     1       1.696   5.109  20.463  0.00  0.00    +0.000 C 
ATOM     12  C   UNL     1       2.694   4.551  19.741  0.00  0.00    +0.000 C 
ATOM     13  C   UNL     1       2.516   3.374  20.594  0.00  0.00    +0.000 C 
ATOM     14  C   UNL     1       1.238   3.753  20.747  0.00  0.00    +0.000 C 
BRANCH  11  15
ATOM     15  C   UNL     1       0.911   6.363  20.806  0.00  0.00    +0.000 C 
BRANCH  15  16
ATOM     16  C   UNL     1       1.739   7.641  20.852  0.00  0.00    +0.000 C 
BRANCH  16  22
ATOM     17  C   UNL     1      -0.036  10.132  20.398  0.00  0.00    +0.000 C 
ATOM     18  N   UNL     1       0.859   9.545  19.443  0.00  0.00    +0.000 N 
ATOM     19  C   UNL     1       1.074   9.979  18.172  0.00  0.00    +0.000 A 
ATOM     20  N   UNL     1       1.914   9.168  17.569  0.00  0.00    +0.000 NA
ATOM     21  N   UNL     1       2.262   8.194  18.466  0.00  0.00    +0.000 NA
ATOM     22  C   UNL     1       1.646   8.437  19.604  0.00  0.00    +0.000 A 
ENDBRANCH  16  22
ENDBRANCH  15  16
ENDBRANCH  11  15
ENDBRANCH   1  12
BRANCH   8  23
ATOM     23  C   UNL     1       7.438   7.125  17.481  0.00  0.00    +0.000 C 
ATOM     24  F   UNL     1       8.141   6.841  18.602  0.00  0.00    +0.000 F 
ATOM     25  F   UNL     1       8.349   7.602  16.584  0.00  0.00    +0.000 F 
ATOM     26  F   UNL     1       6.638   8.186  17.784  0.00  0.00    +0.000 F 
ENDBRANCH   8  23
TORSDOF 5
ENDMDL
MODEL 6
REMARK VINA RESULT:      -7.9      2.686      3.961
REMARK  Name = 
REMARK  6 active torsions:
REMARK  status: ('A' for Active; 'I' for Inactive)
REMARK    1  A    between atoms: C_1  and  N_2
REMARK    2  A    between atoms: C_6  and  C_7
REMARK    3  A    between atoms: C_7  and  C_8
REMARK    4  A    between atoms: C_8  and  C_9
REMARK    5  A    between atoms: C_10  and  N_11
REMARK    6  A    between atoms: C_18  and  C_19
REMARK                            x       y       z     vdW  Elec       q    Type
REMARK                         _______ _______ _______ _____ _____    ______ ____
ROOT
ATOM      1  N   UNL     1       2.258   7.103  19.807  0.00  0.00    +0.000 N 
ATOM      2  C   UNL     1       1.426   7.484  20.944  0.00  0.00    +0.000 C 
ATOM      3  C   UNL     1       0.953   8.879  20.574  0.00  0.00    +0.000 A 
ATOM      4  C   UNL     1       1.367   9.166  19.274  0.00  0.00    +0.000 A 
ATOM      5  C   UNL     1       1.068  10.335  18.592  0.00  0.00    +0.000 A 
ATOM      6  C   UNL     1       0.344  11.301  19.269  0.00  0.00    +0.000 A 
ATOM      7  C   UNL     1      -0.058  11.068  20.592  0.00  0.00    +0.000 A 
ATOM      8  C   UNL     1       0.233   9.851  21.268  0.00  0.00    +0.000 A 
ATOM      9  C   UNL     1       2.172   8.051  18.785  0.00  0.00    +0.000 C 
ATOM     10  O   UNL     1       2.653   8.060  17.660  0.00  0.00    +0.000 OA
ENDROOT
BRANCH   1  12
ATOM     11  C   UNL     1       4.134   5.337  19.258  0.00  0.00    +0.000 C 
ATOM     12  C   UNL     1       2.964   5.921  19.603  0.00  0.00    +0.000 C 
ATOM     13  C   UNL     1       2.382   4.581  19.502  0.00  0.00    +0.000 C 
ATOM     14  C   UNL     1       3.596   4.097  19.807  0.00  0.00    +0.000 C 
BRANCH  11  15
ATOM     15  C   UNL     1       5.577   5.522  18.825  0.00  0.00    +0.000 C 
BRANCH  15  16
ATOM     16  C   UNL     1       5.774   6.463  17.642  0.00  0.00    +0.000 C 
BRANCH  16  22
ATOM     17  C   UNL     1       4.607   4.027  16.138  0.00  0.00    +0.000 C 
ATOM     18  N   UNL     1       5.818   4.723  15.810  0.00  0.00    +0.000 N 
ATOM     19  C   UNL     1       6.664   4.426  14.788  0.00  0.00    +0.000 A 
ATOM     20  N   UNL     1       7.697   5.237  14.824  0.00  0.00    +0.000 NA
ATOM     21  N   UNL     1       7.517   6.085  15.884  0.00  0.00    +0.000 NA
ATOM     22  C   UNL     1       6.371   5.792  16.462  0.00  0.00    +0.000 A 
ENDBRANCH  16  22
ENDBRANCH  15  16
ENDBRANCH  11  15
ENDBRANCH   1  12
BRANCH   8  23
ATOM     23  C   UNL     1      -0.235   9.724  22.692  0.00  0.00    +0.000 C 
ATOM     24  F   UNL     1      -0.916  10.797  23.156  0.00  0.00    +0.000 F 
ATOM     25  F   UNL     1      -1.067   8.655  22.859  0.00  0.00    +0.000 F 
ATOM     26  F   UNL     1       0.797   9.518  23.559  0.00  0.00    +0.000 F 
ENDBRANCH   8  23
TORSDOF 5
ENDMDL
MODEL 7
REMARK VINA RESULT:      -7.8      4.060      7.402
REMARK  Name = 
REMARK  6 active torsions:
REMARK  status: ('A' for Active; 'I' for Inactive)
REMARK    1  A    between atoms: C_1  and  N_2
REMARK    2  A    between atoms: C_6  and  C_7
REMARK    3  A    between atoms: C_7  and  C_8
REMARK    4  A    between atoms: C_8  and  C_9
REMARK    5  A    between atoms: C_10  and  N_11
REMARK    6  A    between atoms: C_18  and  C_19
REMARK                            x       y       z     vdW  Elec       q    Type
REMARK                         _______ _______ _______ _____ _____    ______ ____
ROOT
ATOM      1  N   UNL     1       3.702   4.755  18.801  0.00  0.00    +0.000 N 
ATOM      2  C   UNL     1       4.674   5.841  18.714  0.00  0.00    +0.000 C 
ATOM      3  C   UNL     1       5.494   5.474  17.489  0.00  0.00    +0.000 A 
ATOM      4  C   UNL     1       4.914   4.366  16.873  0.00  0.00    +0.000 A 
ATOM      5  C   UNL     1       5.370   3.788  15.699  0.00  0.00    +0.000 A 
ATOM      6  C   UNL     1       6.508   4.327  15.124  0.00  0.00    +0.000 A 
ATOM      7  C   UNL     1       7.145   5.418  15.732  0.00  0.00    +0.000 A 
ATOM      8  C   UNL     1       6.647   6.017  16.923  0.00  0.00    +0.000 A 
ATOM      9  C   UNL     1       3.785   3.921  17.683  0.00  0.00    +0.000 C 
ATOM     10  O   UNL     1       3.104   2.959  17.352  0.00  0.00    +0.000 OA
ENDROOT
BRANCH   1  12
ATOM     11  C   UNL     1       1.763   5.121  20.545  0.00  0.00    +0.000 C 
ATOM     12  C   UNL     1       2.696   4.561  19.743  0.00  0.00    +0.000 C 
ATOM     13  C   UNL     1       2.433   3.320  20.472  0.00  0.00    +0.000 C 
ATOM     14  C   UNL     1       1.195   3.786  20.698  0.00  0.00    +0.000 C 
BRANCH  11  15
ATOM     15  C   UNL     1       1.096   6.393  21.038  0.00  0.00    +0.000 C 
BRANCH  15  16
ATOM     16  C   UNL     1       1.699   7.683  20.495  0.00  0.00    +0.000 C 
BRANCH  16  22
ATOM     17  C   UNL     1       0.674  10.226  19.067  0.00  0.00    +0.000 C 
ATOM     18  N   UNL     1       0.693  10.001  20.483  0.00  0.00    +0.000 N 
ATOM     19  C   UNL     1       0.272  10.870  21.440  0.00  0.00    +0.000 A 
ATOM     20  N   UNL     1       0.491  10.353  22.629  0.00  0.00    +0.000 NA
ATOM     21  N   UNL     1       1.055   9.120  22.443  0.00  0.00    +0.000 NA
ATOM     22  C   UNL     1       1.153   8.897  21.149  0.00  0.00    +0.000 A 
ENDBRANCH  16  22
ENDBRANCH  15  16
ENDBRANCH  11  15
ENDBRANCH   1  12
BRANCH   8  23
ATOM     23  C   UNL     1       7.426   7.170  17.493  0.00  0.00    +0.000 C 
ATOM     24  F   UNL     1       8.378   7.665  16.669  0.00  0.00    +0.000 F 
ATOM     25  F   UNL     1       6.617   8.226  17.800  0.00  0.00    +0.000 F 
ATOM     26  F   UNL     1       8.055   6.845  18.658  0.00  0.00    +0.000 F 
ENDBRANCH   8  23
TORSDOF 5
ENDMDL
MODEL 8
REMARK VINA RESULT:      -7.8      2.539      3.815
REMARK  Name = 
REMARK  6 active torsions:
REMARK  status: ('A' for Active; 'I' for Inactive)
REMARK    1  A    between atoms: C_1  and  N_2
REMARK    2  A    between atoms: C_6  and  C_7
REMARK    3  A    between atoms: C_7  and  C_8
REMARK    4  A    between atoms: C_8  and  C_9
REMARK    5  A    between atoms: C_10  and  N_11
REMARK    6  A    between atoms: C_18  and  C_19
REMARK                            x       y       z     vdW  Elec       q    Type
REMARK                         _______ _______ _______ _____ _____    ______ ____
ROOT
ATOM      1  N   UNL     1       2.555   6.658  19.394  0.00  0.00    +0.000 N 
ATOM      2  C   UNL     1       1.684   7.076  20.490  0.00  0.00    +0.000 C 
ATOM      3  C   UNL     1       1.326   8.505  20.121  0.00  0.00    +0.000 A 
ATOM      4  C   UNL     1       1.834   8.785  18.853  0.00  0.00    +0.000 A 
ATOM      5  C   UNL     1       1.653   9.982  18.179  0.00  0.00    +0.000 A 
ATOM      6  C   UNL     1       0.955  10.983  18.833  0.00  0.00    +0.000 A 
ATOM      7  C   UNL     1       0.462  10.756  20.125  0.00  0.00    +0.000 A 
ATOM      8  C   UNL     1       0.632   9.511  20.792  0.00  0.00    +0.000 A 
ATOM      9  C   UNL     1       2.591   7.627  18.389  0.00  0.00    +0.000 C 
ATOM     10  O   UNL     1       3.138   7.623  17.294  0.00  0.00    +0.000 OA
ENDROOT
BRANCH   1  12
ATOM     11  C   UNL     1       3.942   4.652  18.399  0.00  0.00    +0.000 C 
ATOM     12  C   UNL     1       3.193   5.435  19.208  0.00  0.00    +0.000 C 
ATOM     13  C   UNL     1       3.001   4.236  20.024  0.00  0.00    +0.000 C 
ATOM     14  C   UNL     1       4.185   3.805  19.561  0.00  0.00    +0.000 C 
BRANCH  11  15
ATOM     15  C   UNL     1       4.661   4.503  17.070  0.00  0.00    +0.000 C 
BRANCH  15  16
ATOM     16  C   UNL     1       6.181   4.457  17.168  0.00  0.00    +0.000 C 
BRANCH  16  22
ATOM     17  C   UNL     1       7.721   5.530  19.624  0.00  0.00    +0.000 C 
ATOM     18  N   UNL     1       7.483   6.238  18.400  0.00  0.00    +0.000 N 
ATOM     19  C   UNL     1       7.886   7.504  18.112  0.00  0.00    +0.000 A 
ATOM     20  N   UNL     1       7.443   7.846  16.923  0.00  0.00    +0.000 NA
ATOM     21  N   UNL     1       6.747   6.780  16.421  0.00  0.00    +0.000 NA
ATOM     22  C   UNL     1       6.793   5.800  17.301  0.00  0.00    +0.000 A 
ENDBRANCH  16  22
ENDBRANCH  15  16
ENDBRANCH  11  15
ENDBRANCH   1  12
BRANCH   8  23
ATOM     23  C   UNL     1       0.074   9.392  22.184  0.00  0.00    +0.000 C 
ATOM     24  F   UNL     1      -0.813   8.384  22.349  0.00  0.00    +0.000 F 
ATOM     25  F   UNL     1       1.056   9.176  23.107  0.00  0.00    +0.000 F 
ATOM     26  F   UNL     1      -0.557  10.531  22.587  0.00  0.00    +0.000 F 
ENDBRANCH   8  23
TORSDOF 5
ENDMDL
MODEL 9
REMARK VINA RESULT:      -7.8      3.612      4.812
REMARK  Name = 
REMARK  6 active torsions:
REMARK  status: ('A' for Active; 'I' for Inactive)
REMARK    1  A    between atoms: C_1  and  N_2
REMARK    2  A    between atoms: C_6  and  C_7
REMARK    3  A    between atoms: C_7  and  C_8
REMARK    4  A    between atoms: C_8  and  C_9
REMARK    5  A    between atoms: C_10  and  N_11
REMARK    6  A    between atoms: C_18  and  C_19
REMARK                            x       y       z     vdW  Elec       q    Type
REMARK                         _______ _______ _______ _____ _____    ______ ____
ROOT
ATOM      1  N   UNL     1       2.851   6.590  18.689  0.00  0.00    +0.000 N 
ATOM      2  C   UNL     1       1.973   6.880  19.819  0.00  0.00    +0.000 C 
ATOM      3  C   UNL     1       1.619   8.343  19.614  0.00  0.00    +0.000 A 
ATOM      4  C   UNL     1       2.136   8.766  18.390  0.00  0.00    +0.000 A 
ATOM      5  C   UNL     1       1.960  10.032  17.856  0.00  0.00    +0.000 A 
ATOM      6  C   UNL     1       1.259  10.953  18.616  0.00  0.00    +0.000 A 
ATOM      7  C   UNL     1       0.756  10.580  19.870  0.00  0.00    +0.000 A 
ATOM      8  C   UNL     1       0.920   9.266  20.391  0.00  0.00    +0.000 A 
ATOM      9  C   UNL     1       2.895   7.668  17.802  0.00  0.00    +0.000 C 
ATOM     10  O   UNL     1       3.450   7.788  16.717  0.00  0.00    +0.000 OA
ENDROOT
BRANCH   1  12
ATOM     11  C   UNL     1       4.511   4.786  17.725  0.00  0.00    +0.000 C 
ATOM     12  C   UNL     1       3.489   5.395  18.368  0.00  0.00    +0.000 C 
ATOM     13  C   UNL     1       2.937   4.052  18.553  0.00  0.00    +0.000 C 
ATOM     14  C   UNL     1       4.197   3.593  18.505  0.00  0.00    +0.000 C 
BRANCH  11  15
ATOM     15  C   UNL     1       5.747   4.936  16.857  0.00  0.00    +0.000 C 
BRANCH  15  16
ATOM     16  C   UNL     1       5.725   4.122  15.569  0.00  0.00    +0.000 C 
BRANCH  16  22
ATOM     17  C   UNL     1       5.774   3.352  12.575  0.00  0.00    +0.000 C 
ATOM     18  N   UNL     1       6.656   4.278  13.225  0.00  0.00    +0.000 N 
ATOM     19  C   UNL     1       7.670   4.968  12.638  0.00  0.00    +0.000 A 
ATOM     20  N   UNL     1       8.302   5.677  13.547  0.00  0.00    +0.000 NA
ATOM     21  N   UNL     1       7.682   5.453  14.747  0.00  0.00    +0.000 NA
ATOM     22  C   UNL     1       6.673   4.629  14.548  0.00  0.00    +0.000 A 
ENDBRANCH  16  22
ENDBRANCH  15  16
ENDBRANCH  11  15
ENDBRANCH   1  12
BRANCH   8  23
ATOM     23  C   UNL     1       0.352   8.990  21.756  0.00  0.00    +0.000 C 
ATOM     24  F   UNL     1      -0.275  10.044  22.327  0.00  0.00    +0.000 F 
ATOM     25  F   UNL     1      -0.568   7.982  21.728  0.00  0.00    +0.000 F 
ATOM     26  F   UNL     1       1.307   8.584  22.641  0.00  0.00    +0.000 F 
ENDBRANCH   8  23
TORSDOF 5
ENDMDL
