MODEL 1
REMARK VINA RESULT:      -7.9      0.000      0.000
REMARK  Name = 
REMARK  5 active torsions:
REMARK  status: ('A' for Active; 'I' for Inactive)
REMARK    1  A    between atoms: C_1  and  C_2
REMARK    2  A    between atoms: C_2  and  C_3
REMARK    3  A    between atoms: N_14  and  C_15
REMARK    4  A    between atoms: C_15  and  C_16
REMARK    5  A    between atoms: C_24  and  C_25
REMARK                            x       y       z     vdW  Elec       q    Type
REMARK                         _______ _______ _______ _____ _____    ______ ____
ROOT
ATOM      1  C   UNL     1       1.390  12.100  19.703  0.00  0.00    +0.000 C 
ATOM      2  C   UNL     1       0.791  10.720  19.468  0.00  0.00    +0.000 C 
ATOM      3  N   UNL     1       0.891   9.893  20.652  0.00  0.00    +0.000 N 
ATOM      4  C   UNL     1       1.227   8.593  20.330  0.00  0.00    +0.000 C 
ATOM      5  O   UNL     1       1.119   7.659  21.107  0.00  0.00    +0.000 OA
ATOM      6  N   UNL     1       1.634   8.566  19.033  0.00  0.00    +0.000 N 
ATOM      7  C   UNL     1       1.628   9.833  18.515  0.00  0.00    +0.000 C 
ATOM      8  O   UNL     1       2.068  10.168  17.425  0.00  0.00    +0.000 OA
ATOM      9  H   UNL     1       0.446  10.091  21.538  0.00  0.00    +0.000 HD
ENDROOT
BRANCH   2  10
ATOM     10  C   UNL     1      -0.641  10.793  18.906  0.00  0.00    +0.000 A 
ATOM     11  C   UNL     1      -1.569  11.700  19.466  0.00  0.00    +0.000 A 
ATOM     12  C   UNL     1      -2.853  11.849  18.934  0.00  0.00    +0.000 A 
ATOM     13  C   UNL     1      -3.231  11.093  17.834  0.00  0.00    +0.000 A 
ATOM     14  F   UNL     1      -4.459  11.244  17.319  0.00  0.00    +0.000 F 
ATOM     15  C   UNL     1      -2.338  10.195  17.267  0.00  0.00    +0.000 A 
ATOM     16  F   UNL     1      -2.697   9.473  16.197  0.00  0.00    +0.000 F 
ATOM     17  C   UNL     1      -1.055  10.041  17.790  0.00  0.00    +0.000 A 
ENDBRANCH   2  10
BRANCH   6  18
ATOM     18  C   UNL     1       1.729   7.382  18.221  0.00  0.00    +0.000 C 
BRANCH  18  19
ATOM     19  C   UNL     1       3.116   6.846  18.148  0.00  0.00    +0.000 A 
ATOM     20  C   UNL     1       4.129   7.314  17.327  0.00  0.00    +0.000 A 
ATOM     21  N   UNL     1       5.305   6.690  17.666  0.00  0.00    +0.000 N 
ATOM     22  C   UNL     1       6.571   6.909  17.130  0.00  0.00    +0.000 A 
ATOM     23  C   UNL     1       7.624   6.241  17.634  0.00  0.00    +0.000 A 
ATOM     24  C   UNL     1       7.400   5.312  18.732  0.00  0.00    +0.000 A 
ATOM     25  C   UNL     1       6.171   5.090  19.237  0.00  0.00    +0.000 A 
ATOM     26  C   UNL     1       5.051   5.794  18.697  0.00  0.00    +0.000 A 
ATOM     27  C   UNL     1       3.699   5.840  18.978  0.00  0.00    +0.000 A 
BRANCH  27  28
ATOM     28  C   UNL     1       3.043   5.063  19.990  0.00  0.00    +0.000 C 
ATOM     29  N   UNL     1       2.503   4.452  20.814  0.00  0.00    +0.000 NA
ENDBRANCH  27  28
ENDBRANCH  18  19
ENDBRANCH   6  18
TORSDOF 4
ENDMDL
MODEL 2
REMARK VINA RESULT:      -7.7      0.506      1.264
REMARK  Name = 
REMARK  5 active torsions:
REMARK  status: ('A' for Active; 'I' for Inactive)
REMARK    1  A    between atoms: C_1  and  C_2
REMARK    2  A    between atoms: C_2  and  C_3
REMARK    3  A    between atoms: N_14  and  C_15
REMARK    4  A    between atoms: C_15  and  C_16
REMARK    5  A    between atoms: C_24  and  C_25
REMARK                            x       y       z     vdW  Elec       q    Type
REMARK                         _______ _______ _______ _____ _____    ______ ____
ROOT
ATOM      1  C   UNL     1       1.388  12.151  19.643  0.00  0.00    +0.000 C 
ATOM      2  C   UNL     1       0.778  10.773  19.425  0.00  0.00    +0.000 C 
ATOM      3  N   UNL     1       0.868   9.961  20.620  0.00  0.00    +0.000 N 
ATOM      4  C   UNL     1       1.193   8.654  20.315  0.00  0.00    +0.000 C 
ATOM      5  O   UNL     1       1.076   7.731  21.104  0.00  0.00    +0.000 OA
ATOM      6  N   UNL     1       1.603   8.606  19.020  0.00  0.00    +0.000 N 
ATOM      7  C   UNL     1       1.609   9.867  18.485  0.00  0.00    +0.000 C 
ATOM      8  O   UNL     1       2.054  10.182  17.391  0.00  0.00    +0.000 OA
ATOM      9  H   UNL     1       0.423  10.175  21.502  0.00  0.00    +0.000 HD
ENDROOT
BRANCH   2  10
ATOM     10  C   UNL     1      -0.653  10.851  18.859  0.00  0.00    +0.000 A 
ATOM     11  C   UNL     1      -1.038   9.992  17.806  0.00  0.00    +0.000 A 
ATOM     12  C   UNL     1      -2.349   9.982  17.318  0.00  0.00    +0.000 A 
ATOM     13  C   UNL     1      -3.294  10.831  17.875  0.00  0.00    +0.000 A 
ATOM     14  F   UNL     1      -4.552  10.813  17.413  0.00  0.00    +0.000 F 
ATOM     15  C   UNL     1      -2.939  11.685  18.909  0.00  0.00    +0.000 A 
ATOM     16  F   UNL     1      -3.853  12.498  19.456  0.00  0.00    +0.000 F 
ATOM     17  C   UNL     1      -1.634  11.702  19.403  0.00  0.00    +0.000 A 
ENDBRANCH   2  10
BRANCH   6  18
ATOM     18  C   UNL     1       1.690   7.410  18.223  0.00  0.00    +0.000 C 
BRANCH  18  19
ATOM     19  C   UNL     1       3.073   6.866  18.154  0.00  0.00    +0.000 A 
ATOM     20  C   UNL     1       4.086   7.315  17.324  0.00  0.00    +0.000 A 
ATOM     21  N   UNL     1       5.259   6.691  17.668  0.00  0.00    +0.000 N 
ATOM     22  C   UNL     1       6.525   6.894  17.126  0.00  0.00    +0.000 A 
ATOM     23  C   UNL     1       7.576   6.228  17.637  0.00  0.00    +0.000 A 
ATOM     24  C   UNL     1       7.351   5.317  18.749  0.00  0.00    +0.000 A 
ATOM     25  C   UNL     1       6.121   5.109  19.261  0.00  0.00    +0.000 A 
ATOM     26  C   UNL     1       5.004   5.811  18.713  0.00  0.00    +0.000 A 
ATOM     27  C   UNL     1       3.653   5.870  18.998  0.00  0.00    +0.000 A 
BRANCH  27  28
ATOM     28  C   UNL     1       2.995   5.111  20.023  0.00  0.00    +0.000 C 
ATOM     29  N   UNL     1       2.447   4.510  20.848  0.00  0.00    +0.000 NA
ENDBRANCH  27  28
ENDBRANCH  18  19
ENDBRANCH   6  18
TORSDOF 4
ENDMDL
MODEL 3
REMARK VINA RESULT:      -7.3      5.449      7.906
REMARK  Name = 
REMARK  5 active torsions:
REMARK  status: ('A' for Active; 'I' for Inactive)
REMARK    1  A    between atoms: C_1  and  C_2
REMARK    2  A    between atoms: C_2  and  C_3
REMARK    3  A    between atoms: N_14  and  C_15
REMARK    4  A    between atoms: C_15  and  C_16
REMARK    5  A    between atoms: C_24  and  C_25
REMARK                            x       y       z     vdW  Elec       q    Type
REMARK                         _______ _______ _______ _____ _____    ______ ____
ROOT
ATOM      1  C   UNL     1      -1.944  10.331  16.735  0.00  0.00    +0.000 C 
ATOM      2  C   UNL     1      -1.913  11.350  17.866  0.00  0.00    +0.000 C 
ATOM      3  N   UNL     1      -1.343  12.607  17.428  0.00  0.00    +0.000 N 
ATOM      4  C   UNL     1      -0.518  13.147  18.393  0.00  0.00    +0.000 C 
ATOM      5  O   UNL     1      -0.131  14.304  18.376  0.00  0.00    +0.000 OA
ATOM      6  N   UNL     1      -0.278  12.194  19.333  0.00  0.00    +0.000 N 
ATOM      7  C   UNL     1      -0.882  11.020  18.972  0.00  0.00    +0.000 C 
ATOM      8  O   UNL     1      -0.746   9.940  19.528  0.00  0.00    +0.000 OA
ATOM      9  H   UNL     1      -1.734  13.203  16.710  0.00  0.00    +0.000 HD
ENDROOT
BRANCH   2  10
ATOM     10  C   UNL     1      -3.289  11.516  18.539  0.00  0.00    +0.000 A 
ATOM     11  C   UNL     1      -3.456  12.472  19.566  0.00  0.00    +0.000 A 
ATOM     12  C   UNL     1      -4.706  12.705  20.148  0.00  0.00    +0.000 A 
ATOM     13  C   UNL     1      -5.809  11.985  19.711  0.00  0.00    +0.000 A 
ATOM     14  F   UNL     1      -7.008  12.215  20.263  0.00  0.00    +0.000 F 
ATOM     15  C   UNL     1      -5.670  11.040  18.705  0.00  0.00    +0.000 A 
ATOM     16  F   UNL     1      -6.736  10.352  18.274  0.00  0.00    +0.000 F 
ATOM     17  C   UNL     1      -4.427  10.802  18.118  0.00  0.00    +0.000 A 
ENDBRANCH   2  10
BRANCH   6  18
ATOM     18  C   UNL     1       0.230  12.447  20.656  0.00  0.00    +0.000 C 
BRANCH  18  19
ATOM     19  C   UNL     1      -0.843  12.797  21.625  0.00  0.00    +0.000 A 
ATOM     20  C   UNL     1      -1.550  13.987  21.665  0.00  0.00    +0.000 A 
ATOM     21  N   UNL     1      -2.570  13.873  22.577  0.00  0.00    +0.000 N 
ATOM     22  C   UNL     1      -3.550  14.813  22.884  0.00  0.00    +0.000 A 
ATOM     23  C   UNL     1      -4.512  14.498  23.769  0.00  0.00    +0.000 A 
ATOM     24  C   UNL     1      -4.498  13.174  24.373  0.00  0.00    +0.000 A 
ATOM     25  C   UNL     1      -3.539  12.272  24.087  0.00  0.00    +0.000 A 
ATOM     26  C   UNL     1      -2.513  12.609  23.152  0.00  0.00    +0.000 A 
ATOM     27  C   UNL     1      -1.427  11.945  22.613  0.00  0.00    +0.000 A 
BRANCH  27  28
ATOM     28  C   UNL     1      -1.032  10.607  22.948  0.00  0.00    +0.000 C 
ATOM     29  N   UNL     1      -0.730   9.519  23.207  0.00  0.00    +0.000 NA
ENDBRANCH  27  28
ENDBRANCH  18  19
ENDBRANCH   6  18
TORSDOF 4
ENDMDL
MODEL 4
REMARK VINA RESULT:      -7.3      2.901      4.617
REMARK  Name = 
REMARK  5 active torsions:
REMARK  status: ('A' for Active; 'I' for Inactive)
REMARK    1  A    between atoms: C_1  and  C_2
REMARK    2  A    between atoms: C_2  and  C_3
REMARK    3  A    between atoms: N_14  and  C_15
REMARK    4  A    between atoms: C_15  and  C_16
REMARK    5  A    between atoms: C_24  and  C_25
REMARK                            x       y       z     vdW  Elec       q    Type
REMARK                         _______ _______ _______ _____ _____    ______ ____
ROOT
ATOM      1  C   UNL     1      -1.761  10.720  18.995  0.00  0.00    +0.000 C 
ATOM      2  C   UNL     1      -0.251  10.590  19.144  0.00  0.00    +0.000 C 
ATOM      3  N   UNL     1       0.377  10.261  17.882  0.00  0.00    +0.000 N 
ATOM      4  C   UNL     1       1.386   9.333  18.050  0.00  0.00    +0.000 C 
ATOM      5  O   UNL     1       2.225   9.091  17.198  0.00  0.00    +0.000 OA
ATOM      6  N   UNL     1       1.283   8.812  19.301  0.00  0.00    +0.000 N 
ATOM      7  C   UNL     1       0.190   9.337  19.938  0.00  0.00    +0.000 C 
ATOM      8  O   UNL     1      -0.257   8.976  21.016  0.00  0.00    +0.000 OA
ATOM      9  H   UNL     1       0.366  10.846  17.057  0.00  0.00    +0.000 HD
ENDROOT
BRANCH   2  10
ATOM     10  C   UNL     1       0.377  11.822  19.824  0.00  0.00    +0.000 A 
ATOM     11  C   UNL     1      -0.280  12.430  20.917  0.00  0.00    +0.000 A 
ATOM     12  C   UNL     1       0.296  13.502  21.606  0.00  0.00    +0.000 A 
ATOM     13  C   UNL     1       1.536  13.983  21.213  0.00  0.00    +0.000 A 
ATOM     14  F   UNL     1       2.091  15.004  21.880  0.00  0.00    +0.000 F 
ATOM     15  C   UNL     1       2.200  13.403  20.141  0.00  0.00    +0.000 A 
ATOM     16  F   UNL     1       3.403  13.859  19.767  0.00  0.00    +0.000 F 
ATOM     17  C   UNL     1       1.634  12.333  19.448  0.00  0.00    +0.000 A 
ENDBRANCH   2  10
BRANCH   6  18
ATOM     18  C   UNL     1       2.325   8.093  19.986  0.00  0.00    +0.000 C 
BRANCH  18  19
ATOM     19  C   UNL     1       2.293   6.631  19.705  0.00  0.00    +0.000 A 
ATOM     20  C   UNL     1       1.459   5.703  20.305  0.00  0.00    +0.000 A 
ATOM     21  N   UNL     1       1.597   4.496  19.666  0.00  0.00    +0.000 N 
ATOM     22  C   UNL     1       0.904   3.314  19.914  0.00  0.00    +0.000 A 
ATOM     23  C   UNL     1       1.133   2.240  19.139  0.00  0.00    +0.000 A 
ATOM     24  C   UNL     1       2.102   2.353  18.059  0.00  0.00    +0.000 A 
ATOM     25  C   UNL     1       2.785   3.493  17.832  0.00  0.00    +0.000 A 
ATOM     26  C   UNL     1       2.546   4.632  18.660  0.00  0.00    +0.000 A 
ATOM     27  C   UNL     1       3.021   5.929  18.696  0.00  0.00    +0.000 A 
BRANCH  27  28
ATOM     28  C   UNL     1       4.012   6.467  17.809  0.00  0.00    +0.000 C 
ATOM     29  N   UNL     1       4.826   6.887  17.099  0.00  0.00    +0.000 NA
ENDBRANCH  27  28
ENDBRANCH  18  19
ENDBRANCH   6  18
TORSDOF 4
ENDMDL
MODEL 5
REMARK VINA RESULT:      -7.3      2.847      4.714
REMARK  Name = 
REMARK  5 active torsions:
REMARK  status: ('A' for Active; 'I' for Inactive)
REMARK    1  A    between atoms: C_1  and  C_2
REMARK    2  A    between atoms: C_2  and  C_3
REMARK    3  A    between atoms: N_14  and  C_15
REMARK    4  A    between atoms: C_15  and  C_16
REMARK    5  A    between atoms: C_24  and  C_25
REMARK                            x       y       z     vdW  Elec       q    Type
REMARK                         _______ _______ _______ _____ _____    ______ ____
ROOT
ATOM      1  C   UNL     1      -1.557  10.859  19.036  0.00  0.00    +0.000 C 
ATOM      2  C   UNL     1      -0.053  10.645  19.139  0.00  0.00    +0.000 C 
ATOM      3  N   UNL     1       0.509  10.229  17.872  0.00  0.00    +0.000 N 
ATOM      4  C   UNL     1       1.468   9.251  18.045  0.00  0.00    +0.000 C 
ATOM      5  O   UNL     1       2.260   8.925  17.177  0.00  0.00    +0.000 OA
ATOM      6  N   UNL     1       1.379   8.787  19.320  0.00  0.00    +0.000 N 
ATOM      7  C   UNL     1       0.342   9.400  19.970  0.00  0.00    +0.000 C 
ATOM      8  O   UNL     1      -0.087   9.110  21.077  0.00  0.00    +0.000 OA
ATOM      9  H   UNL     1       0.502  10.781  17.024  0.00  0.00    +0.000 HD
ENDROOT
BRANCH   2  10
ATOM     10  C   UNL     1       0.668  11.864  19.745  0.00  0.00    +0.000 A 
ATOM     11  C   UNL     1       1.791  12.413  19.086  0.00  0.00    +0.000 A 
ATOM     12  C   UNL     1       2.425  13.564  19.565  0.00  0.00    +0.000 A 
ATOM     13  C   UNL     1       1.946  14.183  20.711  0.00  0.00    +0.000 A 
ATOM     14  F   UNL     1       2.549  15.291  21.163  0.00  0.00    +0.000 F 
ATOM     15  C   UNL     1       0.847  13.662  21.377  0.00  0.00    +0.000 A 
ATOM     16  F   UNL     1       0.376  14.265  22.477  0.00  0.00    +0.000 F 
ATOM     17  C   UNL     1       0.207  12.515  20.906  0.00  0.00    +0.000 A 
ENDBRANCH   2  10
BRANCH   6  18
ATOM     18  C   UNL     1       2.402   8.035  19.999  0.00  0.00    +0.000 C 
BRANCH  18  19
ATOM     19  C   UNL     1       2.343   6.580  19.692  0.00  0.00    +0.000 A 
ATOM     20  C   UNL     1       1.473   5.662  20.256  0.00  0.00    +0.000 A 
ATOM     21  N   UNL     1       1.599   4.462  19.600  0.00  0.00    +0.000 N 
ATOM     22  C   UNL     1       0.872   3.293  19.810  0.00  0.00    +0.000 A 
ATOM     23  C   UNL     1       1.095   2.227  19.023  0.00  0.00    +0.000 A 
ATOM     24  C   UNL     1       2.093   2.335  17.968  0.00  0.00    +0.000 A 
ATOM     25  C   UNL     1       2.807   3.462  17.777  0.00  0.00    +0.000 A 
ATOM     26  C   UNL     1       2.574   4.593  18.619  0.00  0.00    +0.000 A 
ATOM     27  C   UNL     1       3.079   5.877  18.689  0.00  0.00    +0.000 A 
BRANCH  27  28
ATOM     28  C   UNL     1       4.103   6.406  17.835  0.00  0.00    +0.000 C 
ATOM     29  N   UNL     1       4.943   6.834  17.161  0.00  0.00    +0.000 NA
ENDBRANCH  27  28
ENDBRANCH  18  19
ENDBRANCH   6  18
TORSDOF 4
ENDMDL
MODEL 6
REMARK VINA RESULT:      -7.0      1.248      1.280
REMARK  Name = 
REMARK  5 active torsions:
REMARK  status: ('A' for Active; 'I' for Inactive)
REMARK    1  A    between atoms: C_1  and  C_2
REMARK    2  A    between atoms: C_2  and  C_3
REMARK    3  A    between atoms: N_14  and  C_15
REMARK    4  A    between atoms: C_15  and  C_16
REMARK    5  A    between atoms: C_24  and  C_25
REMARK                            x       y       z     vdW  Elec       q    Type
REMARK                         _______ _______ _______ _____ _____    ______ ____
ROOT
ATOM      1  C   UNL     1       1.602  12.064  18.604  0.00  0.00    +0.000 C 
ATOM      2  C   UNL     1       0.923  10.758  18.994  0.00  0.00    +0.000 C 
ATOM      3  N   UNL     1       1.148  10.442  20.389  0.00  0.00    +0.000 N 
ATOM      4  C   UNL     1       1.386   9.094  20.566  0.00  0.00    +0.000 C 
ATOM      5  O   UNL     1       1.347   8.542  21.653  0.00  0.00    +0.000 OA
ATOM      6  N   UNL     1       1.615   8.536  19.347  0.00  0.00    +0.000 N 
ATOM      7  C   UNL     1       1.589   9.504  18.379  0.00  0.00    +0.000 C 
ATOM      8  O   UNL     1       1.891   9.355  17.204  0.00  0.00    +0.000 OA
ATOM      9  H   UNL     1       0.834  11.003  21.169  0.00  0.00    +0.000 HD
ENDROOT
BRANCH   2  10
ATOM     10  C   UNL     1      -0.568  10.737  18.606  0.00  0.00    +0.000 A 
ATOM     11  C   UNL     1      -1.480  11.576  19.286  0.00  0.00    +0.000 A 
ATOM     12  C   UNL     1      -2.826  11.640  18.912  0.00  0.00    +0.000 A 
ATOM     13  C   UNL     1      -3.281  10.867  17.853  0.00  0.00    +0.000 A 
ATOM     14  F   UNL     1      -4.569  10.937  17.490  0.00  0.00    +0.000 F 
ATOM     15  C   UNL     1      -2.404  10.035  17.171  0.00  0.00    +0.000 A 
ATOM     16  F   UNL     1      -2.839   9.297  16.141  0.00  0.00    +0.000 F 
ATOM     17  C   UNL     1      -1.060   9.965  17.537  0.00  0.00    +0.000 A 
ENDBRANCH   2  10
BRANCH   6  18
ATOM     18  C   UNL     1       1.553   7.128  19.057  0.00  0.00    +0.000 C 
BRANCH  18  19
ATOM     19  C   UNL     1       2.755   6.639  18.327  0.00  0.00    +0.000 A 
ATOM     20  C   UNL     1       3.933   7.341  18.135  0.00  0.00    +0.000 A 
ATOM     21  N   UNL     1       4.867   6.504  17.574  0.00  0.00    +0.000 N 
ATOM     22  C   UNL     1       6.195   6.789  17.271  0.00  0.00    +0.000 A 
ATOM     23  C   UNL     1       6.982   5.817  16.777  0.00  0.00    +0.000 A 
ATOM     24  C   UNL     1       6.414   4.491  16.583  0.00  0.00    +0.000 A 
ATOM     25  C   UNL     1       5.123   4.222  16.861  0.00  0.00    +0.000 A 
ATOM     26  C   UNL     1       4.285   5.257  17.379  0.00  0.00    +0.000 A 
ATOM     27  C   UNL     1       2.969   5.331  17.794  0.00  0.00    +0.000 A 
BRANCH  27  28
ATOM     28  C   UNL     1       2.033   4.245  17.758  0.00  0.00    +0.000 C 
ATOM     29  N   UNL     1       1.268   3.376  17.713  0.00  0.00    +0.000 NA
ENDBRANCH  27  28
ENDBRANCH  18  19
ENDBRANCH   6  18
TORSDOF 4
ENDMDL
MODEL 7
REMARK VINA RESULT:      -7.0      4.379      8.250
REMARK  Name = 
REMARK  5 active torsions:
REMARK  status: ('A' for Active; 'I' for Inactive)
REMARK    1  A    between atoms: C_1  and  C_2
REMARK    2  A    between atoms: C_2  and  C_3
REMARK    3  A    between atoms: N_14  and  C_15
REMARK    4  A    between atoms: C_15  and  C_16
REMARK    5  A    between atoms: C_24  and  C_25
REMARK                            x       y       z     vdW  Elec       q    Type
REMARK                         _______ _______ _______ _____ _____    ______ ____
ROOT
ATOM      1  C   UNL     1       1.475   9.363  18.103  0.00  0.00    +0.000 C 
ATOM      2  C   UNL     1       0.529  10.341  18.785  0.00  0.00    +0.000 C 
ATOM      3  N   UNL     1      -0.729  10.441  18.075  0.00  0.00    +0.000 N 
ATOM      4  C   UNL     1      -1.177  11.746  18.028  0.00  0.00    +0.000 C 
ATOM      5  O   UNL     1      -2.316  12.055  17.721  0.00  0.00    +0.000 OA
ATOM      6  N   UNL     1      -0.160  12.561  18.414  0.00  0.00    +0.000 N 
ATOM      7  C   UNL     1       0.966  11.820  18.658  0.00  0.00    +0.000 C 
ATOM      8  O   UNL     1       2.082  12.261  18.888  0.00  0.00    +0.000 OA
ATOM      9  H   UNL     1      -1.382   9.681  17.942  0.00  0.00    +0.000 HD
ENDROOT
BRANCH   2  10
ATOM     10  C   UNL     1       0.349  10.030  20.283  0.00  0.00    +0.000 A 
ATOM     11  C   UNL     1       1.289   9.209  20.947  0.00  0.00    +0.000 A 
ATOM     12  C   UNL     1       1.201   8.967  22.321  0.00  0.00    +0.000 A 
ATOM     13  C   UNL     1       0.172   9.542  23.054  0.00  0.00    +0.000 A 
ATOM     14  F   UNL     1       0.095   9.316  24.372  0.00  0.00    +0.000 F 
ATOM     15  C   UNL     1      -0.763  10.351  22.425  0.00  0.00    +0.000 A 
ATOM     16  F   UNL     1      -1.750  10.916  23.132  0.00  0.00    +0.000 F 
ATOM     17  C   UNL     1      -0.683  10.599  21.054  0.00  0.00    +0.000 A 
ENDBRANCH   2  10
BRANCH   6  18
ATOM     18  C   UNL     1      -0.310  13.929  18.836  0.00  0.00    +0.000 C 
BRANCH  18  19
ATOM     19  C   UNL     1      -0.996  14.051  20.151  0.00  0.00    +0.000 A 
ATOM     20  C   UNL     1      -2.357  13.932  20.376  0.00  0.00    +0.000 A 
ATOM     21  N   UNL     1      -2.590  13.930  21.730  0.00  0.00    +0.000 N 
ATOM     22  C   UNL     1      -3.808  13.773  22.386  0.00  0.00    +0.000 A 
ATOM     23  C   UNL     1      -3.833  13.737  23.730  0.00  0.00    +0.000 A 
ATOM     24  C   UNL     1      -2.576  13.858  24.454  0.00  0.00    +0.000 A 
ATOM     25  C   UNL     1      -1.401  14.027  23.817  0.00  0.00    +0.000 A 
ATOM     26  C   UNL     1      -1.376  14.073  22.390  0.00  0.00    +0.000 A 
ATOM     27  C   UNL     1      -0.384  14.196  21.435  0.00  0.00    +0.000 A 
BRANCH  27  28
ATOM     28  C   UNL     1       1.013  14.355  21.716  0.00  0.00    +0.000 C 
ATOM     29  N   UNL     1       2.147  14.475  21.925  0.00  0.00    +0.000 NA
ENDBRANCH  27  28
ENDBRANCH  18  19
ENDBRANCH   6  18
TORSDOF 4
ENDMDL
MODEL 8
REMARK VINA RESULT:      -7.0      4.154      8.190
REMARK  Name = 
REMARK  5 active torsions:
REMARK  status: ('A' for Active; 'I' for Inactive)
REMARK    1  A    between atoms: C_1  and  C_2
REMARK    2  A    between atoms: C_2  and  C_3
REMARK    3  A    between atoms: N_14  and  C_15
REMARK    4  A    between atoms: C_15  and  C_16
REMARK    5  A    between atoms: C_24  and  C_25
REMARK                            x       y       z     vdW  Elec       q    Type
REMARK                         _______ _______ _______ _____ _____    ______ ____
ROOT
ATOM      1  C   UNL     1       7.854   4.400  17.873  0.00  0.00    +0.000 C 
ATOM      2  C   UNL     1       6.726   5.090  17.118  0.00  0.00    +0.000 C 
ATOM      3  N   UNL     1       6.770   6.525  17.300  0.00  0.00    +0.000 N 
ATOM      4  C   UNL     1       5.503   7.050  17.462  0.00  0.00    +0.000 C 
ATOM      5  O   UNL     1       5.253   8.240  17.373  0.00  0.00    +0.000 OA
ATOM      6  N   UNL     1       4.641   6.023  17.683  0.00  0.00    +0.000 N 
ATOM      7  C   UNL     1       5.326   4.838  17.727  0.00  0.00    +0.000 C 
ATOM      8  O   UNL     1       4.865   3.751  18.043  0.00  0.00    +0.000 OA
ATOM      9  H   UNL     1       7.528   7.125  17.002  0.00  0.00    +0.000 HD
ENDROOT
BRANCH   2  10
ATOM     10  C   UNL     1       6.676   4.673  15.635  0.00  0.00    +0.000 A 
ATOM     11  C   UNL     1       5.702   3.747  15.199  0.00  0.00    +0.000 A 
ATOM     12  C   UNL     1       5.578   3.403  13.850  0.00  0.00    +0.000 A 
ATOM     13  C   UNL     1       6.425   3.981  12.915  0.00  0.00    +0.000 A 
ATOM     14  F   UNL     1       6.298   3.657  11.621  0.00  0.00    +0.000 F 
ATOM     15  C   UNL     1       7.390   4.892  13.318  0.00  0.00    +0.000 A 
ATOM     16  F   UNL     1       8.202   5.459  12.416  0.00  0.00    +0.000 F 
ATOM     17  C   UNL     1       7.521   5.241  14.663  0.00  0.00    +0.000 A 
ENDBRANCH   2  10
BRANCH   6  18
ATOM     18  C   UNL     1       3.209   6.102  17.551  0.00  0.00    +0.000 C 
BRANCH  18  19
ATOM     19  C   UNL     1       2.594   7.037  18.532  0.00  0.00    +0.000 A 
ATOM     20  C   UNL     1       2.224   8.349  18.288  0.00  0.00    +0.000 A 
ATOM     21  N   UNL     1       1.535   8.830  19.373  0.00  0.00    +0.000 N 
ATOM     22  C   UNL     1       0.938  10.080  19.520  0.00  0.00    +0.000 A 
ATOM     23  C   UNL     1       0.248  10.354  20.641  0.00  0.00    +0.000 A 
ATOM     24  C   UNL     1       0.146   9.325  21.667  0.00  0.00    +0.000 A 
ATOM     25  C   UNL     1       0.740   8.123  21.530  0.00  0.00    +0.000 A 
ATOM     26  C   UNL     1       1.478   7.835  20.341  0.00  0.00    +0.000 A 
ATOM     27  C   UNL     1       2.165   6.736  19.862  0.00  0.00    +0.000 A 
BRANCH  27  28
ATOM     28  C   UNL     1       2.329   5.497  20.566  0.00  0.00    +0.000 C 
ATOM     29  N   UNL     1       2.451   4.486  21.120  0.00  0.00    +0.000 NA
ENDBRANCH  27  28
ENDBRANCH  18  19
ENDBRANCH   6  18
TORSDOF 4
ENDMDL
MODEL 9
REMARK VINA RESULT:      -6.9      1.285      1.738
REMARK  Name = 
REMARK  5 active torsions:
REMARK  status: ('A' for Active; 'I' for Inactive)
REMARK    1  A    between atoms: C_1  and  C_2
REMARK    2  A    between atoms: C_2  and  C_3
REMARK    3  A    between atoms: N_14  and  C_15
REMARK    4  A    between atoms: C_15  and  C_16
REMARK    5  A    between atoms: C_24  and  C_25
REMARK                            x       y       z     vdW  Elec       q    Type
REMARK                         _______ _______ _______ _____ _____    ______ ____
ROOT
ATOM      1  C   UNL     1       1.678  12.090  18.731  0.00  0.00    +0.000 C 
ATOM      2  C   UNL     1       0.967  10.772  19.006  0.00  0.00    +0.000 C 
ATOM      3  N   UNL     1       1.151  10.350  20.379  0.00  0.00    +0.000 N 
ATOM      4  C   UNL     1       1.362   8.988  20.461  0.00  0.00    +0.000 C 
ATOM      5  O   UNL     1       1.286   8.359  21.504  0.00  0.00    +0.000 OA
ATOM      6  N   UNL     1       1.612   8.518  19.211  0.00  0.00    +0.000 N 
ATOM      7  C   UNL     1       1.627   9.554  18.316  0.00  0.00    +0.000 C 
ATOM      8  O   UNL     1       1.957   9.486  17.141  0.00  0.00    +0.000 OA
ATOM      9  H   UNL     1       0.827  10.858  21.191  0.00  0.00    +0.000 HD
ENDROOT
BRANCH   2  10
ATOM     10  C   UNL     1      -0.514  10.808  18.583  0.00  0.00    +0.000 A 
ATOM     11  C   UNL     1      -0.987   9.897  17.611  0.00  0.00    +0.000 A 
ATOM     12  C   UNL     1      -2.339   9.849  17.257  0.00  0.00    +0.000 A 
ATOM     13  C   UNL     1      -3.239  10.711  17.869  0.00  0.00    +0.000 A 
ATOM     14  F   UNL     1      -4.535  10.657  17.536  0.00  0.00    +0.000 F 
ATOM     15  C   UNL     1      -2.797  11.615  18.825  0.00  0.00    +0.000 A 
ATOM     16  F   UNL     1      -3.666  12.440  19.425  0.00  0.00    +0.000 F 
ATOM     17  C   UNL     1      -1.451  11.669  19.185  0.00  0.00    +0.000 A 
ENDBRANCH   2  10
BRANCH   6  18
ATOM     18  C   UNL     1       1.534   7.136  18.816  0.00  0.00    +0.000 C 
BRANCH  18  19
ATOM     19  C   UNL     1       2.789   6.649  18.181  0.00  0.00    +0.000 A 
ATOM     20  C   UNL     1       3.952   7.379  18.009  0.00  0.00    +0.000 A 
ATOM     21  N   UNL     1       4.942   6.546  17.550  0.00  0.00    +0.000 N 
ATOM     22  C   UNL     1       6.275   6.860  17.299  0.00  0.00    +0.000 A 
ATOM     23  C   UNL     1       7.119   5.889  16.908  0.00  0.00    +0.000 A 
ATOM     24  C   UNL     1       6.606   4.534  16.764  0.00  0.00    +0.000 A 
ATOM     25  C   UNL     1       5.312   4.236  16.990  0.00  0.00    +0.000 A 
ATOM     26  C   UNL     1       4.414   5.269  17.400  0.00  0.00    +0.000 A 
ATOM     27  C   UNL     1       3.075   5.320  17.739  0.00  0.00    +0.000 A 
BRANCH  27  28
ATOM     28  C   UNL     1       2.178   4.200  17.721  0.00  0.00    +0.000 C 
ATOM     29  N   UNL     1       1.454   3.296  17.727  0.00  0.00    +0.000 NA
ENDBRANCH  27  28
ENDBRANCH  18  19
ENDBRANCH   6  18
TORSDOF 4
ENDMDL
