MODEL 1
REMARK VINA RESULT:      -9.5      0.000      0.000
REMARK  Name = 
REMARK  6 active torsions:
REMARK  status: ('A' for Active; 'I' for Inactive)
REMARK    1  A    between atoms: C_2  and  C_4
REMARK    2  A    between atoms: N_7  and  C_8
REMARK    3  A    between atoms: C_12  and  N_13
REMARK    4  A    between atoms: N_13  and  S_14
REMARK    5  A    between atoms: S_14  and  C_17
REMARK    6  A    between atoms: C_20  and  C_21
REMARK                            x       y       z     vdW  Elec       q    Type
REMARK                         _______ _______ _______ _____ _____    ______ ____
ROOT
ATOM      1  N   UNL     1       5.199   3.497  19.153  0.00  0.00    +0.000 N 
ATOM      2  H   UNL     1       5.649   2.605  19.354  0.00  0.00    +0.000 HD
ENDROOT
BRANCH   1   7
ATOM      3  C   UNL     1       6.669   4.890  16.030  0.00  0.00    +0.000 A 
ATOM      4  C   UNL     1       7.303   6.045  16.499  0.00  0.00    +0.000 A 
ATOM      5  C   UNL     1       7.213   6.376  17.848  0.00  0.00    +0.000 A 
ATOM      6  C   UNL     1       6.503   5.552  18.732  0.00  0.00    +0.000 A 
ATOM      7  C   UNL     1       5.891   4.377  18.267  0.00  0.00    +0.000 A 
ATOM      8  C   UNL     1       5.983   4.045  16.919  0.00  0.00    +0.000 A 
BRANCH   3  12
ATOM      9  C   UNL     1       6.186   3.654  12.794  0.00  0.00    +0.000 A 
ATOM     10  C   UNL     1       7.263   4.529  12.517  0.00  0.00    +0.000 A 
ATOM     11  C   UNL     1       7.546   5.148  13.707  0.00  0.00    +0.000 A 
ATOM     12  N   UNL     1       6.696   4.615  14.642  0.00  0.00    +0.000 N 
ATOM     13  N   UNL     1       5.863   3.692  14.098  0.00  0.00    +0.000 NA
BRANCH   9  15
ATOM     14  N   UNL     1       6.057   1.619  11.528  0.00  0.00    +0.000 N 
ATOM     15  C   UNL     1       5.458   2.803  11.849  0.00  0.00    +0.000 C 
ATOM     16  O   UNL     1       4.349   3.088  11.395  0.00  0.00    +0.000 OA
ATOM     17  H   UNL     1       5.515   0.961  10.989  0.00  0.00    +0.000 HD
ATOM     18  H   UNL     1       6.819   1.285  12.107  0.00  0.00    +0.000 HD
ENDBRANCH   9  15
ENDBRANCH   3  12
ENDBRANCH   1   7
BRANCH   1  19
ATOM     19  S   UNL     1       3.505   3.376  19.095  0.00  0.00    +0.000 S 
ATOM     20  O   UNL     1       3.154   2.955  17.759  0.00  0.00    +0.000 OA
ATOM     21  O   UNL     1       3.063   2.633  20.266  0.00  0.00    +0.000 OA
BRANCH  19  22
ATOM     22  C   UNL     1       2.926   5.050  19.295  0.00  0.00    +0.000 A 
ATOM     23  C   UNL     1       2.969   5.967  18.236  0.00  0.00    +0.000 A 
ATOM     24  C   UNL     1       2.454   7.257  18.429  0.00  0.00    +0.000 A 
ATOM     25  C   UNL     1       1.870   7.629  19.654  0.00  0.00    +0.000 A 
ATOM     26  C   UNL     1       1.801   6.682  20.683  0.00  0.00    +0.000 A 
ATOM     27  C   UNL     1       2.322   5.400  20.502  0.00  0.00    +0.000 A 
BRANCH  25  28
ATOM     28  C   UNL     1       1.340   9.038  19.881  0.00  0.00    +0.000 C 
ATOM     29  C   UNL     1       0.269   9.084  20.985  0.00  0.00    +0.000 C 
ATOM     30  C   UNL     1      -0.340  10.476  21.134  0.00  0.00    +0.000 C 
ATOM     31  C   UNL     1      -0.886  10.989  19.805  0.00  0.00    +0.000 C 
ATOM     32  C   UNL     1       0.197  11.002  18.732  0.00  0.00    +0.000 C 
ATOM     33  C   UNL     1       0.821   9.621  18.554  0.00  0.00    +0.000 C 
ENDBRANCH  25  28
ENDBRANCH  19  22
ENDBRANCH   1  19
TORSDOF 6
ENDMDL
MODEL 2
REMARK VINA RESULT:      -8.9      0.844      1.275
REMARK  Name = 
REMARK  6 active torsions:
REMARK  status: ('A' for Active; 'I' for Inactive)
REMARK    1  A    between atoms: C_2  and  C_4
REMARK    2  A    between atoms: N_7  and  C_8
REMARK    3  A    between atoms: C_12  and  N_13
REMARK    4  A    between atoms: N_13  and  S_14
REMARK    5  A    between atoms: S_14  and  C_17
REMARK    6  A    between atoms: C_20  and  C_21
REMARK                            x       y       z     vdW  Elec       q    Type
REMARK                         _______ _______ _______ _____ _____    ______ ____
ROOT
ATOM      1  N   UNL     1       5.717   3.641  19.101  0.00  0.00    +0.000 N 
ATOM      2  H   UNL     1       6.313   2.857  19.363  0.00  0.00    +0.000 HD
ENDROOT
BRANCH   1   7
ATOM      3  C   UNL     1       6.809   5.018  15.820  0.00  0.00    +0.000 A 
ATOM      4  C   UNL     1       7.323   6.265  16.187  0.00  0.00    +0.000 A 
ATOM      5  C   UNL     1       7.276   6.660  17.520  0.00  0.00    +0.000 A 
ATOM      6  C   UNL     1       6.729   5.810  18.491  0.00  0.00    +0.000 A 
ATOM      7  C   UNL     1       6.239   4.545  18.127  0.00  0.00    +0.000 A 
ATOM      8  C   UNL     1       6.288   4.149  16.794  0.00  0.00    +0.000 A 
BRANCH   3  12
ATOM      9  C   UNL     1       6.183   3.631  12.670  0.00  0.00    +0.000 A 
ATOM     10  C   UNL     1       7.283   4.447  12.316  0.00  0.00    +0.000 A 
ATOM     11  C   UNL     1       7.625   5.117  13.462  0.00  0.00    +0.000 A 
ATOM     12  N   UNL     1       6.784   4.668  14.449  0.00  0.00    +0.000 N 
ATOM     13  N   UNL     1       5.901   3.751  13.979  0.00  0.00    +0.000 NA
BRANCH   9  15
ATOM     14  N   UNL     1       4.189   3.251  11.390  0.00  0.00    +0.000 N 
ATOM     15  C   UNL     1       5.396   2.759  11.794  0.00  0.00    +0.000 C 
ATOM     16  O   UNL     1       5.795   1.666  11.390  0.00  0.00    +0.000 OA
ATOM     17  H   UNL     1       3.694   2.730  10.682  0.00  0.00    +0.000 HD
ATOM     18  H   UNL     1       4.001   4.241  11.505  0.00  0.00    +0.000 HD
ENDBRANCH   9  15
ENDBRANCH   3  12
ENDBRANCH   1   7
BRANCH   1  19
ATOM     19  S   UNL     1       4.067   3.234  19.098  0.00  0.00    +0.000 S 
ATOM     20  O   UNL     1       3.742   2.785  17.764  0.00  0.00    +0.000 OA
ATOM     21  O   UNL     1       3.802   2.402  20.263  0.00  0.00    +0.000 OA
BRANCH  19  22
ATOM     22  C   UNL     1       3.219   4.780  19.361  0.00  0.00    +0.000 A 
ATOM     23  C   UNL     1       3.179   5.766  18.367  0.00  0.00    +0.000 A 
ATOM     24  C   UNL     1       2.456   6.944  18.603  0.00  0.00    +0.000 A 
ATOM     25  C   UNL     1       1.749   7.132  19.806  0.00  0.00    +0.000 A 
ATOM     26  C   UNL     1       1.771   6.114  20.767  0.00  0.00    +0.000 A 
ATOM     27  C   UNL     1       2.498   4.944  20.542  0.00  0.00    +0.000 A 
BRANCH  25  28
ATOM     28  C   UNL     1       0.991   8.423  20.083  0.00  0.00    +0.000 C 
ATOM     29  C   UNL     1       1.358   9.536  19.087  0.00  0.00    +0.000 C 
ATOM     30  C   UNL     1       0.682  10.861  19.434  0.00  0.00    +0.000 C 
ATOM     31  C   UNL     1       0.980  11.277  20.871  0.00  0.00    +0.000 C 
ATOM     32  C   UNL     1       0.556  10.196  21.858  0.00  0.00    +0.000 C 
ATOM     33  C   UNL     1       1.221   8.860  21.541  0.00  0.00    +0.000 C 
ENDBRANCH  25  28
ENDBRANCH  19  22
ENDBRANCH   1  19
TORSDOF 6
ENDMDL
MODEL 3
REMARK VINA RESULT:      -8.8      4.095      7.780
REMARK  Name = 
REMARK  6 active torsions:
REMARK  status: ('A' for Active; 'I' for Inactive)
REMARK    1  A    between atoms: C_2  and  C_4
REMARK    2  A    between atoms: N_7  and  C_8
REMARK    3  A    between atoms: C_12  and  N_13
REMARK    4  A    between atoms: N_13  and  S_14
REMARK    5  A    between atoms: S_14  and  C_17
REMARK    6  A    between atoms: C_20  and  C_21
REMARK                            x       y       z     vdW  Elec       q    Type
REMARK                         _______ _______ _______ _____ _____    ______ ____
ROOT
ATOM      1  N   UNL     1       6.290   4.215  18.847  0.00  0.00    +0.000 N 
ATOM      2  H   UNL     1       6.953   4.316  19.614  0.00  0.00    +0.000 HD
ENDROOT
BRANCH   1   7
ATOM      3  C   UNL     1       2.940   5.606  19.684  0.00  0.00    +0.000 A 
ATOM      4  C   UNL     1       2.197   4.446  19.921  0.00  0.00    +0.000 A 
ATOM      5  C   UNL     1       2.802   3.202  19.771  0.00  0.00    +0.000 A 
ATOM      6  C   UNL     1       4.150   3.111  19.397  0.00  0.00    +0.000 A 
ATOM      7  C   UNL     1       4.904   4.277  19.186  0.00  0.00    +0.000 A 
ATOM      8  C   UNL     1       4.300   5.521  19.339  0.00  0.00    +0.000 A 
BRANCH   3  12
ATOM      9  C   UNL     1       1.669   8.818  19.138  0.00  0.00    +0.000 A 
ATOM     10  C   UNL     1       1.216   8.645  20.467  0.00  0.00    +0.000 A 
ATOM     11  C   UNL     1       1.599   7.378  20.821  0.00  0.00    +0.000 A 
ATOM     12  N   UNL     1       2.287   6.859  19.754  0.00  0.00    +0.000 N 
ATOM     13  N   UNL     1       2.345   7.735  18.719  0.00  0.00    +0.000 NA
BRANCH   9  15
ATOM     14  N   UNL     1       0.330  10.704  18.496  0.00  0.00    +0.000 N 
ATOM     15  C   UNL     1       1.461   9.977  18.264  0.00  0.00    +0.000 C 
ATOM     16  O   UNL     1       2.266  10.326  17.399  0.00  0.00    +0.000 OA
ATOM     17  H   UNL     1       0.236  11.578  18.000  0.00  0.00    +0.000 HD
ATOM     18  H   UNL     1      -0.169  10.568  19.368  0.00  0.00    +0.000 HD
ENDBRANCH   9  15
ENDBRANCH   3  12
ENDBRANCH   1   7
BRANCH   1  19
ATOM     19  S   UNL     1       6.853   4.910  17.402  0.00  0.00    +0.000 S 
ATOM     20  O   UNL     1       7.994   4.135  16.973  0.00  0.00    +0.000 OA
ATOM     21  O   UNL     1       5.710   5.124  16.527  0.00  0.00    +0.000 OA
BRANCH  19  22
ATOM     22  C   UNL     1       7.451   6.520  17.878  0.00  0.00    +0.000 A 
ATOM     23  C   UNL     1       8.292   6.687  18.986  0.00  0.00    +0.000 A 
ATOM     24  C   UNL     1       8.776   7.967  19.289  0.00  0.00    +0.000 A 
ATOM     25  C   UNL     1       8.457   9.073  18.480  0.00  0.00    +0.000 A 
ATOM     26  C   UNL     1       7.649   8.875  17.354  0.00  0.00    +0.000 A 
ATOM     27  C   UNL     1       7.153   7.604  17.054  0.00  0.00    +0.000 A 
BRANCH  25  28
ATOM     28  C   UNL     1       8.951  10.472  18.823  0.00  0.00    +0.000 C 
ATOM     29  C   UNL     1      10.055  10.949  17.862  0.00  0.00    +0.000 C 
ATOM     30  C   UNL     1      10.627  12.303  18.274  0.00  0.00    +0.000 C 
ATOM     31  C   UNL     1      11.115  12.284  19.719  0.00  0.00    +0.000 C 
ATOM     32  C   UNL     1       9.999  11.873  20.673  0.00  0.00    +0.000 C 
ATOM     33  C   UNL     1       9.411  10.518  20.291  0.00  0.00    +0.000 C 
ENDBRANCH  25  28
ENDBRANCH  19  22
ENDBRANCH   1  19
TORSDOF 6
ENDMDL
MODEL 4
REMARK VINA RESULT:      -8.7      4.129      8.115
REMARK  Name = 
REMARK  6 active torsions:
REMARK  status: ('A' for Active; 'I' for Inactive)
REMARK    1  A    between atoms: C_2  and  C_4
REMARK    2  A    between atoms: N_7  and  C_8
REMARK    3  A    between atoms: C_12  and  N_13
REMARK    4  A    between atoms: N_13  and  S_14
REMARK    5  A    between atoms: S_14  and  C_17
REMARK    6  A    between atoms: C_20  and  C_21
REMARK                            x       y       z     vdW  Elec       q    Type
REMARK                         _______ _______ _______ _____ _____    ______ ____
ROOT
ATOM      1  N   UNL     1       6.219   4.233  18.760  0.00  0.00    +0.000 N 
ATOM      2  H   UNL     1       6.869   4.294  19.542  0.00  0.00    +0.000 HD
ENDROOT
BRANCH   1   7
ATOM      3  C   UNL     1       2.918   5.778  19.519  0.00  0.00    +0.000 A 
ATOM      4  C   UNL     1       2.119   4.653  19.749  0.00  0.00    +0.000 A 
ATOM      5  C   UNL     1       2.671   3.383  19.619  0.00  0.00    +0.000 A 
ATOM      6  C   UNL     1       4.020   3.230  19.273  0.00  0.00    +0.000 A 
ATOM      7  C   UNL     1       4.830   4.359  19.070  0.00  0.00    +0.000 A 
ATOM      8  C   UNL     1       4.279   5.630  19.202  0.00  0.00    +0.000 A 
BRANCH   3  12
ATOM      9  C   UNL     1       1.165   8.687  20.353  0.00  0.00    +0.000 A 
ATOM     10  C   UNL     1       1.529   9.043  19.033  0.00  0.00    +0.000 A 
ATOM     11  C   UNL     1       2.288   7.999  18.570  0.00  0.00    +0.000 A 
ATOM     12  N   UNL     1       2.319   7.059  19.568  0.00  0.00    +0.000 N 
ATOM     13  N   UNL     1       1.627   7.464  20.663  0.00  0.00    +0.000 NA
BRANCH   9  15
ATOM     14  N   UNL     1       0.873   9.478  22.600  0.00  0.00    +0.000 N 
ATOM     15  C   UNL     1       0.405   9.486  21.318  0.00  0.00    +0.000 C 
ATOM     16  O   UNL     1      -0.570  10.174  21.011  0.00  0.00    +0.000 OA
ATOM     17  H   UNL     1       0.448  10.124  23.248  0.00  0.00    +0.000 HD
ATOM     18  H   UNL     1       1.811   9.137  22.776  0.00  0.00    +0.000 HD
ENDBRANCH   9  15
ENDBRANCH   3  12
ENDBRANCH   1   7
BRANCH   1  19
ATOM     19  S   UNL     1       6.845   4.915  17.335  0.00  0.00    +0.000 S 
ATOM     20  O   UNL     1       7.995   4.126  16.955  0.00  0.00    +0.000 OA
ATOM     21  O   UNL     1       5.740   5.135  16.414  0.00  0.00    +0.000 OA
BRANCH  19  22
ATOM     22  C   UNL     1       7.439   6.522  17.825  0.00  0.00    +0.000 A 
ATOM     23  C   UNL     1       8.297   6.677  18.922  0.00  0.00    +0.000 A 
ATOM     24  C   UNL     1       8.778   7.956  19.237  0.00  0.00    +0.000 A 
ATOM     25  C   UNL     1       8.437   9.072  18.450  0.00  0.00    +0.000 A 
ATOM     26  C   UNL     1       7.612   8.886  17.335  0.00  0.00    +0.000 A 
ATOM     27  C   UNL     1       7.121   7.616  17.023  0.00  0.00    +0.000 A 
BRANCH  25  28
ATOM     28  C   UNL     1       8.927  10.469  18.807  0.00  0.00    +0.000 C 
ATOM     29  C   UNL     1      10.020  10.964  17.842  0.00  0.00    +0.000 C 
ATOM     30  C   UNL     1      10.589  12.316  18.267  0.00  0.00    +0.000 C 
ATOM     31  C   UNL     1      11.090  12.281  19.707  0.00  0.00    +0.000 C 
ATOM     32  C   UNL     1       9.984  11.852  20.665  0.00  0.00    +0.000 C 
ATOM     33  C   UNL     1       9.400  10.499  20.272  0.00  0.00    +0.000 C 
ENDBRANCH  25  28
ENDBRANCH  19  22
ENDBRANCH   1  19
TORSDOF 6
ENDMDL
MODEL 5
REMARK VINA RESULT:      -8.6      4.283      8.104
REMARK  Name = 
REMARK  6 active torsions:
REMARK  status: ('A' for Active; 'I' for Inactive)
REMARK    1  A    between atoms: C_2  and  C_4
REMARK    2  A    between atoms: N_7  and  C_8
REMARK    3  A    between atoms: C_12  and  N_13
REMARK    4  A    between atoms: N_13  and  S_14
REMARK    5  A    between atoms: S_14  and  C_17
REMARK    6  A    between atoms: C_20  and  C_21
REMARK                            x       y       z     vdW  Elec       q    Type
REMARK                         _______ _______ _______ _____ _____    ______ ____
ROOT
ATOM      1  N   UNL     1       5.767   5.102  16.659  0.00  0.00    +0.000 N 
ATOM      2  H   UNL     1       5.895   4.571  15.799  0.00  0.00    +0.000 HD
ENDROOT
BRANCH   1   7
ATOM      3  C   UNL     1       2.663   6.525  18.143  0.00  0.00    +0.000 A 
ATOM      4  C   UNL     1       1.841   5.397  18.231  0.00  0.00    +0.000 A 
ATOM      5  C   UNL     1       2.308   4.171  17.765  0.00  0.00    +0.000 A 
ATOM      6  C   UNL     1       3.597   4.065  17.225  0.00  0.00    +0.000 A 
ATOM      7  C   UNL     1       4.434   5.191  17.164  0.00  0.00    +0.000 A 
ATOM      8  C   UNL     1       3.968   6.416  17.631  0.00  0.00    +0.000 A 
BRANCH   3  12
ATOM      9  C   UNL     1       1.209   9.237  19.806  0.00  0.00    +0.000 A 
ATOM     10  C   UNL     1       1.367   9.840  18.535  0.00  0.00    +0.000 A 
ATOM     11  C   UNL     1       1.989   8.897  17.758  0.00  0.00    +0.000 A 
ATOM     12  N   UNL     1       2.141   7.779  18.538  0.00  0.00    +0.000 N 
ATOM     13  N   UNL     1       1.659   7.971  19.792  0.00  0.00    +0.000 NA
BRANCH   9  15
ATOM     14  N   UNL     1       0.881  11.178  21.179  0.00  0.00    +0.000 N 
ATOM     15  C   UNL     1       0.657   9.841  21.021  0.00  0.00    +0.000 C 
ATOM     16  O   UNL     1      -0.016   9.216  21.843  0.00  0.00    +0.000 OA
ATOM     17  H   UNL     1       0.397  11.638  21.935  0.00  0.00    +0.000 HD
ATOM     18  H   UNL     1       1.191  11.719  20.380  0.00  0.00    +0.000 HD
ENDBRANCH   9  15
ENDBRANCH   3  12
ENDBRANCH   1   7
BRANCH   1  19
ATOM     19  S   UNL     1       7.080   4.945  17.725  0.00  0.00    +0.000 S 
ATOM     20  O   UNL     1       6.551   4.483  18.988  0.00  0.00    +0.000 OA
ATOM     21  O   UNL     1       8.140   4.222  17.037  0.00  0.00    +0.000 OA
BRANCH  19  22
ATOM     22  C   UNL     1       7.665   6.611  17.971  0.00  0.00    +0.000 A 
ATOM     23  C   UNL     1       7.319   7.641  17.087  0.00  0.00    +0.000 A 
ATOM     24  C   UNL     1       7.762   8.945  17.352  0.00  0.00    +0.000 A 
ATOM     25  C   UNL     1       8.517   9.234  18.504  0.00  0.00    +0.000 A 
ATOM     26  C   UNL     1       8.815   8.195  19.394  0.00  0.00    +0.000 A 
ATOM     27  C   UNL     1       8.386   6.893  19.130  0.00  0.00    +0.000 A 
BRANCH  25  28
ATOM     28  C   UNL     1       9.031  10.641  18.780  0.00  0.00    +0.000 C 
ATOM     29  C   UNL     1      10.157  11.047  17.813  0.00  0.00    +0.000 C 
ATOM     30  C   UNL     1      10.747  12.412  18.161  0.00  0.00    +0.000 C 
ATOM     31  C   UNL     1      11.213  12.462  19.613  0.00  0.00    +0.000 C 
ATOM     32  C   UNL     1      10.076  12.121  20.569  0.00  0.00    +0.000 C 
ATOM     33  C   UNL     1       9.470  10.758  20.251  0.00  0.00    +0.000 C 
ENDBRANCH  25  28
ENDBRANCH  19  22
ENDBRANCH   1  19
TORSDOF 6
ENDMDL
MODEL 6
REMARK VINA RESULT:      -8.5      4.125      8.446
REMARK  Name = 
REMARK  6 active torsions:
REMARK  status: ('A' for Active; 'I' for Inactive)
REMARK    1  A    between atoms: C_2  and  C_4
REMARK    2  A    between atoms: N_7  and  C_8
REMARK    3  A    between atoms: C_12  and  N_13
REMARK    4  A    between atoms: N_13  and  S_14
REMARK    5  A    between atoms: S_14  and  C_17
REMARK    6  A    between atoms: C_20  and  C_21
REMARK                            x       y       z     vdW  Elec       q    Type
REMARK                         _______ _______ _______ _____ _____    ______ ____
ROOT
ATOM      1  N   UNL     1       4.245   5.258  17.352  0.00  0.00    +0.000 N 
ATOM      2  H   UNL     1       3.911   4.954  16.439  0.00  0.00    +0.000 HD
ENDROOT
BRANCH   1   7
ATOM      3  C   UNL     1       1.963   6.627  19.956  0.00  0.00    +0.000 A 
ATOM      4  C   UNL     1       1.428   5.462  20.514  0.00  0.00    +0.000 A 
ATOM      5  C   UNL     1       1.803   4.223  20.002  0.00  0.00    +0.000 A 
ATOM      6  C   UNL     1       2.718   4.143  18.943  0.00  0.00    +0.000 A 
ATOM      7  C   UNL     1       3.277   5.312  18.402  0.00  0.00    +0.000 A 
ATOM      8  C   UNL     1       2.904   6.550  18.915  0.00  0.00    +0.000 A 
BRANCH   3  12
ATOM      9  C   UNL     1       0.623   9.297  21.774  0.00  0.00    +0.000 A 
ATOM     10  C   UNL     1       0.853   9.979  20.556  0.00  0.00    +0.000 A 
ATOM     11  C   UNL     1       1.442   9.058  19.728  0.00  0.00    +0.000 A 
ATOM     12  N   UNL     1       1.504   7.880  20.428  0.00  0.00    +0.000 N 
ATOM     13  N   UNL     1       0.997   8.010  21.680  0.00  0.00    +0.000 NA
BRANCH   9  15
ATOM     14  N   UNL     1      -1.077  10.573  22.890  0.00  0.00    +0.000 N 
ATOM     15  C   UNL     1       0.071   9.845  23.017  0.00  0.00    +0.000 C 
ATOM     16  O   UNL     1       0.562   9.636  24.127  0.00  0.00    +0.000 OA
ATOM     17  H   UNL     1      -1.545  10.843  23.742  0.00  0.00    +0.000 HD
ATOM     18  H   UNL     1      -1.605  10.506  22.028  0.00  0.00    +0.000 HD
ENDBRANCH   9  15
ENDBRANCH   3  12
ENDBRANCH   1   7
BRANCH   1  19
ATOM     19  S   UNL     1       5.831   4.742  17.674  0.00  0.00    +0.000 S 
ATOM     20  O   UNL     1       5.801   4.028  18.929  0.00  0.00    +0.000 OA
ATOM     21  O   UNL     1       6.362   4.129  16.465  0.00  0.00    +0.000 OA
BRANCH  19  22
ATOM     22  C   UNL     1       6.751   6.246  17.938  0.00  0.00    +0.000 A 
ATOM     23  C   UNL     1       7.850   6.284  18.806  0.00  0.00    +0.000 A 
ATOM     24  C   UNL     1       8.572   7.478  18.941  0.00  0.00    +0.000 A 
ATOM     25  C   UNL     1       8.227   8.622  18.197  0.00  0.00    +0.000 A 
ATOM     26  C   UNL     1       7.150   8.548  17.306  0.00  0.00    +0.000 A 
ATOM     27  C   UNL     1       6.420   7.364  17.175  0.00  0.00    +0.000 A 
BRANCH  25  28
ATOM     28  C   UNL     1       8.985   9.932  18.365  0.00  0.00    +0.000 C 
ATOM     29  C   UNL     1       9.280  10.245  19.843  0.00  0.00    +0.000 C 
ATOM     30  C   UNL     1       9.940  11.612  20.017  0.00  0.00    +0.000 C 
ATOM     31  C   UNL     1       9.112  12.716  19.367  0.00  0.00    +0.000 C 
ATOM     32  C   UNL     1       8.877  12.430  17.888  0.00  0.00    +0.000 C 
ATOM     33  C   UNL     1       8.212  11.074  17.681  0.00  0.00    +0.000 C 
ENDBRANCH  25  28
ENDBRANCH  19  22
ENDBRANCH   1  19
TORSDOF 6
ENDMDL
MODEL 7
REMARK VINA RESULT:      -8.5      4.389      8.213
REMARK  Name = 
REMARK  6 active torsions:
REMARK  status: ('A' for Active; 'I' for Inactive)
REMARK    1  A    between atoms: C_2  and  C_4
REMARK    2  A    between atoms: N_7  and  C_8
REMARK    3  A    between atoms: C_12  and  N_13
REMARK    4  A    between atoms: N_13  and  S_14
REMARK    5  A    between atoms: S_14  and  C_17
REMARK    6  A    between atoms: C_20  and  C_21
REMARK                            x       y       z     vdW  Elec       q    Type
REMARK                         _______ _______ _______ _____ _____    ______ ____
ROOT
ATOM      1  N   UNL     1       5.285   5.538  16.575  0.00  0.00    +0.000 N 
ATOM      2  H   UNL     1       5.241   5.294  15.587  0.00  0.00    +0.000 HD
ENDROOT
BRANCH   1   7
ATOM      3  C   UNL     1       2.438   6.302  18.849  0.00  0.00    +0.000 A 
ATOM      4  C   UNL     1       1.757   5.081  18.879  0.00  0.00    +0.000 A 
ATOM      5  C   UNL     1       2.227   4.015  18.118  0.00  0.00    +0.000 A 
ATOM      6  C   UNL     1       3.382   4.159  17.337  0.00  0.00    +0.000 A 
ATOM      7  C   UNL     1       4.082   5.376  17.328  0.00  0.00    +0.000 A 
ATOM      8  C   UNL     1       3.613   6.441  18.091  0.00  0.00    +0.000 A 
BRANCH   3  12
ATOM      9  C   UNL     1       1.248   9.413  19.914  0.00  0.00    +0.000 A 
ATOM     10  C   UNL     1       1.153   8.728  21.148  0.00  0.00    +0.000 A 
ATOM     11  C   UNL     1       1.545   7.441  20.883  0.00  0.00    +0.000 A 
ATOM     12  N   UNL     1       1.897   7.401  19.557  0.00  0.00    +0.000 N 
ATOM     13  N   UNL     1       1.729   8.605  18.954  0.00  0.00    +0.000 NA
BRANCH   9  15
ATOM     14  N   UNL     1       0.590  11.092  18.330  0.00  0.00    +0.000 N 
ATOM     15  C   UNL     1       0.883  10.804  19.632  0.00  0.00    +0.000 C 
ATOM     16  O   UNL     1       0.788  11.670  20.503  0.00  0.00    +0.000 OA
ATOM     17  H   UNL     1       0.207  12.005  18.137  0.00  0.00    +0.000 HD
ATOM     18  H   UNL     1       0.410  10.328  17.689  0.00  0.00    +0.000 HD
ENDBRANCH   9  15
ENDBRANCH   3  12
ENDBRANCH   1   7
BRANCH   1  19
ATOM     19  S   UNL     1       6.790   5.171  17.273  0.00  0.00    +0.000 S 
ATOM     20  O   UNL     1       6.531   4.394  18.462  0.00  0.00    +0.000 OA
ATOM     21  O   UNL     1       7.670   4.679  16.222  0.00  0.00    +0.000 OA
BRANCH  19  22
ATOM     22  C   UNL     1       7.441   6.746  17.797  0.00  0.00    +0.000 A 
ATOM     23  C   UNL     1       8.335   6.843  18.872  0.00  0.00    +0.000 A 
ATOM     24  C   UNL     1       8.858   8.098  19.214  0.00  0.00    +0.000 A 
ATOM     25  C   UNL     1       8.523   9.248  18.475  0.00  0.00    +0.000 A 
ATOM     26  C   UNL     1       7.661   9.120  17.380  0.00  0.00    +0.000 A 
ATOM     27  C   UNL     1       7.128   7.874  17.041  0.00  0.00    +0.000 A 
BRANCH  25  28
ATOM     28  C   UNL     1       9.060  10.619  18.862  0.00  0.00    +0.000 C 
ATOM     29  C   UNL     1      10.202  11.077  17.937  0.00  0.00    +0.000 C 
ATOM     30  C   UNL     1      10.814  12.400  18.393  0.00  0.00    +0.000 C 
ATOM     31  C   UNL     1      11.268  12.329  19.848  0.00  0.00    +0.000 C 
ATOM     32  C   UNL     1      10.117  11.938  20.767  0.00  0.00    +0.000 C 
ATOM     33  C   UNL     1       9.489  10.615  20.340  0.00  0.00    +0.000 C 
ENDBRANCH  25  28
ENDBRANCH  19  22
ENDBRANCH   1  19
TORSDOF 6
ENDMDL
MODEL 8
REMARK VINA RESULT:      -8.5      4.387      8.287
REMARK  Name = 
REMARK  6 active torsions:
REMARK  status: ('A' for Active; 'I' for Inactive)
REMARK    1  A    between atoms: C_2  and  C_4
REMARK    2  A    between atoms: N_7  and  C_8
REMARK    3  A    between atoms: C_12  and  N_13
REMARK    4  A    between atoms: N_13  and  S_14
REMARK    5  A    between atoms: S_14  and  C_17
REMARK    6  A    between atoms: C_20  and  C_21
REMARK                            x       y       z     vdW  Elec       q    Type
REMARK                         _______ _______ _______ _____ _____    ______ ____
ROOT
ATOM      1  N   UNL     1       5.297   5.268  16.801  0.00  0.00    +0.000 N 
ATOM      2  H   UNL     1       5.076   4.745  15.955  0.00  0.00    +0.000 HD
ENDROOT
BRANCH   1   7
ATOM      3  C   UNL     1       2.648   6.934  18.819  0.00  0.00    +0.000 A 
ATOM      4  C   UNL     1       2.182   5.879  19.611  0.00  0.00    +0.000 A 
ATOM      5  C   UNL     1       2.727   4.609  19.449  0.00  0.00    +0.000 A 
ATOM      6  C   UNL     1       3.743   4.390  18.510  0.00  0.00    +0.000 A 
ATOM      7  C   UNL     1       4.232   5.454  17.735  0.00  0.00    +0.000 A 
ATOM      8  C   UNL     1       3.689   6.725  17.898  0.00  0.00    +0.000 A 
BRANCH   3  12
ATOM      9  C   UNL     1       0.915   9.795  19.839  0.00  0.00    +0.000 A 
ATOM     10  C   UNL     1       1.125  10.158  18.488  0.00  0.00    +0.000 A 
ATOM     11  C   UNL     1       1.858   9.134  17.945  0.00  0.00    +0.000 A 
ATOM     12  N   UNL     1       2.023   8.198  18.933  0.00  0.00    +0.000 N 
ATOM     13  N   UNL     1       1.442   8.586  20.097  0.00  0.00    +0.000 NA
BRANCH   9  15
ATOM     14  N   UNL     1      -0.884  11.243  20.493  0.00  0.00    +0.000 N 
ATOM     15  C   UNL     1       0.241  10.575  20.881  0.00  0.00    +0.000 C 
ATOM     16  O   UNL     1       0.615  10.604  22.055  0.00  0.00    +0.000 OA
ATOM     17  H   UNL     1      -1.436  11.673  21.220  0.00  0.00    +0.000 HD
ATOM     18  H   UNL     1      -1.321  10.994  19.613  0.00  0.00    +0.000 HD
ENDBRANCH   9  15
ENDBRANCH   3  12
ENDBRANCH   1   7
BRANCH   1  19
ATOM     19  S   UNL     1       6.880   4.987  17.349  0.00  0.00    +0.000 S 
ATOM     20  O   UNL     1       6.780   4.180  18.544  0.00  0.00    +0.000 OA
ATOM     21  O   UNL     1       7.684   4.562  16.213  0.00  0.00    +0.000 OA
BRANCH  19  22
ATOM     22  C   UNL     1       7.481   6.591  17.839  0.00  0.00    +0.000 A 
ATOM     23  C   UNL     1       8.304   6.748  18.962  0.00  0.00    +0.000 A 
ATOM     24  C   UNL     1       8.793   8.024  19.277  0.00  0.00    +0.000 A 
ATOM     25  C   UNL     1       8.495   9.135  18.466  0.00  0.00    +0.000 A 
ATOM     26  C   UNL     1       7.705   8.946  17.326  0.00  0.00    +0.000 A 
ATOM     27  C   UNL     1       7.206   7.680  17.013  0.00  0.00    +0.000 A 
BRANCH  25  28
ATOM     28  C   UNL     1       8.994  10.529  18.821  0.00  0.00    +0.000 C 
ATOM     29  C   UNL     1      10.113  11.003  17.877  0.00  0.00    +0.000 C 
ATOM     30  C   UNL     1      10.688  12.352  18.302  0.00  0.00    +0.000 C 
ATOM     31  C   UNL     1      11.156  12.324  19.754  0.00  0.00    +0.000 C 
ATOM     32  C   UNL     1      10.026  11.916  20.691  0.00  0.00    +0.000 C 
ATOM     33  C   UNL     1       9.434  10.567  20.296  0.00  0.00    +0.000 C 
ENDBRANCH  25  28
ENDBRANCH  19  22
ENDBRANCH   1  19
TORSDOF 6
ENDMDL
MODEL 9
REMARK VINA RESULT:      -8.5      1.836      2.563
REMARK  Name = 
REMARK  6 active torsions:
REMARK  status: ('A' for Active; 'I' for Inactive)
REMARK    1  A    between atoms: C_2  and  C_4
REMARK    2  A    between atoms: N_7  and  C_8
REMARK    3  A    between atoms: C_12  and  N_13
REMARK    4  A    between atoms: N_13  and  S_14
REMARK    5  A    between atoms: S_14  and  C_17
REMARK    6  A    between atoms: C_20  and  C_21
REMARK                            x       y       z     vdW  Elec       q    Type
REMARK                         _______ _______ _______ _____ _____    ______ ____
ROOT
ATOM      1  N   UNL     1       4.029   7.010  17.675  0.00  0.00    +0.000 N 
ATOM      2  H   UNL     1       4.153   8.011  17.817  0.00  0.00    +0.000 HD
ENDROOT
BRANCH   1   7
ATOM      3  C   UNL     1       6.341   5.027  15.534  0.00  0.00    +0.000 A 
ATOM      4  C   UNL     1       7.395   4.764  16.414  0.00  0.00    +0.000 A 
ATOM      5  C   UNL     1       7.351   5.273  17.708  0.00  0.00    +0.000 A 
ATOM      6  C   UNL     1       6.252   6.034  18.131  0.00  0.00    +0.000 A 
ATOM      7  C   UNL     1       5.180   6.275  17.257  0.00  0.00    +0.000 A 
ATOM      8  C   UNL     1       5.223   5.764  15.964  0.00  0.00    +0.000 A 
BRANCH   3  12
ATOM      9  C   UNL     1       5.997   3.420  12.447  0.00  0.00    +0.000 A 
ATOM     10  C   UNL     1       7.145   4.191  12.146  0.00  0.00    +0.000 A 
ATOM     11  C   UNL     1       7.387   4.939  13.269  0.00  0.00    +0.000 A 
ATOM     12  N   UNL     1       6.443   4.578  14.196  0.00  0.00    +0.000 N 
ATOM     13  N   UNL     1       5.591   3.641  13.709  0.00  0.00    +0.000 NA
BRANCH   9  15
ATOM     14  N   UNL     1       4.062   2.921  11.118  0.00  0.00    +0.000 N 
ATOM     15  C   UNL     1       5.281   2.497  11.562  0.00  0.00    +0.000 C 
ATOM     16  O   UNL     1       5.747   1.421  11.185  0.00  0.00    +0.000 OA
ATOM     17  H   UNL     1       3.615   2.365  10.404  0.00  0.00    +0.000 HD
ATOM     18  H   UNL     1       3.821   3.901  11.213  0.00  0.00    +0.000 HD
ENDBRANCH   9  15
ENDBRANCH   3  12
ENDBRANCH   1   7
BRANCH   1  19
ATOM     19  S   UNL     1       2.926   6.327  18.771  0.00  0.00    +0.000 S 
ATOM     20  O   UNL     1       2.029   5.490  18.008  0.00  0.00    +0.000 OA
ATOM     21  O   UNL     1       3.677   5.800  19.902  0.00  0.00    +0.000 OA
BRANCH  19  22
ATOM     22  C   UNL     1       1.977   7.708  19.379  0.00  0.00    +0.000 A 
ATOM     23  C   UNL     1       1.742   8.836  18.582  0.00  0.00    +0.000 A 
ATOM     24  C   UNL     1       0.947   9.875  19.086  0.00  0.00    +0.000 A 
ATOM     25  C   UNL     1       0.360   9.784  20.362  0.00  0.00    +0.000 A 
ATOM     26  C   UNL     1       0.574   8.629  21.123  0.00  0.00    +0.000 A 
ATOM     27  C   UNL     1       1.375   7.596  20.630  0.00  0.00    +0.000 A 
BRANCH  25  28
ATOM     28  C   UNL     1      -0.476  10.923  20.930  0.00  0.00    +0.000 C 
ATOM     29  C   UNL     1       0.153  12.299  20.652  0.00  0.00    +0.000 C 
ATOM     30  C   UNL     1      -0.626  13.431  21.318  0.00  0.00    +0.000 C 
ATOM     31  C   UNL     1      -0.793  13.185  22.814  0.00  0.00    +0.000 C 
ATOM     32  C   UNL     1      -1.475  11.849  23.081  0.00  0.00    +0.000 C 
ATOM     33  C   UNL     1      -0.715  10.696  22.434  0.00  0.00    +0.000 C 
ENDBRANCH  25  28
ENDBRANCH  19  22
ENDBRANCH   1  19
TORSDOF 6
ENDMDL
