MODEL 1
REMARK VINA RESULT:      -9.4      0.000      0.000
REMARK  Name = 
REMARK  6 active torsions:
REMARK  status: ('A' for Active; 'I' for Inactive)
REMARK    1  A    between atoms: C_2  and  C_3
REMARK    2  A    between atoms: C_3  and  O_4
REMARK    3  A    between atoms: O_4  and  C_5
REMARK    4  A    between atoms: C_5  and  C_7
REMARK    5  A    between atoms: C_11  and  N_12
REMARK    6  A    between atoms: N_27  and  C_28
REMARK                            x       y       z     vdW  Elec       q    Type
REMARK                         _______ _______ _______ _____ _____    ______ ____
ROOT
ATOM      1  C   UNL     1       1.872   8.868  18.492  0.00  0.00    +0.000 C 
ATOM      2  O   UNL     1       2.311   9.216  17.408  0.00  0.00    +0.000 OA
ENDROOT
BRANCH   1   3
ATOM      3  C   UNL     1       2.135   7.541  19.104  0.00  0.00    +0.000 A 
ATOM      4  C   UNL     1       1.463   7.183  20.271  0.00  0.00    +0.000 A 
ATOM      5  C   UNL     1       1.770   5.982  20.913  0.00  0.00    +0.000 A 
ATOM      6  C   UNL     1       2.695   5.100  20.353  0.00  0.00    +0.000 A 
ATOM      7  C   UNL     1       3.283   5.383  19.116  0.00  0.00    +0.000 A 
ATOM      8  C   UNL     1       3.039   6.642  18.535  0.00  0.00    +0.000 A 
BRANCH   7   9
ATOM      9  N   UNL     1       4.209   4.499  18.504  0.00  0.00    +0.000 N 
ATOM     10  C   UNL     1       5.567   4.588  18.691  0.00  0.00    +0.000 C 
ATOM     11  O   UNL     1       6.241   4.859  19.666  0.00  0.00    +0.000 OA
ATOM     12  C   UNL     1       6.135   4.394  17.359  0.00  0.00    +0.000 A 
ATOM     13  C   UNL     1       7.229   5.051  16.842  0.00  0.00    +0.000 A 
ATOM     14  C   UNL     1       7.278   5.198  15.452  0.00  0.00    +0.000 A 
ATOM     15  C   UNL     1       6.279   4.647  14.623  0.00  0.00    +0.000 A 
ATOM     16  C   UNL     1       5.195   3.957  15.170  0.00  0.00    +0.000 A 
ATOM     17  C   UNL     1       5.142   3.882  16.548  0.00  0.00    +0.000 A 
ATOM     18  C   UNL     1       3.928   3.814  17.343  0.00  0.00    +0.000 C 
ATOM     19  O   UNL     1       2.893   3.318  16.937  0.00  0.00    +0.000 OA
ENDBRANCH   7   9
ENDBRANCH   1   3
BRANCH   1  20
ATOM     20  O   UNL     1       1.047   9.612  19.262  0.00  0.00    +0.000 OA
BRANCH  20  21
ATOM     21  C   UNL     1       0.579  10.822  18.651  0.00  0.00    +0.000 C 
BRANCH  21  23
ATOM     22  O   UNL     1      -1.545  11.398  19.610  0.00  0.00    +0.000 OA
ATOM     23  C   UNL     1      -0.943  10.937  18.646  0.00  0.00    +0.000 C 
ATOM     24  N   UNL     1      -1.553  10.467  17.484  0.00  0.00    +0.000 N 
ATOM     25  C   UNL     1      -2.900  10.453  17.188  0.00  0.00    +0.000 C 
ATOM     26  O   UNL     1      -3.303   9.937  16.154  0.00  0.00    +0.000 OA
ATOM     27  N   UNL     1      -3.700  11.073  18.096  0.00  0.00    +0.000 N 
ATOM     28  H   UNL     1      -0.971  10.116  16.735  0.00  0.00    +0.000 HD
ATOM     29  H   UNL     1      -3.267  11.311  18.986  0.00  0.00    +0.000 HD
BRANCH  27  30
ATOM     30  C   UNL     1      -5.147  11.191  17.995  0.00  0.00    +0.000 C 
ATOM     31  C   UNL     1      -5.482  12.424  17.140  0.00  0.00    +0.000 C 
ATOM     32  C   UNL     1      -6.972  12.733  17.107  0.00  0.00    +0.000 C 
ATOM     33  C   UNL     1      -7.542  12.859  18.515  0.00  0.00    +0.000 C 
ATOM     34  C   UNL     1      -7.270  11.596  19.329  0.00  0.00    +0.000 C 
ATOM     35  C   UNL     1      -5.781  11.273  19.390  0.00  0.00    +0.000 C 
ENDBRANCH  27  30
ENDBRANCH  21  23
ENDBRANCH  20  21
ENDBRANCH   1  20
TORSDOF 6
ENDMDL
MODEL 2
REMARK VINA RESULT:      -9.0      2.761      3.401
REMARK  Name = 
REMARK  6 active torsions:
REMARK  status: ('A' for Active; 'I' for Inactive)
REMARK    1  A    between atoms: C_2  and  C_3
REMARK    2  A    between atoms: C_3  and  O_4
REMARK    3  A    between atoms: O_4  and  C_5
REMARK    4  A    between atoms: C_5  and  C_7
REMARK    5  A    between atoms: C_11  and  N_12
REMARK    6  A    between atoms: N_27  and  C_28
REMARK                            x       y       z     vdW  Elec       q    Type
REMARK                         _______ _______ _______ _____ _____    ______ ____
ROOT
ATOM      1  C   UNL     1       1.899   9.007  18.203  0.00  0.00    +0.000 C 
ATOM      2  O   UNL     1       2.565   9.420  17.268  0.00  0.00    +0.000 OA
ENDROOT
BRANCH   1   3
ATOM      3  C   UNL     1       2.162   7.726  18.906  0.00  0.00    +0.000 A 
ATOM      4  C   UNL     1       1.518   7.465  20.114  0.00  0.00    +0.000 A 
ATOM      5  C   UNL     1       1.828   6.311  20.835  0.00  0.00    +0.000 A 
ATOM      6  C   UNL     1       2.726   5.376  20.318  0.00  0.00    +0.000 A 
ATOM      7  C   UNL     1       3.283   5.559  19.048  0.00  0.00    +0.000 A 
ATOM      8  C   UNL     1       3.039   6.774  18.381  0.00  0.00    +0.000 A 
BRANCH   7   9
ATOM      9  N   UNL     1       4.181   4.618  18.479  0.00  0.00    +0.000 N 
ATOM     10  C   UNL     1       5.540   4.667  18.672  0.00  0.00    +0.000 C 
ATOM     11  O   UNL     1       6.217   4.954  19.640  0.00  0.00    +0.000 OA
ATOM     12  C   UNL     1       6.108   4.398  17.353  0.00  0.00    +0.000 A 
ATOM     13  C   UNL     1       7.227   4.994  16.817  0.00  0.00    +0.000 A 
ATOM     14  C   UNL     1       7.289   5.083  15.423  0.00  0.00    +0.000 A 
ATOM     15  C   UNL     1       6.276   4.533  14.610  0.00  0.00    +0.000 A 
ATOM     16  C   UNL     1       5.166   3.904  15.177  0.00  0.00    +0.000 A 
ATOM     17  C   UNL     1       5.102   3.888  16.557  0.00  0.00    +0.000 A 
ATOM     18  C   UNL     1       3.882   3.895  17.346  0.00  0.00    +0.000 C 
ATOM     19  O   UNL     1       2.833   3.420  16.953  0.00  0.00    +0.000 OA
ENDBRANCH   7   9
ENDBRANCH   1   3
BRANCH   1  20
ATOM     20  O   UNL     1       0.802   9.624  18.697  0.00  0.00    +0.000 OA
BRANCH  20  21
ATOM     21  C   UNL     1       0.952  11.033  18.920  0.00  0.00    +0.000 C 
BRANCH  21  23
ATOM     22  O   UNL     1      -0.825  12.474  19.645  0.00  0.00    +0.000 OA
ATOM     23  C   UNL     1      -0.037  11.583  19.944  0.00  0.00    +0.000 C 
ATOM     24  N   UNL     1       0.056  11.001  21.207  0.00  0.00    +0.000 N 
ATOM     25  C   UNL     1      -0.707  11.282  22.321  0.00  0.00    +0.000 C 
ATOM     26  O   UNL     1      -0.462  10.744  23.393  0.00  0.00    +0.000 OA
ATOM     27  N   UNL     1      -1.736  12.147  22.116  0.00  0.00    +0.000 N 
ATOM     28  H   UNL     1       0.731  10.262  21.355  0.00  0.00    +0.000 HD
ATOM     29  H   UNL     1      -1.730  12.649  21.231  0.00  0.00    +0.000 HD
BRANCH  27  30
ATOM     30  C   UNL     1      -2.678  12.585  23.136  0.00  0.00    +0.000 C 
ATOM     31  C   UNL     1      -4.058  12.768  22.486  0.00  0.00    +0.000 C 
ATOM     32  C   UNL     1      -5.080  13.382  23.433  0.00  0.00    +0.000 C 
ATOM     33  C   UNL     1      -4.566  14.688  24.029  0.00  0.00    +0.000 C 
ATOM     34  C   UNL     1      -3.231  14.475  24.739  0.00  0.00    +0.000 C 
ATOM     35  C   UNL     1      -2.184  13.874  23.807  0.00  0.00    +0.000 C 
ENDBRANCH  27  30
ENDBRANCH  21  23
ENDBRANCH  20  21
ENDBRANCH   1  20
TORSDOF 6
ENDMDL
MODEL 3
REMARK VINA RESULT:      -8.8      1.112      1.437
REMARK  Name = 
REMARK  6 active torsions:
REMARK  status: ('A' for Active; 'I' for Inactive)
REMARK    1  A    between atoms: C_2  and  C_3
REMARK    2  A    between atoms: C_3  and  O_4
REMARK    3  A    between atoms: O_4  and  C_5
REMARK    4  A    between atoms: C_5  and  C_7
REMARK    5  A    between atoms: C_11  and  N_12
REMARK    6  A    between atoms: N_27  and  C_28
REMARK                            x       y       z     vdW  Elec       q    Type
REMARK                         _______ _______ _______ _____ _____    ______ ____
ROOT
ATOM      1  C   UNL     1       1.747   8.027  20.099  0.00  0.00    +0.000 C 
ATOM      2  O   UNL     1       1.810   8.740  21.087  0.00  0.00    +0.000 OA
ENDROOT
BRANCH   1   3
ATOM      3  C   UNL     1       2.029   6.569  20.112  0.00  0.00    +0.000 A 
ATOM      4  C   UNL     1       1.179   5.716  20.814  0.00  0.00    +0.000 A 
ATOM      5  C   UNL     1       1.484   4.357  20.918  0.00  0.00    +0.000 A 
ATOM      6  C   UNL     1       2.596   3.832  20.258  0.00  0.00    +0.000 A 
ATOM      7  C   UNL     1       3.385   4.649  19.443  0.00  0.00    +0.000 A 
ATOM      8  C   UNL     1       3.124   6.032  19.432  0.00  0.00    +0.000 A 
BRANCH   7   9
ATOM      9  N   UNL     1       4.509   4.145  18.737  0.00  0.00    +0.000 N 
ATOM     10  C   UNL     1       5.773   4.667  18.869  0.00  0.00    +0.000 C 
ATOM     11  O   UNL     1       6.381   5.102  19.827  0.00  0.00    +0.000 OA
ATOM     12  C   UNL     1       6.290   4.727  17.503  0.00  0.00    +0.000 A 
ATOM     13  C   UNL     1       7.076   5.729  16.979  0.00  0.00    +0.000 A 
ATOM     14  C   UNL     1       6.988   5.944  15.601  0.00  0.00    +0.000 A 
ATOM     15  C   UNL     1       6.173   5.132  14.784  0.00  0.00    +0.000 A 
ATOM     16  C   UNL     1       5.410   4.101  15.336  0.00  0.00    +0.000 A 
ATOM     17  C   UNL     1       5.469   3.953  16.708  0.00  0.00    +0.000 A 
ATOM     18  C   UNL     1       4.395   3.456  17.551  0.00  0.00    +0.000 C 
ATOM     19  O   UNL     1       3.555   2.666  17.161  0.00  0.00    +0.000 OA
ENDBRANCH   7   9
ENDBRANCH   1   3
BRANCH   1  20
ATOM     20  O   UNL     1       1.467   8.464  18.852  0.00  0.00    +0.000 OA
BRANCH  20  21
ATOM     21  C   UNL     1       1.253   9.878  18.742  0.00  0.00    +0.000 C 
BRANCH  21  23
ATOM     22  O   UNL     1      -0.854  10.185  19.848  0.00  0.00    +0.000 OA
ATOM     23  C   UNL     1      -0.222  10.264  18.801  0.00  0.00    +0.000 C 
ATOM     24  N   UNL     1      -0.758  10.684  17.584  0.00  0.00    +0.000 N 
ATOM     25  C   UNL     1      -2.047  11.104  17.333  0.00  0.00    +0.000 C 
ATOM     26  O   UNL     1      -2.402  11.373  16.193  0.00  0.00    +0.000 OA
ATOM     27  N   UNL     1      -2.843  11.221  18.430  0.00  0.00    +0.000 N 
ATOM     28  H   UNL     1      -0.153  10.729  16.775  0.00  0.00    +0.000 HD
ATOM     29  H   UNL     1      -2.486  10.809  19.289  0.00  0.00    +0.000 HD
BRANCH  27  30
ATOM     30  C   UNL     1      -4.234  11.651  18.413  0.00  0.00    +0.000 C 
ATOM     31  C   UNL     1      -4.517  12.449  19.695  0.00  0.00    +0.000 C 
ATOM     32  C   UNL     1      -5.989  12.807  19.855  0.00  0.00    +0.000 C 
ATOM     33  C   UNL     1      -6.872  11.568  19.762  0.00  0.00    +0.000 C 
ATOM     34  C   UNL     1      -6.636  10.827  18.447  0.00  0.00    +0.000 C 
ATOM     35  C   UNL     1      -5.170  10.443  18.271  0.00  0.00    +0.000 C 
ENDBRANCH  27  30
ENDBRANCH  21  23
ENDBRANCH  20  21
ENDBRANCH   1  20
TORSDOF 6
ENDMDL
MODEL 4
REMARK VINA RESULT:      -8.6      3.166      4.283
REMARK  Name = 
REMARK  6 active torsions:
REMARK  status: ('A' for Active; 'I' for Inactive)
REMARK    1  A    between atoms: C_2  and  C_3
REMARK    2  A    between atoms: C_3  and  O_4
REMARK    3  A    between atoms: O_4  and  C_5
REMARK    4  A    between atoms: C_5  and  C_7
REMARK    5  A    between atoms: C_11  and  N_12
REMARK    6  A    between atoms: N_27  and  C_28
REMARK                            x       y       z     vdW  Elec       q    Type
REMARK                         _______ _______ _______ _____ _____    ______ ____
ROOT
ATOM      1  C   UNL     1       1.864   8.865  18.588  0.00  0.00    +0.000 C 
ATOM      2  O   UNL     1       2.317   9.245  17.520  0.00  0.00    +0.000 OA
ENDROOT
BRANCH   1   3
ATOM      3  C   UNL     1       2.135   7.528  19.173  0.00  0.00    +0.000 A 
ATOM      4  C   UNL     1       1.456   7.138  20.327  0.00  0.00    +0.000 A 
ATOM      5  C   UNL     1       1.770   5.927  20.945  0.00  0.00    +0.000 A 
ATOM      6  C   UNL     1       2.708   5.065  20.374  0.00  0.00    +0.000 A 
ATOM      7  C   UNL     1       3.303   5.381  19.148  0.00  0.00    +0.000 A 
ATOM      8  C   UNL     1       3.052   6.650  18.592  0.00  0.00    +0.000 A 
BRANCH   7   9
ATOM      9  N   UNL     1       4.242   4.519  18.525  0.00  0.00    +0.000 N 
ATOM     10  C   UNL     1       5.599   4.644  18.689  0.00  0.00    +0.000 C 
ATOM     11  O   UNL     1       6.281   4.937  19.652  0.00  0.00    +0.000 OA
ATOM     12  C   UNL     1       6.151   4.459  17.349  0.00  0.00    +0.000 A 
ATOM     13  C   UNL     1       7.219   5.142  16.811  0.00  0.00    +0.000 A 
ATOM     14  C   UNL     1       7.241   5.285  15.421  0.00  0.00    +0.000 A 
ATOM     15  C   UNL     1       6.244   4.703  14.610  0.00  0.00    +0.000 A 
ATOM     16  C   UNL     1       5.188   3.988  15.177  0.00  0.00    +0.000 A 
ATOM     17  C   UNL     1       5.159   3.917  16.556  0.00  0.00    +0.000 A 
ATOM     18  C   UNL     1       3.960   3.821  17.372  0.00  0.00    +0.000 C 
ATOM     19  O   UNL     1       2.932   3.296  16.984  0.00  0.00    +0.000 OA
ENDBRANCH   7   9
ENDBRANCH   1   3
BRANCH   1  20
ATOM     20  O   UNL     1       1.017   9.580  19.361  0.00  0.00    +0.000 OA
BRANCH  20  21
ATOM     21  C   UNL     1      -0.058  10.213  18.653  0.00  0.00    +0.000 C 
BRANCH  21  23
ATOM     22  O   UNL     1      -0.974  12.407  18.977  0.00  0.00    +0.000 OA
ATOM     23  C   UNL     1       0.013  11.736  18.697  0.00  0.00    +0.000 C 
ATOM     24  N   UNL     1       1.265  12.265  18.385  0.00  0.00    +0.000 N 
ATOM     25  C   UNL     1       1.633  13.593  18.354  0.00  0.00    +0.000 C 
ATOM     26  O   UNL     1       2.754  13.919  17.985  0.00  0.00    +0.000 OA
ATOM     27  N   UNL     1       0.687  14.468  18.790  0.00  0.00    +0.000 N 
ATOM     28  H   UNL     1       2.025  11.630  18.180  0.00  0.00    +0.000 HD
ATOM     29  H   UNL     1      -0.252  14.091  18.908  0.00  0.00    +0.000 HD
BRANCH  27  30
ATOM     30  C   UNL     1       0.849  15.913  18.855  0.00  0.00    +0.000 C 
ATOM     31  C   UNL     1       1.140  16.310  20.311  0.00  0.00    +0.000 C 
ATOM     32  C   UNL     1       1.164  17.818  20.518  0.00  0.00    +0.000 C 
ATOM     33  C   UNL     1      -0.117  18.467  20.009  0.00  0.00    +0.000 C 
ATOM     34  C   UNL     1      -0.354  18.127  18.539  0.00  0.00    +0.000 C 
ATOM     35  C   UNL     1      -0.398  16.621  18.307  0.00  0.00    +0.000 C 
ENDBRANCH  27  30
ENDBRANCH  21  23
ENDBRANCH  20  21
ENDBRANCH   1  20
TORSDOF 6
ENDMDL
MODEL 5
REMARK VINA RESULT:      -8.5      2.692      3.310
REMARK  Name = 
REMARK  6 active torsions:
REMARK  status: ('A' for Active; 'I' for Inactive)
REMARK    1  A    between atoms: C_2  and  C_3
REMARK    2  A    between atoms: C_3  and  O_4
REMARK    3  A    between atoms: O_4  and  C_5
REMARK    4  A    between atoms: C_5  and  C_7
REMARK    5  A    between atoms: C_11  and  N_12
REMARK    6  A    between atoms: N_27  and  C_28
REMARK                            x       y       z     vdW  Elec       q    Type
REMARK                         _______ _______ _______ _____ _____    ______ ____
ROOT
ATOM      1  C   UNL     1       1.948   8.735  18.376  0.00  0.00    +0.000 C 
ATOM      2  O   UNL     1       2.397   9.104  17.303  0.00  0.00    +0.000 OA
ENDROOT
BRANCH   1   3
ATOM      3  C   UNL     1       2.247   7.415  18.987  0.00  0.00    +0.000 A 
ATOM      4  C   UNL     1       1.629   7.063  20.186  0.00  0.00    +0.000 A 
ATOM      5  C   UNL     1       1.973   5.870  20.824  0.00  0.00    +0.000 A 
ATOM      6  C   UNL     1       2.879   4.989  20.231  0.00  0.00    +0.000 A 
ATOM      7  C   UNL     1       3.410   5.265  18.968  0.00  0.00    +0.000 A 
ATOM      8  C   UNL     1       3.132   6.517  18.387  0.00  0.00    +0.000 A 
BRANCH   7   9
ATOM      9  N   UNL     1       4.314   4.382  18.323  0.00  0.00    +0.000 N 
ATOM     10  C   UNL     1       5.677   4.456  18.481  0.00  0.00    +0.000 C 
ATOM     11  O   UNL     1       6.374   4.708  19.444  0.00  0.00    +0.000 OA
ATOM     12  C   UNL     1       6.214   4.276  17.134  0.00  0.00    +0.000 A 
ATOM     13  C   UNL     1       7.301   4.930  16.602  0.00  0.00    +0.000 A 
ATOM     14  C   UNL     1       7.321   5.097  15.214  0.00  0.00    +0.000 A 
ATOM     15  C   UNL     1       6.299   4.565  14.400  0.00  0.00    +0.000 A 
ATOM     16  C   UNL     1       5.222   3.877  14.961  0.00  0.00    +0.000 A 
ATOM     17  C   UNL     1       5.198   3.783  16.339  0.00  0.00    +0.000 A 
ATOM     18  C   UNL     1       4.001   3.715  17.160  0.00  0.00    +0.000 C 
ATOM     19  O   UNL     1       2.954   3.234  16.770  0.00  0.00    +0.000 OA
ENDBRANCH   7   9
ENDBRANCH   1   3
BRANCH   1  20
ATOM     20  O   UNL     1       1.081   9.444  19.132  0.00  0.00    +0.000 OA
BRANCH  20  21
ATOM     21  C   UNL     1       0.149  10.244  18.392  0.00  0.00    +0.000 C 
BRANCH  21  23
ATOM     22  O   UNL     1      -1.982  11.208  18.928  0.00  0.00    +0.000 OA
ATOM     23  C   UNL     1      -0.827  11.003  19.286  0.00  0.00    +0.000 C 
ATOM     24  N   UNL     1      -0.287  11.433  20.496  0.00  0.00    +0.000 N 
ATOM     25  C   UNL     1      -0.925  12.126  21.503  0.00  0.00    +0.000 C 
ATOM     26  O   UNL     1      -0.302  12.510  22.485  0.00  0.00    +0.000 OA
ATOM     27  N   UNL     1      -2.262  12.303  21.329  0.00  0.00    +0.000 N 
ATOM     28  H   UNL     1       0.675  11.205  20.709  0.00  0.00    +0.000 HD
ATOM     29  H   UNL     1      -2.625  12.089  20.402  0.00  0.00    +0.000 HD
BRANCH  27  30
ATOM     30  C   UNL     1      -3.144  12.994  22.258  0.00  0.00    +0.000 C 
ATOM     31  C   UNL     1      -2.623  14.426  22.458  0.00  0.00    +0.000 C 
ATOM     32  C   UNL     1      -3.380  15.184  23.540  0.00  0.00    +0.000 C 
ATOM     33  C   UNL     1      -3.396  14.407  24.851  0.00  0.00    +0.000 C 
ATOM     34  C   UNL     1      -3.988  13.014  24.653  0.00  0.00    +0.000 C 
ATOM     35  C   UNL     1      -3.236  12.227  23.585  0.00  0.00    +0.000 C 
ENDBRANCH  27  30
ENDBRANCH  21  23
ENDBRANCH  20  21
ENDBRANCH   1  20
TORSDOF 6
ENDMDL
MODEL 6
REMARK VINA RESULT:      -8.5      5.991      9.725
REMARK  Name = 
REMARK  6 active torsions:
REMARK  status: ('A' for Active; 'I' for Inactive)
REMARK    1  A    between atoms: C_2  and  C_3
REMARK    2  A    between atoms: C_3  and  O_4
REMARK    3  A    between atoms: O_4  and  C_5
REMARK    4  A    between atoms: C_5  and  C_7
REMARK    5  A    between atoms: C_11  and  N_12
REMARK    6  A    between atoms: N_27  and  C_28
REMARK                            x       y       z     vdW  Elec       q    Type
REMARK                         _______ _______ _______ _____ _____    ______ ____
ROOT
ATOM      1  C   UNL     1       7.729   6.023  18.424  0.00  0.00    +0.000 C 
ATOM      2  O   UNL     1       8.257   5.494  19.389  0.00  0.00    +0.000 OA
ENDROOT
BRANCH   1   3
ATOM      3  C   UNL     1       6.783   5.329  17.515  0.00  0.00    +0.000 A 
ATOM      4  C   UNL     1       7.221   4.919  16.257  0.00  0.00    +0.000 A 
ATOM      5  C   UNL     1       6.320   4.354  15.353  0.00  0.00    +0.000 A 
ATOM      6  C   UNL     1       4.994   4.127  15.729  0.00  0.00    +0.000 A 
ATOM      7  C   UNL     1       4.570   4.412  17.030  0.00  0.00    +0.000 A 
ATOM      8  C   UNL     1       5.463   5.074  17.893  0.00  0.00    +0.000 A 
BRANCH   7   9
ATOM      9  N   UNL     1       3.237   4.172  17.455  0.00  0.00    +0.000 N 
ATOM     10  C   UNL     1       2.465   5.123  18.076  0.00  0.00    +0.000 C 
ATOM     11  O   UNL     1       2.355   6.322  17.910  0.00  0.00    +0.000 OA
ATOM     12  C   UNL     1       1.806   4.406  19.166  0.00  0.00    +0.000 A 
ATOM     13  C   UNL     1       1.557   4.902  20.426  0.00  0.00    +0.000 A 
ATOM     14  C   UNL     1       1.482   3.971  21.467  0.00  0.00    +0.000 A 
ATOM     15  C   UNL     1       1.600   2.587  21.219  0.00  0.00    +0.000 A 
ATOM     16  C   UNL     1       1.820   2.107  19.927  0.00  0.00    +0.000 A 
ATOM     17  C   UNL     1       1.952   3.054  18.930  0.00  0.00    +0.000 A 
ATOM     18  C   UNL     1       2.760   2.910  17.730  0.00  0.00    +0.000 C 
ATOM     19  O   UNL     1       2.990   1.835  17.209  0.00  0.00    +0.000 OA
ENDBRANCH   7   9
ENDBRANCH   1   3
BRANCH   1  20
ATOM     20  O   UNL     1       7.967   7.289  18.015  0.00  0.00    +0.000 OA
BRANCH  20  21
ATOM     21  C   UNL     1       8.711   8.092  18.941  0.00  0.00    +0.000 C 
BRANCH  21  23
ATOM     22  O   UNL     1       8.139   9.979  17.573  0.00  0.00    +0.000 OA
ATOM     23  C   UNL     1       8.707   9.575  18.582  0.00  0.00    +0.000 C 
ATOM     24  N   UNL     1       9.402  10.388  19.476  0.00  0.00    +0.000 N 
ATOM     25  C   UNL     1       9.560  11.757  19.420  0.00  0.00    +0.000 C 
ATOM     26  O   UNL     1      10.266  12.334  20.237  0.00  0.00    +0.000 OA
ATOM     27  N   UNL     1       8.858  12.382  18.438  0.00  0.00    +0.000 N 
ATOM     28  H   UNL     1       9.829   9.964  20.289  0.00  0.00    +0.000 HD
ATOM     29  H   UNL     1       8.448  11.780  17.727  0.00  0.00    +0.000 HD
BRANCH  27  30
ATOM     30  C   UNL     1       8.861  13.817  18.190  0.00  0.00    +0.000 C 
ATOM     31  C   UNL     1      10.278  14.241  17.773  0.00  0.00    +0.000 C 
ATOM     32  C   UNL     1      10.429  15.751  17.649  0.00  0.00    +0.000 C 
ATOM     33  C   UNL     1       9.987  16.458  18.925  0.00  0.00    +0.000 C 
ATOM     34  C   UNL     1       8.550  16.087  19.285  0.00  0.00    +0.000 C 
ATOM     35  C   UNL     1       8.375  14.579  19.431  0.00  0.00    +0.000 C 
ENDBRANCH  27  30
ENDBRANCH  21  23
ENDBRANCH  20  21
ENDBRANCH   1  20
TORSDOF 6
ENDMDL
MODEL 7
REMARK VINA RESULT:      -8.5      3.125      4.274
REMARK  Name = 
REMARK  6 active torsions:
REMARK  status: ('A' for Active; 'I' for Inactive)
REMARK    1  A    between atoms: C_2  and  C_3
REMARK    2  A    between atoms: C_3  and  O_4
REMARK    3  A    between atoms: O_4  and  C_5
REMARK    4  A    between atoms: C_5  and  C_7
REMARK    5  A    between atoms: C_11  and  N_12
REMARK    6  A    between atoms: N_27  and  C_28
REMARK                            x       y       z     vdW  Elec       q    Type
REMARK                         _______ _______ _______ _____ _____    ______ ____
ROOT
ATOM      1  C   UNL     1       1.787   8.083  19.876  0.00  0.00    +0.000 C 
ATOM      2  O   UNL     1       1.722   8.667  18.807  0.00  0.00    +0.000 OA
ENDROOT
BRANCH   1   3
ATOM      3  C   UNL     1       2.125   6.643  20.014  0.00  0.00    +0.000 A 
ATOM      4  C   UNL     1       1.341   5.834  20.835  0.00  0.00    +0.000 A 
ATOM      5  C   UNL     1       1.701   4.504  21.053  0.00  0.00    +0.000 A 
ATOM      6  C   UNL     1       2.803   3.955  20.394  0.00  0.00    +0.000 A 
ATOM      7  C   UNL     1       3.523   4.715  19.468  0.00  0.00    +0.000 A 
ATOM      8  C   UNL     1       3.209   6.081  19.338  0.00  0.00    +0.000 A 
BRANCH   7   9
ATOM      9  N   UNL     1       4.633   4.183  18.760  0.00  0.00    +0.000 N 
ATOM     10  C   UNL     1       5.895   4.721  18.831  0.00  0.00    +0.000 C 
ATOM     11  O   UNL     1       6.523   5.211  19.749  0.00  0.00    +0.000 OA
ATOM     12  C   UNL     1       6.375   4.714  17.451  0.00  0.00    +0.000 A 
ATOM     13  C   UNL     1       7.138   5.692  16.855  0.00  0.00    +0.000 A 
ATOM     14  C   UNL     1       7.013   5.834  15.469  0.00  0.00    +0.000 A 
ATOM     15  C   UNL     1       6.185   4.972  14.719  0.00  0.00    +0.000 A 
ATOM     16  C   UNL     1       5.446   3.967  15.343  0.00  0.00    +0.000 A 
ATOM     17  C   UNL     1       5.542   3.892  16.719  0.00  0.00    +0.000 A 
ATOM     18  C   UNL     1       4.494   3.432  17.615  0.00  0.00    +0.000 C 
ATOM     19  O   UNL     1       3.652   2.616  17.290  0.00  0.00    +0.000 OA
ENDBRANCH   7   9
ENDBRANCH   1   3
BRANCH   1  20
ATOM     20  O   UNL     1       1.514   8.642  21.076  0.00  0.00    +0.000 OA
BRANCH  20  21
ATOM     21  C   UNL     1       0.294   9.395  21.127  0.00  0.00    +0.000 C 
BRANCH  21  23
ATOM     22  O   UNL     1       1.158  11.617  21.395  0.00  0.00    +0.000 OA
ATOM     23  C   UNL     1       0.475  10.854  20.720  0.00  0.00    +0.000 C 
ATOM     24  N   UNL     1      -0.202  11.217  19.557  0.00  0.00    +0.000 N 
ATOM     25  C   UNL     1      -0.216  12.452  18.944  0.00  0.00    +0.000 C 
ATOM     26  O   UNL     1      -0.921  12.650  17.963  0.00  0.00    +0.000 OA
ATOM     27  N   UNL     1       0.620  13.379  19.485  0.00  0.00    +0.000 N 
ATOM     28  H   UNL     1      -0.731  10.513  19.061  0.00  0.00    +0.000 HD
ATOM     29  H   UNL     1       1.021  13.146  20.391  0.00  0.00    +0.000 HD
BRANCH  27  30
ATOM     30  C   UNL     1       0.780  14.744  19.005  0.00  0.00    +0.000 C 
ATOM     31  C   UNL     1       2.222  14.923  18.506  0.00  0.00    +0.000 C 
ATOM     32  C   UNL     1       2.543  16.364  18.133  0.00  0.00    +0.000 C 
ATOM     33  C   UNL     1       2.227  17.316  19.281  0.00  0.00    +0.000 C 
ATOM     34  C   UNL     1       0.769  17.182  19.715  0.00  0.00    +0.000 C 
ATOM     35  C   UNL     1       0.426  15.749  20.109  0.00  0.00    +0.000 C 
ENDBRANCH  27  30
ENDBRANCH  21  23
ENDBRANCH  20  21
ENDBRANCH   1  20
TORSDOF 6
ENDMDL
MODEL 8
REMARK VINA RESULT:      -8.5      4.056     12.022
REMARK  Name = 
REMARK  6 active torsions:
REMARK  status: ('A' for Active; 'I' for Inactive)
REMARK    1  A    between atoms: C_2  and  C_3
REMARK    2  A    between atoms: C_3  and  O_4
REMARK    3  A    between atoms: O_4  and  C_5
REMARK    4  A    between atoms: C_5  and  C_7
REMARK    5  A    between atoms: C_11  and  N_12
REMARK    6  A    between atoms: N_27  and  C_28
REMARK                            x       y       z     vdW  Elec       q    Type
REMARK                         _______ _______ _______ _____ _____    ______ ____
ROOT
ATOM      1  C   UNL     1       0.890   9.754  21.876  0.00  0.00    +0.000 C 
ATOM      2  O   UNL     1       1.417   9.587  22.964  0.00  0.00    +0.000 OA
ENDROOT
BRANCH   1   3
ATOM      3  C   UNL     1      -0.204  10.726  21.626  0.00  0.00    +0.000 A 
ATOM      4  C   UNL     1      -0.671  10.909  20.326  0.00  0.00    +0.000 A 
ATOM      5  C   UNL     1      -1.630  11.888  20.060  0.00  0.00    +0.000 A 
ATOM      6  C   UNL     1      -2.180  12.637  21.101  0.00  0.00    +0.000 A 
ATOM      7  C   UNL     1      -1.818  12.378  22.426  0.00  0.00    +0.000 A 
ATOM      8  C   UNL     1      -0.778  11.460  22.666  0.00  0.00    +0.000 A 
BRANCH   7   9
ATOM      9  N   UNL     1      -2.375  13.102  23.513  0.00  0.00    +0.000 N 
ATOM     10  C   UNL     1      -3.681  12.966  23.914  0.00  0.00    +0.000 C 
ATOM     11  O   UNL     1      -4.417  12.001  23.985  0.00  0.00    +0.000 OA
ATOM     12  C   UNL     1      -4.134  14.333  24.165  0.00  0.00    +0.000 A 
ATOM     13  C   UNL     1      -5.382  14.838  23.877  0.00  0.00    +0.000 A 
ATOM     14  C   UNL     1      -5.465  16.210  23.625  0.00  0.00    +0.000 A 
ATOM     15  C   UNL     1      -4.328  17.041  23.718  0.00  0.00    +0.000 A 
ATOM     16  C   UNL     1      -3.079  16.509  24.042  0.00  0.00    +0.000 A 
ATOM     17  C   UNL     1      -3.016  15.142  24.225  0.00  0.00    +0.000 A 
ATOM     18  C   UNL     1      -1.862  14.304  23.947  0.00  0.00    +0.000 C 
ATOM     19  O   UNL     1      -0.716  14.707  24.016  0.00  0.00    +0.000 OA
ENDBRANCH   7   9
ENDBRANCH   1   3
BRANCH   1  20
ATOM     20  O   UNL     1       1.187   9.050  20.762  0.00  0.00    +0.000 OA
BRANCH  20  21
ATOM     21  C   UNL     1       1.202   7.626  20.934  0.00  0.00    +0.000 C 
BRANCH  21  23
ATOM     22  O   UNL     1       2.555   7.459  18.959  0.00  0.00    +0.000 OA
ATOM     23  C   UNL     1       2.174   6.921  19.993  0.00  0.00    +0.000 C 
ATOM     24  N   UNL     1       2.557   5.646  20.407  0.00  0.00    +0.000 N 
ATOM     25  C   UNL     1       3.426   4.782  19.775  0.00  0.00    +0.000 C 
ATOM     26  O   UNL     1       3.612   3.655  20.216  0.00  0.00    +0.000 OA
ATOM     27  N   UNL     1       4.059   5.290  18.684  0.00  0.00    +0.000 N 
ATOM     28  H   UNL     1       2.199   5.291  21.284  0.00  0.00    +0.000 HD
ATOM     29  H   UNL     1       3.695   6.170  18.324  0.00  0.00    +0.000 HD
BRANCH  27  30
ATOM     30  C   UNL     1       5.022   4.570  17.863  0.00  0.00    +0.000 C 
ATOM     31  C   UNL     1       6.429   5.100  18.178  0.00  0.00    +0.000 C 
ATOM     32  C   UNL     1       7.496   4.528  17.254  0.00  0.00    +0.000 C 
ATOM     33  C   UNL     1       7.133   4.744  15.790  0.00  0.00    +0.000 C 
ATOM     34  C   UNL     1       5.765   4.144  15.472  0.00  0.00    +0.000 C 
ATOM     35  C   UNL     1       4.675   4.713  16.375  0.00  0.00    +0.000 C 
ENDBRANCH  27  30
ENDBRANCH  21  23
ENDBRANCH  20  21
ENDBRANCH   1  20
TORSDOF 6
ENDMDL
MODEL 9
REMARK VINA RESULT:      -8.4      2.569      2.978
REMARK  Name = 
REMARK  6 active torsions:
REMARK  status: ('A' for Active; 'I' for Inactive)
REMARK    1  A    between atoms: C_2  and  C_3
REMARK    2  A    between atoms: C_3  and  O_4
REMARK    3  A    between atoms: O_4  and  C_5
REMARK    4  A    between atoms: C_5  and  C_7
REMARK    5  A    between atoms: C_11  and  N_12
REMARK    6  A    between atoms: N_27  and  C_28
REMARK                            x       y       z     vdW  Elec       q    Type
REMARK                         _______ _______ _______ _____ _____    ______ ____
ROOT
ATOM      1  C   UNL     1       1.900   9.118  18.150  0.00  0.00    +0.000 C 
ATOM      2  O   UNL     1       2.732   9.676  17.453  0.00  0.00    +0.000 OA
ENDROOT
BRANCH   1   3
ATOM      3  C   UNL     1       2.146   7.844  18.872  0.00  0.00    +0.000 A 
ATOM      4  C   UNL     1       1.497   7.609  20.083  0.00  0.00    +0.000 A 
ATOM      5  C   UNL     1       1.790   6.462  20.821  0.00  0.00    +0.000 A 
ATOM      6  C   UNL     1       2.677   5.507  20.318  0.00  0.00    +0.000 A 
ATOM      7  C   UNL     1       3.237   5.664  19.047  0.00  0.00    +0.000 A 
ATOM      8  C   UNL     1       3.010   6.873  18.362  0.00  0.00    +0.000 A 
BRANCH   7   9
ATOM      9  N   UNL     1       4.123   4.703  18.493  0.00  0.00    +0.000 N 
ATOM     10  C   UNL     1       5.480   4.724  18.705  0.00  0.00    +0.000 C 
ATOM     11  O   UNL     1       6.149   4.999  19.682  0.00  0.00    +0.000 OA
ATOM     12  C   UNL     1       6.061   4.440  17.395  0.00  0.00    +0.000 A 
ATOM     13  C   UNL     1       7.200   5.011  16.874  0.00  0.00    +0.000 A 
ATOM     14  C   UNL     1       7.284   5.095  15.481  0.00  0.00    +0.000 A 
ATOM     15  C   UNL     1       6.271   4.565  14.655  0.00  0.00    +0.000 A 
ATOM     16  C   UNL     1       5.140   3.961  15.207  0.00  0.00    +0.000 A 
ATOM     17  C   UNL     1       5.056   3.949  16.586  0.00  0.00    +0.000 A 
ATOM     18  C   UNL     1       3.825   3.984  17.357  0.00  0.00    +0.000 C 
ATOM     19  O   UNL     1       2.772   3.531  16.950  0.00  0.00    +0.000 OA
ENDBRANCH   7   9
ENDBRANCH   1   3
BRANCH   1  20
ATOM     20  O   UNL     1       0.631   9.547  18.325  0.00  0.00    +0.000 OA
BRANCH  20  21
ATOM     21  C   UNL     1       0.476  10.972  18.367  0.00  0.00    +0.000 C 
BRANCH  21  23
ATOM     22  O   UNL     1      -0.036  11.486  20.655  0.00  0.00    +0.000 OA
ATOM     23  C   UNL     1      -0.437  11.440  19.497  0.00  0.00    +0.000 C 
ATOM     24  N   UNL     1      -1.727  11.780  19.094  0.00  0.00    +0.000 N 
ATOM     25  C   UNL     1      -2.760  12.244  19.881  0.00  0.00    +0.000 C 
ATOM     26  O   UNL     1      -3.871  12.431  19.402  0.00  0.00    +0.000 OA
ATOM     27  N   UNL     1      -2.433  12.498  21.177  0.00  0.00    +0.000 N 
ATOM     28  H   UNL     1      -1.962  11.722  18.112  0.00  0.00    +0.000 HD
ATOM     29  H   UNL     1      -1.531  12.144  21.489  0.00  0.00    +0.000 HD
BRANCH  27  30
ATOM     30  C   UNL     1      -3.351  12.998  22.189  0.00  0.00    +0.000 C 
ATOM     31  C   UNL     1      -3.098  14.501  22.384  0.00  0.00    +0.000 C 
ATOM     32  C   UNL     1      -3.894  15.089  23.540  0.00  0.00    +0.000 C 
ATOM     33  C   UNL     1      -3.655  14.312  24.829  0.00  0.00    +0.000 C 
ATOM     34  C   UNL     1      -3.986  12.832  24.643  0.00  0.00    +0.000 C 
ATOM     35  C   UNL     1      -3.188  12.215  23.499  0.00  0.00    +0.000 C 
ENDBRANCH  27  30
ENDBRANCH  21  23
ENDBRANCH  20  21
ENDBRANCH   1  20
TORSDOF 6
ENDMDL
