MODEL 1
REMARK VINA RESULT:      -8.5      0.000      0.000
REMARK  Name = 
REMARK  9 active torsions:
REMARK  status: ('A' for Active; 'I' for Inactive)
REMARK    1  A    between atoms: C_1  and  C_2
REMARK    2  A    between atoms: C_6  and  C_7
REMARK    3  A    between atoms: N_9  and  C_10
REMARK    4  A    between atoms: C_14  and  C_15
REMARK    5  A    between atoms: C_15  and  C_16
REMARK    6  A    between atoms: C_15  and  C_17
REMARK    7  A    between atoms: C_17  and  C_18
REMARK    8  A    between atoms: N_22  and  C_23
REMARK    9  A    between atoms: C_24  and  C_25
REMARK                            x       y       z     vdW  Elec       q    Type
REMARK                         _______ _______ _______ _____ _____    ______ ____
ROOT
ATOM      1  C   UNL     1       2.238   7.584  19.155  0.00  0.00    +0.000 A 
ATOM      2  C   UNL     1       2.853   8.196  18.052  0.00  0.00    +0.000 A 
ATOM      3  C   UNL     1       3.553   7.461  17.103  0.00  0.00    +0.000 A 
ATOM      4  C   UNL     1       3.703   6.096  17.267  0.00  0.00    +0.000 A 
ATOM      5  C   UNL     1       3.156   5.433  18.383  0.00  0.00    +0.000 A 
ATOM      6  C   UNL     1       2.378   6.185  19.326  0.00  0.00    +0.000 A 
ENDROOT
BRANCH   1   9
ATOM      7  C   UNL     1       0.663   9.426  19.782  0.00  0.00    +0.000 C 
ATOM      8  O   UNL     1       0.332   9.790  18.655  0.00  0.00    +0.000 OA
ATOM      9  N   UNL     1       1.515   8.380  20.085  0.00  0.00    +0.000 N 
ATOM     10  H   UNL     1       1.542   8.137  21.079  0.00  0.00    +0.000 HD
BRANCH   7  16
ATOM     11  C   UNL     1      -1.006  13.659  21.788  0.00  0.00    +0.000 C 
ATOM     12  C   UNL     1      -0.740  12.189  21.910  0.00  0.00    +0.000 A 
ATOM     13  C   UNL     1      -1.039  11.467  23.065  0.00  0.00    +0.000 A 
ATOM     14  C   UNL     1      -0.765  10.101  23.088  0.00  0.00    +0.000 A 
ATOM     15  N   UNL     1      -0.227   9.409  22.057  0.00  0.00    +0.000 NA
ATOM     16  C   UNL     1       0.060  10.140  20.947  0.00  0.00    +0.000 A 
ATOM     17  C   UNL     1      -0.178  11.507  20.835  0.00  0.00    +0.000 A 
ENDBRANCH   7  16
ENDBRANCH   1   9
BRANCH   6  18
ATOM     18  C   UNL     1       1.666   5.463  20.449  0.00  0.00    +0.000 C 
ATOM     19  F   UNL     1       2.480   4.804  21.326  0.00  0.00    +0.000 F 
ATOM     20  F   UNL     1       0.935   6.317  21.227  0.00  0.00    +0.000 F 
ATOM     21  F   UNL     1       0.777   4.521  20.017  0.00  0.00    +0.000 F 
ENDBRANCH   6  18
BRANCH   5  22
ATOM     22  C   UNL     1       3.481   3.944  18.560  0.00  0.00    +0.000 C 
ATOM     23  C   UNL     1       2.402   3.047  17.934  0.00  0.00    +0.000 C 
BRANCH  22  24
ATOM     24  C   UNL     1       4.869   3.567  17.980  0.00  0.00    +0.000 C 
BRANCH  24  25
ATOM     25  C   UNL     1       5.971   4.405  18.536  0.00  0.00    +0.000 A 
ATOM     26  N   UNL     1       6.112   4.770  19.793  0.00  0.00    +0.000 NA
ATOM     27  N   UNL     1       7.274   5.495  19.905  0.00  0.00    +0.000 NA
ATOM     28  C   UNL     1       7.811   5.568  18.710  0.00  0.00    +0.000 A 
ATOM     29  N   UNL     1       7.015   4.924  17.815  0.00  0.00    +0.000 N 
ATOM     30  C   UNL     1       7.238   4.831  16.399  0.00  0.00    +0.000 C 
ENDBRANCH  24  25
ENDBRANCH  22  24
ENDBRANCH   5  22
TORSDOF 6
ENDMDL
MODEL 2
REMARK VINA RESULT:      -8.3      3.078      4.351
REMARK  Name = 
REMARK  9 active torsions:
REMARK  status: ('A' for Active; 'I' for Inactive)
REMARK    1  A    between atoms: C_1  and  C_2
REMARK    2  A    between atoms: C_6  and  C_7
REMARK    3  A    between atoms: N_9  and  C_10
REMARK    4  A    between atoms: C_14  and  C_15
REMARK    5  A    between atoms: C_15  and  C_16
REMARK    6  A    between atoms: C_15  and  C_17
REMARK    7  A    between atoms: C_17  and  C_18
REMARK    8  A    between atoms: N_22  and  C_23
REMARK    9  A    between atoms: C_24  and  C_25
REMARK                            x       y       z     vdW  Elec       q    Type
REMARK                         _______ _______ _______ _____ _____    ______ ____
ROOT
ATOM      1  C   UNL     1       2.896   5.747  18.188  0.00  0.00    +0.000 A 
ATOM      2  C   UNL     1       2.289   4.489  18.319  0.00  0.00    +0.000 A 
ATOM      3  C   UNL     1       2.909   3.327  17.880  0.00  0.00    +0.000 A 
ATOM      4  C   UNL     1       4.136   3.402  17.245  0.00  0.00    +0.000 A 
ATOM      5  C   UNL     1       4.770   4.642  17.035  0.00  0.00    +0.000 A 
ATOM      6  C   UNL     1       4.157   5.832  17.548  0.00  0.00    +0.000 A 
ENDROOT
BRANCH   1   9
ATOM      7  C   UNL     1       1.875   7.156  19.988  0.00  0.00    +0.000 C 
ATOM      8  O   UNL     1       2.152   6.458  20.961  0.00  0.00    +0.000 OA
ATOM      9  N   UNL     1       2.228   6.903  18.675  0.00  0.00    +0.000 N 
ATOM     10  H   UNL     1       2.040   7.680  18.035  0.00  0.00    +0.000 HD
BRANCH   7  16
ATOM     11  C   UNL     1      -0.668  10.066  23.117  0.00  0.00    +0.000 C 
ATOM     12  C   UNL     1      -0.101   9.824  21.751  0.00  0.00    +0.000 A 
ATOM     13  C   UNL     1      -0.238  10.741  20.710  0.00  0.00    +0.000 A 
ATOM     14  C   UNL     1       0.330  10.438  19.473  0.00  0.00    +0.000 A 
ATOM     15  N   UNL     1       1.019   9.304  19.203  0.00  0.00    +0.000 NA
ATOM     16  C   UNL     1       1.131   8.427  20.235  0.00  0.00    +0.000 A 
ATOM     17  C   UNL     1       0.597   8.645  21.502  0.00  0.00    +0.000 A 
ENDBRANCH   7  16
ENDBRANCH   1   9
BRANCH   6  18
ATOM     18  C   UNL     1       4.895   7.151  17.455  0.00  0.00    +0.000 C 
ATOM     19  F   UNL     1       6.075   7.207  18.139  0.00  0.00    +0.000 F 
ATOM     20  F   UNL     1       5.221   7.468  16.166  0.00  0.00    +0.000 F 
ATOM     21  F   UNL     1       4.171   8.215  17.914  0.00  0.00    +0.000 F 
ENDBRANCH   6  18
BRANCH   5  22
ATOM     22  C   UNL     1       6.061   4.651  16.204  0.00  0.00    +0.000 C 
ATOM     23  C   UNL     1       7.279   4.229  17.041  0.00  0.00    +0.000 C 
BRANCH  22  24
ATOM     24  C   UNL     1       5.962   3.755  14.943  0.00  0.00    +0.000 C 
BRANCH  24  25
ATOM     25  C   UNL     1       6.686   4.328  13.772  0.00  0.00    +0.000 A 
ATOM     26  N   UNL     1       7.524   5.345  13.797  0.00  0.00    +0.000 NA
ATOM     27  N   UNL     1       8.011   5.534  12.526  0.00  0.00    +0.000 NA
ATOM     28  C   UNL     1       7.450   4.638  11.750  0.00  0.00    +0.000 A 
ATOM     29  N   UNL     1       6.591   3.879  12.481  0.00  0.00    +0.000 N 
ATOM     30  C   UNL     1       5.751   2.828  11.975  0.00  0.00    +0.000 C 
ENDBRANCH  24  25
ENDBRANCH  22  24
ENDBRANCH   5  22
TORSDOF 6
ENDMDL
MODEL 3
REMARK VINA RESULT:      -8.3      3.151      8.169
REMARK  Name = 
REMARK  9 active torsions:
REMARK  status: ('A' for Active; 'I' for Inactive)
REMARK    1  A    between atoms: C_1  and  C_2
REMARK    2  A    between atoms: C_6  and  C_7
REMARK    3  A    between atoms: N_9  and  C_10
REMARK    4  A    between atoms: C_14  and  C_15
REMARK    5  A    between atoms: C_15  and  C_16
REMARK    6  A    between atoms: C_15  and  C_17
REMARK    7  A    between atoms: C_17  and  C_18
REMARK    8  A    between atoms: N_22  and  C_23
REMARK    9  A    between atoms: C_24  and  C_25
REMARK                            x       y       z     vdW  Elec       q    Type
REMARK                         _______ _______ _______ _____ _____    ______ ____
ROOT
ATOM      1  C   UNL     1       1.405   8.533  20.396  0.00  0.00    +0.000 A 
ATOM      2  C   UNL     1       1.213   8.404  21.780  0.00  0.00    +0.000 A 
ATOM      3  C   UNL     1       0.411   9.286  22.493  0.00  0.00    +0.000 A 
ATOM      4  C   UNL     1      -0.175  10.358  21.844  0.00  0.00    +0.000 A 
ATOM      5  C   UNL     1       0.026  10.572  20.467  0.00  0.00    +0.000 A 
ATOM      6  C   UNL     1       0.800   9.623  19.721  0.00  0.00    +0.000 A 
ENDROOT
BRANCH   1   9
ATOM      7  C   UNL     1       2.238   6.223  19.913  0.00  0.00    +0.000 C 
ATOM      8  O   UNL     1       1.501   5.590  20.667  0.00  0.00    +0.000 OA
ATOM      9  N   UNL     1       2.217   7.590  19.709  0.00  0.00    +0.000 N 
ATOM     10  H   UNL     1       2.801   7.905  18.930  0.00  0.00    +0.000 HD
BRANCH   7  16
ATOM     11  C   UNL     1       5.201   5.975  15.927  0.00  0.00    +0.000 C 
ATOM     12  C   UNL     1       4.646   5.339  17.165  0.00  0.00    +0.000 A 
ATOM     13  C   UNL     1       5.018   4.061  17.581  0.00  0.00    +0.000 A 
ATOM     14  C   UNL     1       4.459   3.550  18.751  0.00  0.00    +0.000 A 
ATOM     15  N   UNL     1       3.571   4.212  19.529  0.00  0.00    +0.000 NA
ATOM     16  C   UNL     1       3.222   5.452  19.095  0.00  0.00    +0.000 A 
ATOM     17  C   UNL     1       3.728   6.042  17.940  0.00  0.00    +0.000 A 
ENDBRANCH   7  16
ENDBRANCH   1   9
BRANCH   6  18
ATOM     18  C   UNL     1       0.905   9.762  18.218  0.00  0.00    +0.000 C 
ATOM     19  F   UNL     1      -0.276   9.985  17.570  0.00  0.00    +0.000 F 
ATOM     20  F   UNL     1       1.708  10.807  17.853  0.00  0.00    +0.000 F 
ATOM     21  F   UNL     1       1.442   8.666  17.604  0.00  0.00    +0.000 F 
ENDBRANCH   6  18
BRANCH   5  22
ATOM     22  C   UNL     1      -0.548  11.856  19.853  0.00  0.00    +0.000 C 
ATOM     23  C   UNL     1      -2.084  11.872  19.899  0.00  0.00    +0.000 C 
BRANCH  22  24
ATOM     24  C   UNL     1       0.004  13.137  20.532  0.00  0.00    +0.000 C 
BRANCH  24  25
ATOM     25  C   UNL     1       1.164  13.722  19.798  0.00  0.00    +0.000 A 
ATOM     26  N   UNL     1       2.398  13.263  19.802  0.00  0.00    +0.000 NA
ATOM     27  N   UNL     1       3.155  14.052  18.970  0.00  0.00    +0.000 NA
ATOM     28  C   UNL     1       2.369  14.984  18.486  0.00  0.00    +0.000 A 
ATOM     29  N   UNL     1       1.119  14.834  18.999  0.00  0.00    +0.000 N 
ATOM     30  C   UNL     1      -0.006  15.693  18.749  0.00  0.00    +0.000 C 
ENDBRANCH  24  25
ENDBRANCH  22  24
ENDBRANCH   5  22
TORSDOF 6
ENDMDL
MODEL 4
REMARK VINA RESULT:      -8.2      3.110      8.236
REMARK  Name = 
REMARK  9 active torsions:
REMARK  status: ('A' for Active; 'I' for Inactive)
REMARK    1  A    between atoms: C_1  and  C_2
REMARK    2  A    between atoms: C_6  and  C_7
REMARK    3  A    between atoms: N_9  and  C_10
REMARK    4  A    between atoms: C_14  and  C_15
REMARK    5  A    between atoms: C_15  and  C_16
REMARK    6  A    between atoms: C_15  and  C_17
REMARK    7  A    between atoms: C_17  and  C_18
REMARK    8  A    between atoms: N_22  and  C_23
REMARK    9  A    between atoms: C_24  and  C_25
REMARK                            x       y       z     vdW  Elec       q    Type
REMARK                         _______ _______ _______ _____ _____    ______ ____
ROOT
ATOM      1  C   UNL     1       1.402   8.430  20.568  0.00  0.00    +0.000 A 
ATOM      2  C   UNL     1       1.090   8.447  21.936  0.00  0.00    +0.000 A 
ATOM      3  C   UNL     1       0.247   9.407  22.482  0.00  0.00    +0.000 A 
ATOM      4  C   UNL     1      -0.262  10.411  21.678  0.00  0.00    +0.000 A 
ATOM      5  C   UNL     1       0.060  10.478  20.308  0.00  0.00    +0.000 A 
ATOM      6  C   UNL     1       0.877   9.448  19.734  0.00  0.00    +0.000 A 
ENDROOT
BRANCH   1   9
ATOM      7  C   UNL     1       2.076   6.047  20.197  0.00  0.00    +0.000 C 
ATOM      8  O   UNL     1       1.115   5.490  20.722  0.00  0.00    +0.000 OA
ATOM      9  N   UNL     1       2.252   7.412  20.055  0.00  0.00    +0.000 N 
ATOM     10  H   UNL     1       3.038   7.672  19.454  0.00  0.00    +0.000 HD
BRANCH   7  16
ATOM     11  C   UNL     1       3.392   1.734  18.100  0.00  0.00    +0.000 C 
ATOM     12  C   UNL     1       3.770   3.096  18.599  0.00  0.00    +0.000 A 
ATOM     13  C   UNL     1       5.073   3.585  18.526  0.00  0.00    +0.000 A 
ATOM     14  C   UNL     1       5.335   4.867  19.007  0.00  0.00    +0.000 A 
ATOM     15  N   UNL     1       4.402   5.689  19.543  0.00  0.00    +0.000 NA
ATOM     16  C   UNL     1       3.142   5.184  19.606  0.00  0.00    +0.000 A 
ATOM     17  C   UNL     1       2.790   3.916  19.152  0.00  0.00    +0.000 A 
ENDBRANCH   7  16
ENDBRANCH   1   9
BRANCH   6  18
ATOM     18  C   UNL     1       1.112   9.428  18.240  0.00  0.00    +0.000 C 
ATOM     19  F   UNL     1      -0.009   9.564  17.472  0.00  0.00    +0.000 F 
ATOM     20  F   UNL     1       1.938  10.440  17.836  0.00  0.00    +0.000 F 
ATOM     21  F   UNL     1       1.706   8.281  17.795  0.00  0.00    +0.000 F 
ENDBRANCH   6  18
BRANCH   5  22
ATOM     22  C   UNL     1      -0.436  11.696  19.517  0.00  0.00    +0.000 C 
ATOM     23  C   UNL     1      -1.956  11.652  19.296  0.00  0.00    +0.000 C 
BRANCH  22  24
ATOM     24  C   UNL     1      -0.049  13.038  20.191  0.00  0.00    +0.000 C 
BRANCH  24  25
ATOM     25  C   UNL     1       1.148  13.672  19.565  0.00  0.00    +0.000 A 
ATOM     26  N   UNL     1       2.367  13.174  19.538  0.00  0.00    +0.000 NA
ATOM     27  N   UNL     1       3.170  14.036  18.831  0.00  0.00    +0.000 NA
ATOM     28  C   UNL     1       2.426  15.049  18.452  0.00  0.00    +0.000 A 
ATOM     29  N   UNL     1       1.159  14.878  18.914  0.00  0.00    +0.000 N 
ATOM     30  C   UNL     1       0.068  15.799  18.750  0.00  0.00    +0.000 C 
ENDBRANCH  24  25
ENDBRANCH  22  24
ENDBRANCH   5  22
TORSDOF 6
ENDMDL
MODEL 5
REMARK VINA RESULT:      -8.2      2.804      9.217
REMARK  Name = 
REMARK  9 active torsions:
REMARK  status: ('A' for Active; 'I' for Inactive)
REMARK    1  A    between atoms: C_1  and  C_2
REMARK    2  A    between atoms: C_6  and  C_7
REMARK    3  A    between atoms: N_9  and  C_10
REMARK    4  A    between atoms: C_14  and  C_15
REMARK    5  A    between atoms: C_15  and  C_16
REMARK    6  A    between atoms: C_15  and  C_17
REMARK    7  A    between atoms: C_17  and  C_18
REMARK    8  A    between atoms: N_22  and  C_23
REMARK    9  A    between atoms: C_24  and  C_25
REMARK                            x       y       z     vdW  Elec       q    Type
REMARK                         _______ _______ _______ _____ _____    ______ ____
ROOT
ATOM      1  C   UNL     1       0.866   9.718  20.055  0.00  0.00    +0.000 A 
ATOM      2  C   UNL     1       0.982  10.491  18.890  0.00  0.00    +0.000 A 
ATOM      3  C   UNL     1       0.468  11.779  18.812  0.00  0.00    +0.000 A 
ATOM      4  C   UNL     1      -0.228  12.306  19.886  0.00  0.00    +0.000 A 
ATOM      5  C   UNL     1      -0.424  11.557  21.063  0.00  0.00    +0.000 A 
ATOM      6  C   UNL     1       0.164  10.253  21.164  0.00  0.00    +0.000 A 
ENDROOT
BRANCH   1   9
ATOM      7  C   UNL     1       2.218   7.833  19.112  0.00  0.00    +0.000 C 
ATOM      8  O   UNL     1       2.623   8.379  18.088  0.00  0.00    +0.000 OA
ATOM      9  N   UNL     1       1.430   8.414  20.090  0.00  0.00    +0.000 N 
ATOM     10  H   UNL     1       1.330   7.847  20.936  0.00  0.00    +0.000 HD
BRANCH   7  16
ATOM     11  C   UNL     1       1.346   3.431  21.256  0.00  0.00    +0.000 C 
ATOM     12  C   UNL     1       2.221   4.304  20.408  0.00  0.00    +0.000 A 
ATOM     13  C   UNL     1       3.413   3.849  19.845  0.00  0.00    +0.000 A 
ATOM     14  C   UNL     1       4.160   4.727  19.062  0.00  0.00    +0.000 A 
ATOM     15  N   UNL     1       3.809   6.008  18.798  0.00  0.00    +0.000 NA
ATOM     16  C   UNL     1       2.647   6.425  19.365  0.00  0.00    +0.000 A 
ATOM     17  C   UNL     1       1.837   5.619  20.161  0.00  0.00    +0.000 A 
ENDBRANCH   7  16
ENDBRANCH   1   9
BRANCH   6  18
ATOM     18  C   UNL     1       0.083   9.497  22.472  0.00  0.00    +0.000 C 
ATOM     19  F   UNL     1      -0.369  10.222  23.537  0.00  0.00    +0.000 F 
ATOM     20  F   UNL     1      -0.761   8.425  22.394  0.00  0.00    +0.000 F 
ATOM     21  F   UNL     1       1.281   8.981  22.880  0.00  0.00    +0.000 F 
ENDBRANCH   6  18
BRANCH   5  22
ATOM     22  C   UNL     1      -1.320  12.162  22.153  0.00  0.00    +0.000 C 
ATOM     23  C   UNL     1      -0.689  13.417  22.776  0.00  0.00    +0.000 C 
BRANCH  22  24
ATOM     24  C   UNL     1      -2.741  12.498  21.633  0.00  0.00    +0.000 C 
BRANCH  24  25
ATOM     25  C   UNL     1      -3.763  12.509  22.720  0.00  0.00    +0.000 A 
ATOM     26  N   UNL     1      -3.655  11.921  23.894  0.00  0.00    +0.000 NA
ATOM     27  N   UNL     1      -4.785  12.203  24.624  0.00  0.00    +0.000 NA
ATOM     28  C   UNL     1      -5.565  12.946  23.874  0.00  0.00    +0.000 A 
ATOM     29  N   UNL     1      -4.979  13.139  22.663  0.00  0.00    +0.000 N 
ATOM     30  C   UNL     1      -5.546  13.856  21.554  0.00  0.00    +0.000 C 
ENDBRANCH  24  25
ENDBRANCH  22  24
ENDBRANCH   5  22
TORSDOF 6
ENDMDL
MODEL 6
REMARK VINA RESULT:      -8.2      3.089      8.160
REMARK  Name = 
REMARK  9 active torsions:
REMARK  status: ('A' for Active; 'I' for Inactive)
REMARK    1  A    between atoms: C_1  and  C_2
REMARK    2  A    between atoms: C_6  and  C_7
REMARK    3  A    between atoms: N_9  and  C_10
REMARK    4  A    between atoms: C_14  and  C_15
REMARK    5  A    between atoms: C_15  and  C_16
REMARK    6  A    between atoms: C_15  and  C_17
REMARK    7  A    between atoms: C_17  and  C_18
REMARK    8  A    between atoms: N_22  and  C_23
REMARK    9  A    between atoms: C_24  and  C_25
REMARK                            x       y       z     vdW  Elec       q    Type
REMARK                         _______ _______ _______ _____ _____    ______ ____
ROOT
ATOM      1  C   UNL     1       1.467   8.408  20.553  0.00  0.00    +0.000 A 
ATOM      2  C   UNL     1       1.145   8.449  21.919  0.00  0.00    +0.000 A 
ATOM      3  C   UNL     1       0.304   9.422  22.444  0.00  0.00    +0.000 A 
ATOM      4  C   UNL     1      -0.194  10.416  21.620  0.00  0.00    +0.000 A 
ATOM      5  C   UNL     1       0.138  10.460  20.252  0.00  0.00    +0.000 A 
ATOM      6  C   UNL     1       0.954   9.417  19.700  0.00  0.00    +0.000 A 
ENDROOT
BRANCH   1   9
ATOM      7  C   UNL     1       2.110   6.016  20.190  0.00  0.00    +0.000 C 
ATOM      8  O   UNL     1       1.121   5.473  20.678  0.00  0.00    +0.000 OA
ATOM      9  N   UNL     1       2.315   7.378  20.063  0.00  0.00    +0.000 N 
ATOM     10  H   UNL     1       3.126   7.627  19.491  0.00  0.00    +0.000 HD
BRANCH   7  16
ATOM     11  C   UNL     1       3.438   1.645  18.226  0.00  0.00    +0.000 C 
ATOM     12  C   UNL     1       3.813   3.021  18.687  0.00  0.00    +0.000 A 
ATOM     13  C   UNL     1       5.117   3.508  18.607  0.00  0.00    +0.000 A 
ATOM     14  C   UNL     1       5.375   4.804  19.051  0.00  0.00    +0.000 A 
ATOM     15  N   UNL     1       4.439   5.641  19.558  0.00  0.00    +0.000 NA
ATOM     16  C   UNL     1       3.179   5.137  19.630  0.00  0.00    +0.000 A 
ATOM     17  C   UNL     1       2.830   3.855  19.211  0.00  0.00    +0.000 A 
ENDBRANCH   7  16
ENDBRANCH   1   9
BRANCH   6  18
ATOM     18  C   UNL     1       1.200   9.372  18.208  0.00  0.00    +0.000 C 
ATOM     19  F   UNL     1       1.663   8.180  17.730  0.00  0.00    +0.000 F 
ATOM     20  F   UNL     1       0.062   9.618  17.491  0.00  0.00    +0.000 F 
ATOM     21  F   UNL     1       2.105  10.300  17.775  0.00  0.00    +0.000 F 
ENDBRANCH   6  18
BRANCH   5  22
ATOM     22  C   UNL     1      -0.345  11.668  19.439  0.00  0.00    +0.000 C 
ATOM     23  C   UNL     1      -1.861  11.620  19.193  0.00  0.00    +0.000 C 
BRANCH  22  24
ATOM     24  C   UNL     1       0.031  13.018  20.102  0.00  0.00    +0.000 C 
BRANCH  24  25
ATOM     25  C   UNL     1       1.279  13.609  19.538  0.00  0.00    +0.000 A 
ATOM     26  N   UNL     1       1.751  13.415  18.323  0.00  0.00    +0.000 NA
ATOM     27  N   UNL     1       2.892  14.167  18.178  0.00  0.00    +0.000 NA
ATOM     28  C   UNL     1       3.100  14.793  19.312  0.00  0.00    +0.000 A 
ATOM     29  N   UNL     1       2.131  14.452  20.203  0.00  0.00    +0.000 N 
ATOM     30  C   UNL     1       2.046  14.890  21.568  0.00  0.00    +0.000 C 
ENDBRANCH  24  25
ENDBRANCH  22  24
ENDBRANCH   5  22
TORSDOF 6
ENDMDL
MODEL 7
REMARK VINA RESULT:      -8.1      2.869      8.451
REMARK  Name = 
REMARK  9 active torsions:
REMARK  status: ('A' for Active; 'I' for Inactive)
REMARK    1  A    between atoms: C_1  and  C_2
REMARK    2  A    between atoms: C_6  and  C_7
REMARK    3  A    between atoms: N_9  and  C_10
REMARK    4  A    between atoms: C_14  and  C_15
REMARK    5  A    between atoms: C_15  and  C_16
REMARK    6  A    between atoms: C_15  and  C_17
REMARK    7  A    between atoms: C_17  and  C_18
REMARK    8  A    between atoms: N_22  and  C_23
REMARK    9  A    between atoms: C_24  and  C_25
REMARK                            x       y       z     vdW  Elec       q    Type
REMARK                         _______ _______ _______ _____ _____    ______ ____
ROOT
ATOM      1  C   UNL     1       1.415   8.436  20.509  0.00  0.00    +0.000 A 
ATOM      2  C   UNL     1       1.107   8.478  21.878  0.00  0.00    +0.000 A 
ATOM      3  C   UNL     1       0.260   9.443  22.409  0.00  0.00    +0.000 A 
ATOM      4  C   UNL     1      -0.256  10.429  21.587  0.00  0.00    +0.000 A 
ATOM      5  C   UNL     1       0.061  10.472  20.216  0.00  0.00    +0.000 A 
ATOM      6  C   UNL     1       0.882   9.436  19.659  0.00  0.00    +0.000 A 
ENDROOT
BRANCH   1   9
ATOM      7  C   UNL     1       2.096   6.051  20.173  0.00  0.00    +0.000 C 
ATOM      8  O   UNL     1       1.134   5.498  20.703  0.00  0.00    +0.000 OA
ATOM      9  N   UNL     1       2.269   7.414  20.014  0.00  0.00    +0.000 N 
ATOM     10  H   UNL     1       3.057   7.667  19.412  0.00  0.00    +0.000 HD
BRANCH   7  16
ATOM     11  C   UNL     1       3.429   1.711  18.145  0.00  0.00    +0.000 C 
ATOM     12  C   UNL     1       3.802   3.081  18.624  0.00  0.00    +0.000 A 
ATOM     13  C   UNL     1       5.104   3.573  18.547  0.00  0.00    +0.000 A 
ATOM     14  C   UNL     1       5.360   4.862  19.008  0.00  0.00    +0.000 A 
ATOM     15  N   UNL     1       4.424   5.690  19.530  0.00  0.00    +0.000 NA
ATOM     16  C   UNL     1       3.166   5.182  19.598  0.00  0.00    +0.000 A 
ATOM     17  C   UNL     1       2.819   3.906  19.163  0.00  0.00    +0.000 A 
ENDBRANCH   7  16
ENDBRANCH   1   9
BRANCH   6  18
ATOM     18  C   UNL     1       1.113   9.389  18.164  0.00  0.00    +0.000 C 
ATOM     19  F   UNL     1       1.524   8.182  17.676  0.00  0.00    +0.000 F 
ATOM     20  F   UNL     1      -0.020   9.685  17.459  0.00  0.00    +0.000 F 
ATOM     21  F   UNL     1       2.050  10.283  17.728  0.00  0.00    +0.000 F 
ENDBRANCH   6  18
BRANCH   5  22
ATOM     22  C   UNL     1      -0.443  11.673  19.403  0.00  0.00    +0.000 C 
ATOM     23  C   UNL     1      -1.643  12.355  20.080  0.00  0.00    +0.000 C 
BRANCH  22  24
ATOM     24  C   UNL     1       0.669  12.721  19.141  0.00  0.00    +0.000 C 
BRANCH  24  25
ATOM     25  C   UNL     1       0.835  13.678  20.273  0.00  0.00    +0.000 A 
ATOM     26  N   UNL     1       1.396  13.418  21.436  0.00  0.00    +0.000 NA
ATOM     27  N   UNL     1       1.394  14.571  22.184  0.00  0.00    +0.000 NA
ATOM     28  C   UNL     1       0.820  15.507  21.467  0.00  0.00    +0.000 A 
ATOM     29  N   UNL     1       0.427  14.987  20.273  0.00  0.00    +0.000 N 
ATOM     30  C   UNL     1      -0.284  15.686  19.239  0.00  0.00    +0.000 C 
ENDBRANCH  24  25
ENDBRANCH  22  24
ENDBRANCH   5  22
TORSDOF 6
ENDMDL
MODEL 8
REMARK VINA RESULT:      -8.1      3.155      8.096
REMARK  Name = 
REMARK  9 active torsions:
REMARK  status: ('A' for Active; 'I' for Inactive)
REMARK    1  A    between atoms: C_1  and  C_2
REMARK    2  A    between atoms: C_6  and  C_7
REMARK    3  A    between atoms: N_9  and  C_10
REMARK    4  A    between atoms: C_14  and  C_15
REMARK    5  A    between atoms: C_15  and  C_16
REMARK    6  A    between atoms: C_15  and  C_17
REMARK    7  A    between atoms: C_17  and  C_18
REMARK    8  A    between atoms: N_22  and  C_23
REMARK    9  A    between atoms: C_24  and  C_25
REMARK                            x       y       z     vdW  Elec       q    Type
REMARK                         _______ _______ _______ _____ _____    ______ ____
ROOT
ATOM      1  C   UNL     1       1.443   8.487  20.371  0.00  0.00    +0.000 A 
ATOM      2  C   UNL     1       1.242   8.436  21.759  0.00  0.00    +0.000 A 
ATOM      3  C   UNL     1       0.450   9.367  22.419  0.00  0.00    +0.000 A 
ATOM      4  C   UNL     1      -0.116  10.411  21.710  0.00  0.00    +0.000 A 
ATOM      5  C   UNL     1       0.095  10.547  20.324  0.00  0.00    +0.000 A 
ATOM      6  C   UNL     1       0.858   9.547  19.635  0.00  0.00    +0.000 A 
ENDROOT
BRANCH   1   9
ATOM      7  C   UNL     1       2.203   6.134  19.980  0.00  0.00    +0.000 C 
ATOM      8  O   UNL     1       1.414   5.550  20.720  0.00  0.00    +0.000 OA
ATOM      9  N   UNL     1       2.243   7.495  19.741  0.00  0.00    +0.000 N 
ATOM     10  H   UNL     1       2.868   7.767  18.978  0.00  0.00    +0.000 HD
BRANCH   7  16
ATOM     11  C   UNL     1       5.213   5.619  16.055  0.00  0.00    +0.000 C 
ATOM     12  C   UNL     1       4.634   5.062  17.321  0.00  0.00    +0.000 A 
ATOM     13  C   UNL     1       4.984   3.806  17.815  0.00  0.00    +0.000 A 
ATOM     14  C   UNL     1       4.403   3.371  19.005  0.00  0.00    +0.000 A 
ATOM     15  N   UNL     1       3.513   4.088  19.731  0.00  0.00    +0.000 NA
ATOM     16  C   UNL     1       3.187   5.305  19.222  0.00  0.00    +0.000 A 
ATOM     17  C   UNL     1       3.716   5.820  18.042  0.00  0.00    +0.000 A 
ENDBRANCH   7  16
ENDBRANCH   1   9
BRANCH   6  18
ATOM     18  C   UNL     1       0.973   9.603  18.127  0.00  0.00    +0.000 C 
ATOM     19  F   UNL     1       1.419   8.457  17.534  0.00  0.00    +0.000 F 
ATOM     20  F   UNL     1      -0.229   9.861  17.529  0.00  0.00    +0.000 F 
ATOM     21  F   UNL     1       1.814  10.582  17.679  0.00  0.00    +0.000 F 
ENDBRANCH   6  18
BRANCH   5  22
ATOM     22  C   UNL     1      -0.456  11.805  19.638  0.00  0.00    +0.000 C 
ATOM     23  C   UNL     1      -1.991  11.797  19.583  0.00  0.00    +0.000 C 
BRANCH  22  24
ATOM     24  C   UNL     1       0.032  13.112  20.315  0.00  0.00    +0.000 C 
BRANCH  24  25
ATOM     25  C   UNL     1       1.249  13.678  19.663  0.00  0.00    +0.000 A 
ATOM     26  N   UNL     1       1.598  13.524  18.402  0.00  0.00    +0.000 NA
ATOM     27  N   UNL     1       2.753  14.235  18.184  0.00  0.00    +0.000 NA
ATOM     28  C   UNL     1       3.092  14.797  19.320  0.00  0.00    +0.000 A 
ATOM     29  N   UNL     1       2.195  14.453  20.281  0.00  0.00    +0.000 N 
ATOM     30  C   UNL     1       2.254  14.828  21.667  0.00  0.00    +0.000 C 
ENDBRANCH  24  25
ENDBRANCH  22  24
ENDBRANCH   5  22
TORSDOF 6
ENDMDL
MODEL 9
REMARK VINA RESULT:      -8.0      2.860      9.373
REMARK  Name = 
REMARK  9 active torsions:
REMARK  status: ('A' for Active; 'I' for Inactive)
REMARK    1  A    between atoms: C_1  and  C_2
REMARK    2  A    between atoms: C_6  and  C_7
REMARK    3  A    between atoms: N_9  and  C_10
REMARK    4  A    between atoms: C_14  and  C_15
REMARK    5  A    between atoms: C_15  and  C_16
REMARK    6  A    between atoms: C_15  and  C_17
REMARK    7  A    between atoms: C_17  and  C_18
REMARK    8  A    between atoms: N_22  and  C_23
REMARK    9  A    between atoms: C_24  and  C_25
REMARK                            x       y       z     vdW  Elec       q    Type
REMARK                         _______ _______ _______ _____ _____    ______ ____
ROOT
ATOM      1  C   UNL     1       0.831  10.270  19.911  0.00  0.00    +0.000 A 
ATOM      2  C   UNL     1       0.942  11.190  18.857  0.00  0.00    +0.000 A 
ATOM      3  C   UNL     1       0.381  12.459  18.930  0.00  0.00    +0.000 A 
ATOM      4  C   UNL     1      -0.356  12.819  20.044  0.00  0.00    +0.000 A 
ATOM      5  C   UNL     1      -0.549  11.920  21.110  0.00  0.00    +0.000 A 
ATOM      6  C   UNL     1       0.086  10.635  21.060  0.00  0.00    +0.000 A 
ENDROOT
BRANCH   1   9
ATOM      7  C   UNL     1       1.991   8.446  18.648  0.00  0.00    +0.000 C 
ATOM      8  O   UNL     1       2.108   9.008  17.561  0.00  0.00    +0.000 OA
ATOM      9  N   UNL     1       1.444   8.993  19.794  0.00  0.00    +0.000 N 
ATOM     10  H   UNL     1       1.579   8.423  20.634  0.00  0.00    +0.000 HD
BRANCH   7  16
ATOM     11  C   UNL     1       4.692   4.733  16.738  0.00  0.00    +0.000 C 
ATOM     12  C   UNL     1       3.833   5.269  17.843  0.00  0.00    +0.000 A 
ATOM     13  C   UNL     1       3.526   4.526  18.982  0.00  0.00    +0.000 A 
ATOM     14  C   UNL     1       2.727   5.107  19.964  0.00  0.00    +0.000 A 
ATOM     15  N   UNL     1       2.221   6.361  19.898  0.00  0.00    +0.000 NA
ATOM     16  C   UNL     1       2.531   7.060  18.775  0.00  0.00    +0.000 A 
ATOM     17  C   UNL     1       3.321   6.560  17.743  0.00  0.00    +0.000 A 
ENDBRANCH   7  16
ENDBRANCH   1   9
BRANCH   6  18
ATOM     18  C   UNL     1       0.006   9.715  22.259  0.00  0.00    +0.000 C 
ATOM     19  F   UNL     1      -0.630  10.234  23.350  0.00  0.00    +0.000 F 
ATOM     20  F   UNL     1      -0.670   8.560  21.977  0.00  0.00    +0.000 F 
ATOM     21  F   UNL     1       1.227   9.312  22.721  0.00  0.00    +0.000 F 
ENDBRANCH   6  18
BRANCH   5  22
ATOM     22  C   UNL     1      -1.490  12.348  22.244  0.00  0.00    +0.000 C 
ATOM     23  C   UNL     1      -0.946  13.568  23.005  0.00  0.00    +0.000 C 
BRANCH  22  24
ATOM     24  C   UNL     1      -2.926  12.648  21.743  0.00  0.00    +0.000 C 
BRANCH  24  25
ATOM     25  C   UNL     1      -3.943  12.567  22.831  0.00  0.00    +0.000 A 
ATOM     26  N   UNL     1      -3.805  11.938  23.980  0.00  0.00    +0.000 NA
ATOM     27  N   UNL     1      -4.944  12.138  24.722  0.00  0.00    +0.000 NA
ATOM     28  C   UNL     1      -5.759  12.874  24.004  0.00  0.00    +0.000 A 
ATOM     29  N   UNL     1      -5.187  13.143  22.801  0.00  0.00    +0.000 N 
ATOM     30  C   UNL     1      -5.790  13.876  21.722  0.00  0.00    +0.000 C 
ENDBRANCH  24  25
ENDBRANCH  22  24
ENDBRANCH   5  22
TORSDOF 6
ENDMDL
