MODEL 1
REMARK VINA RESULT:      -8.6      0.000      0.000
REMARK  Name = 
REMARK  6 active torsions:
REMARK  status: ('A' for Active; 'I' for Inactive)
REMARK    1  A    between atoms: C_1  and  C_2
REMARK    2  A    between atoms: C_2  and  C_3
REMARK    3  A    between atoms: C_2  and  C_21
REMARK    4  A    between atoms: C_7  and  N_8
REMARK    5  A    between atoms: C_9  and  C_11
REMARK    6  A    between atoms: N_25  and  C_26
REMARK                            x       y       z     vdW  Elec       q    Type
REMARK                         _______ _______ _______ _____ _____    ______ ____
ROOT
ATOM      1  C   UNL     1       4.485   5.238  17.028  0.00  0.00    +0.000 A 
ATOM      2  C   UNL     1       3.803   4.020  16.885  0.00  0.00    +0.000 A 
ATOM      3  C   UNL     1       2.494   3.886  17.333  0.00  0.00    +0.000 A 
ATOM      4  C   UNL     1       1.862   4.953  17.972  0.00  0.00    +0.000 A 
ATOM      5  C   UNL     1       2.524   6.168  18.161  0.00  0.00    +0.000 A 
ATOM      6  C   UNL     1       3.813   6.324  17.630  0.00  0.00    +0.000 A 
ENDROOT
BRANCH   5   7
ATOM      7  N   UNL     1       1.979   7.224  18.924  0.00  0.00    +0.000 N 
ATOM      8  C   UNL     1       1.815   8.533  18.489  0.00  0.00    +0.000 C 
ATOM      9  O   UNL     1       2.195   9.003  17.421  0.00  0.00    +0.000 OA
ATOM     10  H   UNL     1       1.504   6.998  19.794  0.00  0.00    +0.000 HD
BRANCH   8  11
ATOM     11  C   UNL     1       1.032   9.415  19.415  0.00  0.00    +0.000 A 
ATOM     12  C   UNL     1       0.329  10.506  18.873  0.00  0.00    +0.000 A 
ATOM     13  C   UNL     1      -0.457  11.298  19.709  0.00  0.00    +0.000 A 
ATOM     14  C   UNL     1      -0.488  10.954  21.039  0.00  0.00    +0.000 A 
ATOM     15  C   UNL     1       0.236   9.876  21.499  0.00  0.00    +0.000 A 
ATOM     16  N   UNL     1       1.010   9.071  20.737  0.00  0.00    +0.000 NA
ATOM     17  C   UNL     1      -0.018   9.755  22.958  0.00  0.00    +0.000 C 
ATOM     18  N   UNL     1      -0.960  10.855  23.282  0.00  0.00    +0.000 NA
ATOM     19  O   UNL     1      -1.200  11.589  22.015  0.00  0.00    +0.000 OA
ATOM     20  H   UNL     1      -0.463  11.574  23.805  0.00  0.00    +0.000 HD
ENDBRANCH   8  11
ENDBRANCH   5   7
BRANCH   1  22
ATOM     21  C   UNL     1       6.365   4.072  15.825  0.00  0.00    +0.000 C 
ATOM     22  C   UNL     1       5.955   5.316  16.628  0.00  0.00    +0.000 C 
BRANCH  22  23
ATOM     23  C   UNL     1       6.883   5.536  17.787  0.00  0.00    +0.000 A 
ATOM     24  N   UNL     1       7.266   4.625  18.665  0.00  0.00    +0.000 NA
ATOM     25  N   UNL     1       8.194   5.191  19.503  0.00  0.00    +0.000 NA
ATOM     26  C   UNL     1       8.354   6.437  19.132  0.00  0.00    +0.000 A 
ATOM     27  N   UNL     1       7.549   6.704  18.068  0.00  0.00    +0.000 N 
ATOM     28  C   UNL     1       7.470   7.966  17.382  0.00  0.00    +0.000 C 
ENDBRANCH  22  23
ENDBRANCH   1  22
TORSDOF 4
ENDMDL
MODEL 2
REMARK VINA RESULT:      -8.6      0.877      1.359
REMARK  Name = 
REMARK  6 active torsions:
REMARK  status: ('A' for Active; 'I' for Inactive)
REMARK    1  A    between atoms: C_1  and  C_2
REMARK    2  A    between atoms: C_2  and  C_3
REMARK    3  A    between atoms: C_2  and  C_21
REMARK    4  A    between atoms: C_7  and  N_8
REMARK    5  A    between atoms: C_9  and  C_11
REMARK    6  A    between atoms: N_25  and  C_26
REMARK                            x       y       z     vdW  Elec       q    Type
REMARK                         _______ _______ _______ _____ _____    ______ ____
ROOT
ATOM      1  C   UNL     1       4.381   5.128  17.122  0.00  0.00    +0.000 A 
ATOM      2  C   UNL     1       3.637   3.963  16.881  0.00  0.00    +0.000 A 
ATOM      3  C   UNL     1       2.345   3.833  17.380  0.00  0.00    +0.000 A 
ATOM      4  C   UNL     1       1.796   4.846  18.166  0.00  0.00    +0.000 A 
ATOM      5  C   UNL     1       2.521   6.004  18.454  0.00  0.00    +0.000 A 
ATOM      6  C   UNL     1       3.790   6.166  17.876  0.00  0.00    +0.000 A 
ENDROOT
BRANCH   5   7
ATOM      7  N   UNL     1       2.063   6.988  19.357  0.00  0.00    +0.000 N 
ATOM      8  C   UNL     1       1.746   8.299  19.029  0.00  0.00    +0.000 C 
ATOM      9  O   UNL     1       1.895   8.838  17.936  0.00  0.00    +0.000 OA
ATOM     10  H   UNL     1       1.770   6.694  20.285  0.00  0.00    +0.000 HD
BRANCH   8  11
ATOM     11  C   UNL     1       1.094   9.087  20.126  0.00  0.00    +0.000 A 
ATOM     12  C   UNL     1       0.704   8.416  21.298  0.00  0.00    +0.000 A 
ATOM     13  C   UNL     1       0.156   9.143  22.354  0.00  0.00    +0.000 A 
ATOM     14  C   UNL     1       0.028  10.500  22.171  0.00  0.00    +0.000 A 
ATOM     15  C   UNL     1       0.424  11.085  20.989  0.00  0.00    +0.000 A 
ATOM     16  N   UNL     1       0.964  10.434  19.935  0.00  0.00    +0.000 NA
ATOM     17  C   UNL     1       0.176  12.546  21.107  0.00  0.00    +0.000 C 
ATOM     18  N   UNL     1      -0.386  12.737  22.467  0.00  0.00    +0.000 NA
ATOM     19  O   UNL     1      -0.471  11.388  23.080  0.00  0.00    +0.000 OA
ATOM     20  H   UNL     1      -1.379  12.951  22.388  0.00  0.00    +0.000 HD
ENDBRANCH   8  11
ENDBRANCH   5   7
BRANCH   1  22
ATOM     21  C   UNL     1       6.200   3.928  15.861  0.00  0.00    +0.000 C 
ATOM     22  C   UNL     1       5.832   5.190  16.657  0.00  0.00    +0.000 C 
BRANCH  22  23
ATOM     23  C   UNL     1       6.811   5.427  17.770  0.00  0.00    +0.000 A 
ATOM     24  N   UNL     1       7.271   4.520  18.612  0.00  0.00    +0.000 NA
ATOM     25  N   UNL     1       8.221   5.107  19.410  0.00  0.00    +0.000 NA
ATOM     26  C   UNL     1       8.318   6.363  19.050  0.00  0.00    +0.000 A 
ATOM     27  N   UNL     1       7.449   6.615  18.033  0.00  0.00    +0.000 N 
ATOM     28  C   UNL     1       7.291   7.883  17.372  0.00  0.00    +0.000 C 
ENDBRANCH  22  23
ENDBRANCH   1  22
TORSDOF 4
ENDMDL
MODEL 3
REMARK VINA RESULT:      -8.4      1.581      2.130
REMARK  Name = 
REMARK  6 active torsions:
REMARK  status: ('A' for Active; 'I' for Inactive)
REMARK    1  A    between atoms: C_1  and  C_2
REMARK    2  A    between atoms: C_2  and  C_3
REMARK    3  A    between atoms: C_2  and  C_21
REMARK    4  A    between atoms: C_7  and  N_8
REMARK    5  A    between atoms: C_9  and  C_11
REMARK    6  A    between atoms: N_25  and  C_26
REMARK                            x       y       z     vdW  Elec       q    Type
REMARK                         _______ _______ _______ _____ _____    ______ ____
ROOT
ATOM      1  C   UNL     1       3.510   5.121  18.687  0.00  0.00    +0.000 A 
ATOM      2  C   UNL     1       3.043   3.851  19.059  0.00  0.00    +0.000 A 
ATOM      3  C   UNL     1       1.979   3.721  19.945  0.00  0.00    +0.000 A 
ATOM      4  C   UNL     1       1.396   4.856  20.508  0.00  0.00    +0.000 A 
ATOM      5  C   UNL     1       1.858   6.134  20.185  0.00  0.00    +0.000 A 
ATOM      6  C   UNL     1       2.874   6.262  19.225  0.00  0.00    +0.000 A 
ENDROOT
BRANCH   5   7
ATOM      7  N   UNL     1       1.396   7.300  20.834  0.00  0.00    +0.000 N 
ATOM      8  C   UNL     1       1.217   8.539  20.235  0.00  0.00    +0.000 C 
ATOM      9  O   UNL     1       1.512   8.847  19.083  0.00  0.00    +0.000 OA
ATOM     10  H   UNL     1       0.993   7.210  21.763  0.00  0.00    +0.000 HD
BRANCH   8  11
ATOM     11  C   UNL     1       0.528   9.563  21.088  0.00  0.00    +0.000 A 
ATOM     12  C   UNL     1      -0.144   9.133  22.246  0.00  0.00    +0.000 A 
ATOM     13  C   UNL     1      -0.734  10.077  23.085  0.00  0.00    +0.000 A 
ATOM     14  C   UNL     1      -0.620  11.395  22.712  0.00  0.00    +0.000 A 
ATOM     15  C   UNL     1       0.046  11.739  21.557  0.00  0.00    +0.000 A 
ATOM     16  N   UNL     1       0.640  10.871  20.708  0.00  0.00    +0.000 NA
ATOM     17  C   UNL     1       0.012  13.220  21.444  0.00  0.00    +0.000 C 
ATOM     18  N   UNL     1      -0.724  13.686  22.645  0.00  0.00    +0.000 NA
ATOM     19  O   UNL     1      -1.114  12.468  23.397  0.00  0.00    +0.000 OA
ATOM     20  H   UNL     1      -1.646  14.014  22.362  0.00  0.00    +0.000 HD
ENDBRANCH   8  11
ENDBRANCH   5   7
BRANCH   1  22
ATOM     21  C   UNL     1       4.879   3.987  16.904  0.00  0.00    +0.000 C 
ATOM     22  C   UNL     1       4.748   5.227  17.803  0.00  0.00    +0.000 C 
BRANCH  22  23
ATOM     23  C   UNL     1       6.016   5.469  18.570  0.00  0.00    +0.000 A 
ATOM     24  N   UNL     1       6.379   4.870  19.689  0.00  0.00    +0.000 NA
ATOM     25  N   UNL     1       7.644   5.288  20.018  0.00  0.00    +0.000 NA
ATOM     26  C   UNL     1       8.028   6.142  19.101  0.00  0.00    +0.000 A 
ATOM     27  N   UNL     1       7.040   6.295  18.178  0.00  0.00    +0.000 N 
ATOM     28  C   UNL     1       7.115   7.142  17.017  0.00  0.00    +0.000 C 
ENDBRANCH  22  23
ENDBRANCH   1  22
TORSDOF 4
ENDMDL
MODEL 4
REMARK VINA RESULT:      -8.4      0.684      1.257
REMARK  Name = 
REMARK  6 active torsions:
REMARK  status: ('A' for Active; 'I' for Inactive)
REMARK    1  A    between atoms: C_1  and  C_2
REMARK    2  A    between atoms: C_2  and  C_3
REMARK    3  A    between atoms: C_2  and  C_21
REMARK    4  A    between atoms: C_7  and  N_8
REMARK    5  A    between atoms: C_9  and  C_11
REMARK    6  A    between atoms: N_25  and  C_26
REMARK                            x       y       z     vdW  Elec       q    Type
REMARK                         _______ _______ _______ _____ _____    ______ ____
ROOT
ATOM      1  C   UNL     1       4.666   5.570  16.803  0.00  0.00    +0.000 A 
ATOM      2  C   UNL     1       4.134   4.271  16.832  0.00  0.00    +0.000 A 
ATOM      3  C   UNL     1       2.930   4.014  17.478  0.00  0.00    +0.000 A 
ATOM      4  C   UNL     1       2.262   5.041  18.144  0.00  0.00    +0.000 A 
ATOM      5  C   UNL     1       2.780   6.338  18.164  0.00  0.00    +0.000 A 
ATOM      6  C   UNL     1       3.950   6.609  17.438  0.00  0.00    +0.000 A 
ENDROOT
BRANCH   5   7
ATOM      7  N   UNL     1       2.215   7.374  18.940  0.00  0.00    +0.000 N 
ATOM      8  C   UNL     1       1.832   8.621  18.464  0.00  0.00    +0.000 C 
ATOM      9  O   UNL     1       2.001   9.057  17.329  0.00  0.00    +0.000 OA
ATOM     10  H   UNL     1       1.896   7.156  19.880  0.00  0.00    +0.000 HD
BRANCH   8  11
ATOM     11  C   UNL     1       1.077   9.469  19.445  0.00  0.00    +0.000 A 
ATOM     12  C   UNL     1       0.432  10.627  18.978  0.00  0.00    +0.000 A 
ATOM     13  C   UNL     1      -0.328  11.392  19.861  0.00  0.00    +0.000 A 
ATOM     14  C   UNL     1      -0.392  10.953  21.163  0.00  0.00    +0.000 A 
ATOM     15  C   UNL     1       0.276   9.813  21.549  0.00  0.00    +0.000 A 
ATOM     16  N   UNL     1       1.022   9.031  20.738  0.00  0.00    +0.000 NA
ATOM     17  C   UNL     1      -0.002   9.598  22.993  0.00  0.00    +0.000 C 
ATOM     18  N   UNL     1      -0.898  10.713  23.388  0.00  0.00    +0.000 NA
ATOM     19  O   UNL     1      -1.087  11.548  22.176  0.00  0.00    +0.000 OA
ATOM     20  H   UNL     1      -0.375  11.369  23.966  0.00  0.00    +0.000 HD
ENDBRANCH   8  11
ENDBRANCH   5   7
BRANCH   1  22
ATOM     21  C   UNL     1       6.657   4.461  15.734  0.00  0.00    +0.000 C 
ATOM     22  C   UNL     1       6.041   5.795  16.184  0.00  0.00    +0.000 C 
BRANCH  22  23
ATOM     23  C   UNL     1       6.986   6.549  17.075  0.00  0.00    +0.000 A 
ATOM     24  N   UNL     1       7.406   7.788  16.896  0.00  0.00    +0.000 NA
ATOM     25  N   UNL     1       8.172   8.148  17.976  0.00  0.00    +0.000 NA
ATOM     26  C   UNL     1       8.215   7.122  18.790  0.00  0.00    +0.000 A 
ATOM     27  N   UNL     1       7.495   6.093  18.266  0.00  0.00    +0.000 N 
ATOM     28  C   UNL     1       7.305   4.811  18.890  0.00  0.00    +0.000 C 
ENDBRANCH  22  23
ENDBRANCH   1  22
TORSDOF 4
ENDMDL
MODEL 5
REMARK VINA RESULT:      -8.1      2.301      3.740
REMARK  Name = 
REMARK  6 active torsions:
REMARK  status: ('A' for Active; 'I' for Inactive)
REMARK    1  A    between atoms: C_1  and  C_2
REMARK    2  A    between atoms: C_2  and  C_3
REMARK    3  A    between atoms: C_2  and  C_21
REMARK    4  A    between atoms: C_7  and  N_8
REMARK    5  A    between atoms: C_9  and  C_11
REMARK    6  A    between atoms: N_25  and  C_26
REMARK                            x       y       z     vdW  Elec       q    Type
REMARK                         _______ _______ _______ _____ _____    ______ ____
ROOT
ATOM      1  C   UNL     1       3.872   4.277  18.251  0.00  0.00    +0.000 A 
ATOM      2  C   UNL     1       4.578   4.550  17.070  0.00  0.00    +0.000 A 
ATOM      3  C   UNL     1       4.721   5.858  16.618  0.00  0.00    +0.000 A 
ATOM      4  C   UNL     1       4.122   6.907  17.315  0.00  0.00    +0.000 A 
ATOM      5  C   UNL     1       3.384   6.666  18.476  0.00  0.00    +0.000 A 
ATOM      6  C   UNL     1       3.316   5.356  18.973  0.00  0.00    +0.000 A 
ENDROOT
BRANCH   5   7
ATOM      7  N   UNL     1       2.645   7.674  19.134  0.00  0.00    +0.000 N 
ATOM      8  C   UNL     1       1.877   8.648  18.511  0.00  0.00    +0.000 C 
ATOM      9  O   UNL     1       1.788   8.851  17.303  0.00  0.00    +0.000 OA
ATOM     10  H   UNL     1       2.507   7.595  20.139  0.00  0.00    +0.000 HD
BRANCH   8  11
ATOM     11  C   UNL     1       1.032   9.476  19.434  0.00  0.00    +0.000 A 
ATOM     12  C   UNL     1       0.264  10.520  18.889  0.00  0.00    +0.000 A 
ATOM     13  C   UNL     1      -0.578  11.257  19.721  0.00  0.00    +0.000 A 
ATOM     14  C   UNL     1      -0.596  10.908  21.051  0.00  0.00    +0.000 A 
ATOM     15  C   UNL     1       0.193   9.879  21.512  0.00  0.00    +0.000 A 
ATOM     16  N   UNL     1       1.023   9.127  20.755  0.00  0.00    +0.000 NA
ATOM     17  C   UNL     1      -0.062   9.737  22.970  0.00  0.00    +0.000 C 
ATOM     18  N   UNL     1      -1.076  10.772  23.290  0.00  0.00    +0.000 NA
ATOM     19  O   UNL     1      -1.354  11.493  22.023  0.00  0.00    +0.000 OA
ATOM     20  H   UNL     1      -0.630  11.521  23.817  0.00  0.00    +0.000 HD
ENDBRANCH   8  11
ENDBRANCH   5   7
BRANCH   1  22
ATOM     21  C   UNL     1       2.897   2.066  17.545  0.00  0.00    +0.000 C 
ATOM     22  C   UNL     1       3.639   2.825  18.656  0.00  0.00    +0.000 C 
BRANCH  22  23
ATOM     23  C   UNL     1       2.933   2.674  19.973  0.00  0.00    +0.000 A 
ATOM     24  N   UNL     1       3.506   2.564  21.158  0.00  0.00    +0.000 NA
ATOM     25  N   UNL     1       2.525   2.550  22.117  0.00  0.00    +0.000 NA
ATOM     26  C   UNL     1       1.371   2.641  21.503  0.00  0.00    +0.000 A 
ATOM     27  N   UNL     1       1.574   2.712  20.159  0.00  0.00    +0.000 N 
ATOM     28  C   UNL     1       0.537   2.836  19.169  0.00  0.00    +0.000 C 
ENDBRANCH  22  23
ENDBRANCH   1  22
TORSDOF 4
ENDMDL
MODEL 6
REMARK VINA RESULT:      -8.1      1.097      1.136
REMARK  Name = 
REMARK  6 active torsions:
REMARK  status: ('A' for Active; 'I' for Inactive)
REMARK    1  A    between atoms: C_1  and  C_2
REMARK    2  A    between atoms: C_2  and  C_3
REMARK    3  A    between atoms: C_2  and  C_21
REMARK    4  A    between atoms: C_7  and  N_8
REMARK    5  A    between atoms: C_9  and  C_11
REMARK    6  A    between atoms: N_25  and  C_26
REMARK                            x       y       z     vdW  Elec       q    Type
REMARK                         _______ _______ _______ _____ _____    ______ ____
ROOT
ATOM      1  C   UNL     1       4.564   5.105  16.985  0.00  0.00    +0.000 A 
ATOM      2  C   UNL     1       3.961   3.840  16.917  0.00  0.00    +0.000 A 
ATOM      3  C   UNL     1       2.647   3.659  17.334  0.00  0.00    +0.000 A 
ATOM      4  C   UNL     1       1.931   4.730  17.868  0.00  0.00    +0.000 A 
ATOM      5  C   UNL     1       2.511   5.996  17.981  0.00  0.00    +0.000 A 
ATOM      6  C   UNL     1       3.807   6.191  17.479  0.00  0.00    +0.000 A 
ENDROOT
BRANCH   5   7
ATOM      7  N   UNL     1       1.878   7.071  18.641  0.00  0.00    +0.000 N 
ATOM      8  C   UNL     1       1.710   7.189  20.014  0.00  0.00    +0.000 C 
ATOM      9  O   UNL     1       1.998   6.350  20.863  0.00  0.00    +0.000 OA
ATOM     10  H   UNL     1       1.676   7.914  18.110  0.00  0.00    +0.000 HD
BRANCH   8  11
ATOM     11  C   UNL     1       1.185   8.515  20.478  0.00  0.00    +0.000 A 
ATOM     12  C   UNL     1       1.283   9.619  19.612  0.00  0.00    +0.000 A 
ATOM     13  C   UNL     1       0.742  10.844  20.000  0.00  0.00    +0.000 A 
ATOM     14  C   UNL     1       0.139  10.891  21.235  0.00  0.00    +0.000 A 
ATOM     15  C   UNL     1       0.091   9.770  22.032  0.00  0.00    +0.000 A 
ATOM     16  N   UNL     1       0.593   8.557  21.709  0.00  0.00    +0.000 NA
ATOM     17  C   UNL     1      -0.632  10.136  23.278  0.00  0.00    +0.000 C 
ATOM     18  N   UNL     1      -0.999  11.564  23.110  0.00  0.00    +0.000 NA
ATOM     19  O   UNL     1      -0.458  11.985  21.794  0.00  0.00    +0.000 OA
ATOM     20  H   UNL     1      -0.415  12.131  23.723  0.00  0.00    +0.000 HD
ENDBRANCH   8  11
ENDBRANCH   5   7
BRANCH   1  22
ATOM     21  C   UNL     1       6.517   4.027  15.818  0.00  0.00    +0.000 C 
ATOM     22  C   UNL     1       6.039   5.244  16.625  0.00  0.00    +0.000 C 
BRANCH  22  23
ATOM     23  C   UNL     1       6.928   5.483  17.811  0.00  0.00    +0.000 A 
ATOM     24  N   UNL     1       7.301   4.583  18.702  0.00  0.00    +0.000 NA
ATOM     25  N   UNL     1       8.192   5.167  19.567  0.00  0.00    +0.000 NA
ATOM     26  C   UNL     1       8.341   6.415  19.197  0.00  0.00    +0.000 A 
ATOM     27  N   UNL     1       7.563   6.664  18.108  0.00  0.00    +0.000 N 
ATOM     28  C   UNL     1       7.483   7.923  17.417  0.00  0.00    +0.000 C 
ENDBRANCH  22  23
ENDBRANCH   1  22
TORSDOF 4
ENDMDL
MODEL 7
REMARK VINA RESULT:      -8.0      3.258      5.052
REMARK  Name = 
REMARK  6 active torsions:
REMARK  status: ('A' for Active; 'I' for Inactive)
REMARK    1  A    between atoms: C_1  and  C_2
REMARK    2  A    between atoms: C_2  and  C_3
REMARK    3  A    between atoms: C_2  and  C_21
REMARK    4  A    between atoms: C_7  and  N_8
REMARK    5  A    between atoms: C_9  and  C_11
REMARK    6  A    between atoms: N_25  and  C_26
REMARK                            x       y       z     vdW  Elec       q    Type
REMARK                         _______ _______ _______ _____ _____    ______ ____
ROOT
ATOM      1  C   UNL     1       2.531   7.051  19.363  0.00  0.00    +0.000 A 
ATOM      2  C   UNL     1       2.920   7.514  18.097  0.00  0.00    +0.000 A 
ATOM      3  C   UNL     1       2.436   8.722  17.607  0.00  0.00    +0.000 A 
ATOM      4  C   UNL     1       1.522   9.463  18.355  0.00  0.00    +0.000 A 
ATOM      5  C   UNL     1       1.088   9.015  19.605  0.00  0.00    +0.000 A 
ATOM      6  C   UNL     1       1.646   7.840  20.131  0.00  0.00    +0.000 A 
ENDROOT
BRANCH   5   7
ATOM      7  N   UNL     1       0.062   9.657  20.333  0.00  0.00    +0.000 N 
ATOM      8  C   UNL     1       0.222  10.779  21.134  0.00  0.00    +0.000 C 
ATOM      9  O   UNL     1       1.279  11.337  21.412  0.00  0.00    +0.000 OA
ATOM     10  H   UNL     1      -0.902   9.403  20.135  0.00  0.00    +0.000 HD
BRANCH   8  11
ATOM     11  C   UNL     1      -1.054  11.385  21.639  0.00  0.00    +0.000 A 
ATOM     12  C   UNL     1      -1.376  11.241  23.000  0.00  0.00    +0.000 A 
ATOM     13  C   UNL     1      -2.525  11.852  23.500  0.00  0.00    +0.000 A 
ATOM     14  C   UNL     1      -3.286  12.568  22.606  0.00  0.00    +0.000 A 
ATOM     15  C   UNL     1      -2.911  12.655  21.284  0.00  0.00    +0.000 A 
ATOM     16  N   UNL     1      -1.809  12.089  20.743  0.00  0.00    +0.000 NA
ATOM     17  C   UNL     1      -3.916  13.500  20.588  0.00  0.00    +0.000 C 
ATOM     18  N   UNL     1      -4.888  13.893  21.638  0.00  0.00    +0.000 NA
ATOM     19  O   UNL     1      -4.434  13.246  22.894  0.00  0.00    +0.000 OA
ATOM     20  H   UNL     1      -5.759  13.386  21.490  0.00  0.00    +0.000 HD
ENDBRANCH   8  11
ENDBRANCH   5   7
BRANCH   1  22
ATOM     21  C   UNL     1       4.445   5.416  19.396  0.00  0.00    +0.000 C 
ATOM     22  C   UNL     1       2.991   5.671  19.822  0.00  0.00    +0.000 C 
BRANCH  22  23
ATOM     23  C   UNL     1       2.095   4.556  19.366  0.00  0.00    +0.000 A 
ATOM     24  N   UNL     1       1.653   4.362  18.137  0.00  0.00    +0.000 NA
ATOM     25  N   UNL     1       0.950   3.184  18.107  0.00  0.00    +0.000 NA
ATOM     26  C   UNL     1       0.965   2.684  19.318  0.00  0.00    +0.000 A 
ATOM     27  N   UNL     1       1.662   3.511  20.144  0.00  0.00    +0.000 N 
ATOM     28  C   UNL     1       1.901   3.276  21.544  0.00  0.00    +0.000 C 
ENDBRANCH  22  23
ENDBRANCH   1  22
TORSDOF 4
ENDMDL
MODEL 8
REMARK VINA RESULT:      -8.0      1.669      2.468
REMARK  Name = 
REMARK  6 active torsions:
REMARK  status: ('A' for Active; 'I' for Inactive)
REMARK    1  A    between atoms: C_1  and  C_2
REMARK    2  A    between atoms: C_2  and  C_3
REMARK    3  A    between atoms: C_2  and  C_21
REMARK    4  A    between atoms: C_7  and  N_8
REMARK    5  A    between atoms: C_9  and  C_11
REMARK    6  A    between atoms: N_25  and  C_26
REMARK                            x       y       z     vdW  Elec       q    Type
REMARK                         _______ _______ _______ _____ _____    ______ ____
ROOT
ATOM      1  C   UNL     1       5.272   4.537  18.860  0.00  0.00    +0.000 A 
ATOM      2  C   UNL     1       4.770   3.278  19.224  0.00  0.00    +0.000 A 
ATOM      3  C   UNL     1       3.519   3.161  19.819  0.00  0.00    +0.000 A 
ATOM      4  C   UNL     1       2.770   4.303  20.101  0.00  0.00    +0.000 A 
ATOM      5  C   UNL     1       3.254   5.574  19.783  0.00  0.00    +0.000 A 
ATOM      6  C   UNL     1       4.478   5.679  19.105  0.00  0.00    +0.000 A 
ENDROOT
BRANCH   5   7
ATOM      7  N   UNL     1       2.599   6.762  20.176  0.00  0.00    +0.000 N 
ATOM      8  C   UNL     1       2.085   7.722  19.316  0.00  0.00    +0.000 C 
ATOM      9  O   UNL     1       2.193   7.744  18.093  0.00  0.00    +0.000 OA
ATOM     10  H   UNL     1       2.316   6.860  21.148  0.00  0.00    +0.000 HD
BRANCH   8  11
ATOM     11  C   UNL     1       1.262   8.789  19.975  0.00  0.00    +0.000 A 
ATOM     12  C   UNL     1       0.729   9.818  19.178  0.00  0.00    +0.000 A 
ATOM     13  C   UNL     1      -0.092  10.781  19.762  0.00  0.00    +0.000 A 
ATOM     14  C   UNL     1      -0.326  10.660  21.111  0.00  0.00    +0.000 A 
ATOM     15  C   UNL     1       0.240   9.630  21.828  0.00  0.00    +0.000 A 
ATOM     16  N   UNL     1       1.038   8.666  21.317  0.00  0.00    +0.000 NA
ATOM     17  C   UNL     1      -0.213   9.763  23.238  0.00  0.00    +0.000 C 
ATOM     18  N   UNL     1      -1.095  10.955  23.252  0.00  0.00    +0.000 NA
ATOM     19  O   UNL     1      -1.105  11.488  21.867  0.00  0.00    +0.000 OA
ATOM     20  H   UNL     1      -0.613  11.718  23.725  0.00  0.00    +0.000 HD
ENDBRANCH   8  11
ENDBRANCH   5   7
BRANCH   1  22
ATOM     21  C   UNL     1       7.496   5.693  19.091  0.00  0.00    +0.000 C 
ATOM     22  C   UNL     1       6.691   4.640  18.313  0.00  0.00    +0.000 C 
BRANCH  22  23
ATOM     23  C   UNL     1       6.750   4.903  16.837  0.00  0.00    +0.000 A 
ATOM     24  N   UNL     1       7.612   5.689  16.217  0.00  0.00    +0.000 NA
ATOM     25  N   UNL     1       7.405   5.583  14.865  0.00  0.00    +0.000 NA
ATOM     26  C   UNL     1       6.416   4.743  14.681  0.00  0.00    +0.000 A 
ATOM     27  N   UNL     1       5.967   4.297  15.886  0.00  0.00    +0.000 N 
ATOM     28  C   UNL     1       4.900   3.350  16.074  0.00  0.00    +0.000 C 
ENDBRANCH  22  23
ENDBRANCH   1  22
TORSDOF 4
ENDMDL
MODEL 9
REMARK VINA RESULT:      -7.9      1.395      1.829
REMARK  Name = 
REMARK  6 active torsions:
REMARK  status: ('A' for Active; 'I' for Inactive)
REMARK    1  A    between atoms: C_1  and  C_2
REMARK    2  A    between atoms: C_2  and  C_3
REMARK    3  A    between atoms: C_2  and  C_21
REMARK    4  A    between atoms: C_7  and  N_8
REMARK    5  A    between atoms: C_9  and  C_11
REMARK    6  A    between atoms: N_25  and  C_26
REMARK                            x       y       z     vdW  Elec       q    Type
REMARK                         _______ _______ _______ _____ _____    ______ ____
ROOT
ATOM      1  C   UNL     1       4.483   5.127  16.983  0.00  0.00    +0.000 A 
ATOM      2  C   UNL     1       3.875   3.865  16.898  0.00  0.00    +0.000 A 
ATOM      3  C   UNL     1       2.569   3.679  17.338  0.00  0.00    +0.000 A 
ATOM      4  C   UNL     1       1.868   4.739  17.912  0.00  0.00    +0.000 A 
ATOM      5  C   UNL     1       2.454   5.999  18.042  0.00  0.00    +0.000 A 
ATOM      6  C   UNL     1       3.740   6.203  17.518  0.00  0.00    +0.000 A 
ENDROOT
BRANCH   5   7
ATOM      7  N   UNL     1       1.838   7.060  18.741  0.00  0.00    +0.000 N 
ATOM      8  C   UNL     1       1.708   7.151  20.120  0.00  0.00    +0.000 C 
ATOM      9  O   UNL     1       2.019   6.295  20.944  0.00  0.00    +0.000 OA
ATOM     10  H   UNL     1       1.622   7.914  18.232  0.00  0.00    +0.000 HD
BRANCH   8  11
ATOM     11  C   UNL     1       1.195   8.467  20.624  0.00  0.00    +0.000 A 
ATOM     12  C   UNL     1       0.764   8.555  21.960  0.00  0.00    +0.000 A 
ATOM     13  C   UNL     1       0.345   9.786  22.464  0.00  0.00    +0.000 A 
ATOM     14  C   UNL     1       0.379  10.854  21.599  0.00  0.00    +0.000 A 
ATOM     15  C   UNL     1       0.804  10.687  20.301  0.00  0.00    +0.000 A 
ATOM     16  N   UNL     1       1.225   9.523  19.758  0.00  0.00    +0.000 NA
ATOM     17  C   UNL     1       0.742  12.014  19.634  0.00  0.00    +0.000 C 
ATOM     18  N   UNL     1       0.253  12.950  20.677  0.00  0.00    +0.000 NA
ATOM     19  O   UNL     1       0.023  12.138  21.897  0.00  0.00    +0.000 OA
ATOM     20  H   UNL     1      -0.708  13.211  20.462  0.00  0.00    +0.000 HD
ENDBRANCH   8  11
ENDBRANCH   5   7
BRANCH   1  22
ATOM     21  C   UNL     1       6.409   4.069  15.754  0.00  0.00    +0.000 C 
ATOM     22  C   UNL     1       5.951   5.271  16.596  0.00  0.00    +0.000 C 
BRANCH  22  23
ATOM     23  C   UNL     1       6.864   5.484  17.767  0.00  0.00    +0.000 A 
ATOM     24  N   UNL     1       7.246   4.567  18.637  0.00  0.00    +0.000 NA
ATOM     25  N   UNL     1       8.159   5.130  19.493  0.00  0.00    +0.000 NA
ATOM     26  C   UNL     1       8.312   6.382  19.139  0.00  0.00    +0.000 A 
ATOM     27  N   UNL     1       7.516   6.655  18.069  0.00  0.00    +0.000 N 
ATOM     28  C   UNL     1       7.433   7.925  17.399  0.00  0.00    +0.000 C 
ENDBRANCH  22  23
ENDBRANCH   1  22
TORSDOF 4
ENDMDL
