MODEL 1
REMARK VINA RESULT:      -8.1      0.000      0.000
REMARK  Name = 
REMARK  4 active torsions:
REMARK  status: ('A' for Active; 'I' for Inactive)
REMARK    1  A    between atoms: C_1  and  C_2
REMARK    2  A    between atoms: C_4  and  C_5
REMARK    3  A    between atoms: C_14  and  C_15
REMARK    4  A    between atoms: C_23  and  N_24
REMARK                            x       y       z     vdW  Elec       q    Type
REMARK                         _______ _______ _______ _____ _____    ______ ____
ROOT
ATOM      1  C   UNL     1       1.306  11.574  18.761  0.00  0.00    +0.000 C 
ATOM      2  O   UNL     1       2.278  12.306  18.967  0.00  0.00    +0.000 OA
ATOM      3  N   UNL     1       0.006  12.120  18.596  0.00  0.00    +0.000 N 
ATOM      4  C   UNL     1      -0.101  13.582  18.670  0.00  0.00    +0.000 C 
ATOM      5  C   UNL     1      -0.654  14.187  20.005  0.00  0.00    +0.000 C 
ATOM      6  N   UNL     1      -1.464  13.452  21.005  0.00  0.00    +0.000 N 
ATOM      7  C   UNL     1      -1.693  12.143  21.312  0.00  0.00    +0.000 C 
ATOM      8  O   UNL     1      -2.353  11.887  22.321  0.00  0.00    +0.000 OA
ATOM      9  C   UNL     1      -1.172  11.026  20.441  0.00  0.00    +0.000 C 
ATOM     10  C   UNL     1      -1.253  11.485  18.994  0.00  0.00    +0.000 C 
ATOM     11  H   UNL     1      -1.918  14.045  21.692  0.00  0.00    +0.000 HD
ENDROOT
BRANCH   1  15
ATOM     12  C   UNL     1       1.483   7.154  21.147  0.00  0.00    +0.000 C 
ATOM     13  C   UNL     1       1.700   7.887  19.846  0.00  0.00    +0.000 A 
ATOM     14  C   UNL     1       1.361   9.277  19.819  0.00  0.00    +0.000 A 
ATOM     15  C   UNL     1       1.596  10.098  18.696  0.00  0.00    +0.000 A 
ATOM     16  C   UNL     1       2.241   9.521  17.618  0.00  0.00    +0.000 A 
ATOM     17  C   UNL     1       2.566   8.151  17.622  0.00  0.00    +0.000 A 
ATOM     18  C   UNL     1       2.277   7.290  18.700  0.00  0.00    +0.000 A 
BRANCH  18  19
ATOM     19  N   UNL     1       2.566   5.893  18.565  0.00  0.00    +0.000 N 
ATOM     20  C   UNL     1       1.693   4.905  17.959  0.00  0.00    +0.000 C 
ATOM     21  C   UNL     1       2.616   3.751  17.604  0.00  0.00    +0.000 C 
ATOM     22  N   UNL     1       3.695   3.924  18.518  0.00  0.00    +0.000 N 
ATOM     23  C   UNL     1       3.766   5.245  18.945  0.00  0.00    +0.000 C 
ATOM     24  O   UNL     1       4.740   5.680  19.542  0.00  0.00    +0.000 OA
ATOM     25  H   UNL     1       4.549   3.365  18.532  0.00  0.00    +0.000 HD
ENDBRANCH  18  19
ENDBRANCH   1  15
BRANCH  10  26
ATOM     26  C   UNL     1      -2.251  10.918  17.996  0.00  0.00    +0.000 A 
ATOM     27  C   UNL     1      -3.502  11.575  17.890  0.00  0.00    +0.000 A 
ATOM     28  C   UNL     1      -4.349  11.365  16.803  0.00  0.00    +0.000 A 
ATOM     29  C   UNL     1      -3.976  10.476  15.805  0.00  0.00    +0.000 A 
ATOM     30  C   UNL     1      -2.746   9.823  15.881  0.00  0.00    +0.000 A 
ATOM     31  C   UNL     1      -1.879  10.056  16.957  0.00  0.00    +0.000 A 
ENDBRANCH  10  26
TORSDOF 3
ENDMDL
MODEL 2
REMARK VINA RESULT:      -7.8      3.369      8.933
REMARK  Name = 
REMARK  4 active torsions:
REMARK  status: ('A' for Active; 'I' for Inactive)
REMARK    1  A    between atoms: C_1  and  C_2
REMARK    2  A    between atoms: C_4  and  C_5
REMARK    3  A    between atoms: C_14  and  C_15
REMARK    4  A    between atoms: C_23  and  N_24
REMARK                            x       y       z     vdW  Elec       q    Type
REMARK                         _______ _______ _______ _____ _____    ______ ____
ROOT
ATOM      1  C   UNL     1       2.184   4.305  18.006  0.00  0.00    +0.000 C 
ATOM      2  O   UNL     1       1.205   3.653  17.629  0.00  0.00    +0.000 OA
ATOM      3  N   UNL     1       3.503   3.832  17.780  0.00  0.00    +0.000 N 
ATOM      4  C   UNL     1       3.625   2.554  17.070  0.00  0.00    +0.000 C 
ATOM      5  C   UNL     1       3.950   1.289  17.935  0.00  0.00    +0.000 C 
ATOM      6  N   UNL     1       4.558   1.311  19.286  0.00  0.00    +0.000 N 
ATOM      7  C   UNL     1       4.704   2.232  20.282  0.00  0.00    +0.000 C 
ATOM      8  O   UNL     1       5.173   1.857  21.358  0.00  0.00    +0.000 OA
ATOM      9  C   UNL     1       4.320   3.677  20.081  0.00  0.00    +0.000 C 
ATOM     10  C   UNL     1       4.661   4.057  18.649  0.00  0.00    +0.000 C 
ATOM     11  H   UNL     1       4.897   0.410  19.606  0.00  0.00    +0.000 HD
ENDROOT
BRANCH   1  15
ATOM     12  C   UNL     1       2.107   9.326  17.817  0.00  0.00    +0.000 C 
ATOM     13  C   UNL     1       1.830   8.098  18.648  0.00  0.00    +0.000 A 
ATOM     14  C   UNL     1       2.019   6.829  18.014  0.00  0.00    +0.000 A 
ATOM     15  C   UNL     1       1.880   5.604  18.702  0.00  0.00    +0.000 A 
ATOM     16  C   UNL     1       1.614   5.670  20.056  0.00  0.00    +0.000 A 
ATOM     17  C   UNL     1       1.410   6.909  20.691  0.00  0.00    +0.000 A 
ATOM     18  C   UNL     1       1.469   8.145  20.015  0.00  0.00    +0.000 A 
BRANCH  18  19
ATOM     19  N   UNL     1       1.152   9.343  20.736  0.00  0.00    +0.000 N 
ATOM     20  C   UNL     1       1.777  10.637  20.540  0.00  0.00    +0.000 C 
ATOM     21  C   UNL     1       0.788  11.629  21.131  0.00  0.00    +0.000 C 
ATOM     22  N   UNL     1       0.070  10.829  22.067  0.00  0.00    +0.000 N 
ATOM     23  C   UNL     1       0.144   9.485  21.719  0.00  0.00    +0.000 C 
ATOM     24  O   UNL     1      -0.580   8.644  22.232  0.00  0.00    +0.000 OA
ATOM     25  H   UNL     1      -0.733  11.144  22.614  0.00  0.00    +0.000 HD
ENDBRANCH  18  19
ENDBRANCH   1  15
BRANCH  10  26
ATOM     26  C   UNL     1       5.806   4.990  18.286  0.00  0.00    +0.000 A 
ATOM     27  C   UNL     1       5.538   5.998  17.328  0.00  0.00    +0.000 A 
ATOM     28  C   UNL     1       6.382   7.096  17.165  0.00  0.00    +0.000 A 
ATOM     29  C   UNL     1       7.526   7.203  17.944  0.00  0.00    +0.000 A 
ATOM     30  C   UNL     1       7.807   6.228  18.901  0.00  0.00    +0.000 A 
ATOM     31  C   UNL     1       6.945   5.140  19.087  0.00  0.00    +0.000 A 
ENDBRANCH  10  26
TORSDOF 3
ENDMDL
MODEL 3
REMARK VINA RESULT:      -7.7      0.918      1.132
REMARK  Name = 
REMARK  4 active torsions:
REMARK  status: ('A' for Active; 'I' for Inactive)
REMARK    1  A    between atoms: C_1  and  C_2
REMARK    2  A    between atoms: C_4  and  C_5
REMARK    3  A    between atoms: C_14  and  C_15
REMARK    4  A    between atoms: C_23  and  N_24
REMARK                            x       y       z     vdW  Elec       q    Type
REMARK                         _______ _______ _______ _____ _____    ______ ____
ROOT
ATOM      1  C   UNL     1       1.223  11.698  18.745  0.00  0.00    +0.000 C 
ATOM      2  O   UNL     1       2.165  12.471  18.946  0.00  0.00    +0.000 OA
ATOM      3  N   UNL     1      -0.086  12.193  18.514  0.00  0.00    +0.000 N 
ATOM      4  C   UNL     1      -0.241  13.652  18.512  0.00  0.00    +0.000 C 
ATOM      5  C   UNL     1      -0.856  14.303  19.797  0.00  0.00    +0.000 C 
ATOM      6  N   UNL     1      -1.675  13.591  20.807  0.00  0.00    +0.000 N 
ATOM      7  C   UNL     1      -1.874  12.292  21.171  0.00  0.00    +0.000 C 
ATOM      8  O   UNL     1      -2.557  12.064  22.170  0.00  0.00    +0.000 OA
ATOM      9  C   UNL     1      -1.290  11.152  20.373  0.00  0.00    +0.000 C 
ATOM     10  C   UNL     1      -1.338  11.538  18.903  0.00  0.00    +0.000 C 
ATOM     11  H   UNL     1      -2.169  14.202  21.449  0.00  0.00    +0.000 HD
ENDROOT
BRANCH   1  15
ATOM     12  C   UNL     1       1.358   7.383  21.319  0.00  0.00    +0.000 C 
ATOM     13  C   UNL     1       1.647   8.071  20.008  0.00  0.00    +0.000 A 
ATOM     14  C   UNL     1       1.270   9.448  19.900  0.00  0.00    +0.000 A 
ATOM     15  C   UNL     1       1.561  10.231  18.762  0.00  0.00    +0.000 A 
ATOM     16  C   UNL     1       2.299   9.634  17.759  0.00  0.00    +0.000 A 
ATOM     17  C   UNL     1       2.663   8.276  17.842  0.00  0.00    +0.000 A 
ATOM     18  C   UNL     1       2.323   7.449  18.932  0.00  0.00    +0.000 A 
BRANCH  18  19
ATOM     19  N   UNL     1       2.662   6.057  18.875  0.00  0.00    +0.000 N 
ATOM     20  C   UNL     1       3.750   5.423  19.594  0.00  0.00    +0.000 C 
ATOM     21  C   UNL     1       3.382   3.948  19.611  0.00  0.00    +0.000 C 
ATOM     22  N   UNL     1       2.531   3.827  18.475  0.00  0.00    +0.000 N 
ATOM     23  C   UNL     1       1.966   5.056  18.155  0.00  0.00    +0.000 C 
ATOM     24  O   UNL     1       1.031   5.154  17.374  0.00  0.00    +0.000 OA
ATOM     25  H   UNL     1       2.031   2.979  18.203  0.00  0.00    +0.000 HD
ENDBRANCH  18  19
ENDBRANCH   1  15
BRANCH  10  26
ATOM     26  C   UNL     1      -2.285  10.891  17.904  0.00  0.00    +0.000 A 
ATOM     27  C   UNL     1      -3.546  11.507  17.718  0.00  0.00    +0.000 A 
ATOM     28  C   UNL     1      -4.348  11.216  16.616  0.00  0.00    +0.000 A 
ATOM     29  C   UNL     1      -3.917  10.285  15.681  0.00  0.00    +0.000 A 
ATOM     30  C   UNL     1      -2.675   9.670  15.837  0.00  0.00    +0.000 A 
ATOM     31  C   UNL     1      -1.854   9.984  16.928  0.00  0.00    +0.000 A 
ENDBRANCH  10  26
TORSDOF 3
ENDMDL
MODEL 4
REMARK VINA RESULT:      -7.5      2.295      4.160
REMARK  Name = 
REMARK  4 active torsions:
REMARK  status: ('A' for Active; 'I' for Inactive)
REMARK    1  A    between atoms: C_1  and  C_2
REMARK    2  A    between atoms: C_4  and  C_5
REMARK    3  A    between atoms: C_14  and  C_15
REMARK    4  A    between atoms: C_23  and  N_24
REMARK                            x       y       z     vdW  Elec       q    Type
REMARK                         _______ _______ _______ _____ _____    ______ ____
ROOT
ATOM      1  C   UNL     1       0.073   9.503  21.840  0.00  0.00    +0.000 C 
ATOM      2  O   UNL     1      -0.607   9.022  22.751  0.00  0.00    +0.000 OA
ATOM      3  N   UNL     1       0.075  10.901  21.595  0.00  0.00    +0.000 N 
ATOM      4  C   UNL     1      -0.754  11.721  22.487  0.00  0.00    +0.000 C 
ATOM      5  C   UNL     1      -2.128  12.217  21.923  0.00  0.00    +0.000 C 
ATOM      6  N   UNL     1      -2.476  12.314  20.485  0.00  0.00    +0.000 N 
ATOM      7  C   UNL     1      -2.008  11.775  19.323  0.00  0.00    +0.000 C 
ATOM      8  O   UNL     1      -2.637  11.989  18.286  0.00  0.00    +0.000 OA
ATOM      9  C   UNL     1      -0.745  10.949  19.290  0.00  0.00    +0.000 C 
ATOM     10  C   UNL     1       0.231  11.548  20.290  0.00  0.00    +0.000 C 
ATOM     11  H   UNL     1      -3.314  12.854  20.294  0.00  0.00    +0.000 HD
ENDROOT
BRANCH   1  15
ATOM     12  C   UNL     1       2.538   8.496  17.578  0.00  0.00    +0.000 C 
ATOM     13  C   UNL     1       2.109   7.983  18.930  0.00  0.00    +0.000 A 
ATOM     14  C   UNL     1       1.411   8.898  19.781  0.00  0.00    +0.000 A 
ATOM     15  C   UNL     1       0.879   8.522  21.033  0.00  0.00    +0.000 A 
ATOM     16  C   UNL     1       0.998   7.193  21.393  0.00  0.00    +0.000 A 
ATOM     17  C   UNL     1       1.696   6.284  20.575  0.00  0.00    +0.000 A 
ATOM     18  C   UNL     1       2.301   6.647  19.355  0.00  0.00    +0.000 A 
BRANCH  18  19
ATOM     19  N   UNL     1       3.068   5.666  18.645  0.00  0.00    +0.000 N 
ATOM     20  C   UNL     1       4.511   5.528  18.691  0.00  0.00    +0.000 C 
ATOM     21  C   UNL     1       4.770   4.106  18.221  0.00  0.00    +0.000 C 
ATOM     22  N   UNL     1       3.613   3.822  17.440  0.00  0.00    +0.000 N 
ATOM     23  C   UNL     1       2.553   4.634  17.825  0.00  0.00    +0.000 C 
ATOM     24  O   UNL     1       1.406   4.415  17.463  0.00  0.00    +0.000 OA
ATOM     25  H   UNL     1       3.401   2.920  17.011  0.00  0.00    +0.000 HD
ENDBRANCH  18  19
ENDBRANCH   1  15
BRANCH  10  26
ATOM     26  C   UNL     1       1.488  12.298  19.877  0.00  0.00    +0.000 A 
ATOM     27  C   UNL     1       1.825  12.285  18.501  0.00  0.00    +0.000 A 
ATOM     28  C   UNL     1       2.738  13.190  17.963  0.00  0.00    +0.000 A 
ATOM     29  C   UNL     1       3.354  14.118  18.791  0.00  0.00    +0.000 A 
ATOM     30  C   UNL     1       3.033  14.157  20.148  0.00  0.00    +0.000 A 
ATOM     31  C   UNL     1       2.093  13.268  20.685  0.00  0.00    +0.000 A 
ENDBRANCH  10  26
TORSDOF 3
ENDMDL
MODEL 5
REMARK VINA RESULT:      -7.4      2.360      4.032
REMARK  Name = 
REMARK  4 active torsions:
REMARK  status: ('A' for Active; 'I' for Inactive)
REMARK    1  A    between atoms: C_1  and  C_2
REMARK    2  A    between atoms: C_4  and  C_5
REMARK    3  A    between atoms: C_14  and  C_15
REMARK    4  A    between atoms: C_23  and  N_24
REMARK                            x       y       z     vdW  Elec       q    Type
REMARK                         _______ _______ _______ _____ _____    ______ ____
ROOT
ATOM      1  C   UNL     1       0.094   9.349  21.678  0.00  0.00    +0.000 C 
ATOM      2  O   UNL     1      -0.565   8.835  22.587  0.00  0.00    +0.000 OA
ATOM      3  N   UNL     1       0.114  10.757  21.501  0.00  0.00    +0.000 N 
ATOM      4  C   UNL     1      -0.671  11.546  22.458  0.00  0.00    +0.000 C 
ATOM      5  C   UNL     1      -2.053  12.093  21.964  0.00  0.00    +0.000 C 
ATOM      6  N   UNL     1      -2.445  12.265  20.545  0.00  0.00    +0.000 N 
ATOM      7  C   UNL     1      -2.024  11.776  19.343  0.00  0.00    +0.000 C 
ATOM      8  O   UNL     1      -2.682  12.051  18.339  0.00  0.00    +0.000 OA
ATOM      9  C   UNL     1      -0.779  10.932  19.229  0.00  0.00    +0.000 C 
ATOM     10  C   UNL     1       0.240  11.465  20.224  0.00  0.00    +0.000 C 
ATOM     11  H   UNL     1      -3.278  12.828  20.408  0.00  0.00    +0.000 HD
ENDROOT
BRANCH   1  15
ATOM     12  C   UNL     1       2.108   4.784  21.079  0.00  0.00    +0.000 C 
ATOM     13  C   UNL     1       1.872   6.141  20.464  0.00  0.00    +0.000 A 
ATOM     14  C   UNL     1       1.081   7.066  21.217  0.00  0.00    +0.000 A 
ATOM     15  C   UNL     1       0.857   8.396  20.798  0.00  0.00    +0.000 A 
ATOM     16  C   UNL     1       1.496   8.808  19.645  0.00  0.00    +0.000 A 
ATOM     17  C   UNL     1       2.265   7.906  18.885  0.00  0.00    +0.000 A 
ATOM     18  C   UNL     1       2.446   6.553  19.239  0.00  0.00    +0.000 A 
BRANCH  18  19
ATOM     19  N   UNL     1       3.170   5.697  18.346  0.00  0.00    +0.000 N 
ATOM     20  C   UNL     1       4.595   5.759  18.086  0.00  0.00    +0.000 C 
ATOM     21  C   UNL     1       4.936   4.392  17.515  0.00  0.00    +0.000 C 
ATOM     22  N   UNL     1       3.688   3.960  16.980  0.00  0.00    +0.000 N 
ATOM     23  C   UNL     1       2.634   4.613  17.610  0.00  0.00    +0.000 C 
ATOM     24  O   UNL     1       1.476   4.240  17.486  0.00  0.00    +0.000 OA
ATOM     25  H   UNL     1       3.511   3.042  16.569  0.00  0.00    +0.000 HD
ENDBRANCH  18  19
ENDBRANCH   1  15
BRANCH  10  26
ATOM     26  C   UNL     1       1.497  12.213  19.807  0.00  0.00    +0.000 A 
ATOM     27  C   UNL     1       1.834  12.192  18.432  0.00  0.00    +0.000 A 
ATOM     28  C   UNL     1       2.747  13.094  17.888  0.00  0.00    +0.000 A 
ATOM     29  C   UNL     1       3.362  14.028  18.710  0.00  0.00    +0.000 A 
ATOM     30  C   UNL     1       3.040  14.075  20.067  0.00  0.00    +0.000 A 
ATOM     31  C   UNL     1       2.101  13.189  20.610  0.00  0.00    +0.000 A 
ENDBRANCH  10  26
TORSDOF 3
ENDMDL
MODEL 6
REMARK VINA RESULT:      -7.4      3.226      8.840
REMARK  Name = 
REMARK  4 active torsions:
REMARK  status: ('A' for Active; 'I' for Inactive)
REMARK    1  A    between atoms: C_1  and  C_2
REMARK    2  A    between atoms: C_4  and  C_5
REMARK    3  A    between atoms: C_14  and  C_15
REMARK    4  A    between atoms: C_23  and  N_24
REMARK                            x       y       z     vdW  Elec       q    Type
REMARK                         _______ _______ _______ _____ _____    ______ ____
ROOT
ATOM      1  C   UNL     1       2.122   4.979  17.869  0.00  0.00    +0.000 C 
ATOM      2  O   UNL     1       1.202   4.385  17.298  0.00  0.00    +0.000 OA
ATOM      3  N   UNL     1       3.465   4.539  17.734  0.00  0.00    +0.000 N 
ATOM      4  C   UNL     1       3.685   3.368  16.878  0.00  0.00    +0.000 C 
ATOM      5  C   UNL     1       3.926   1.997  17.597  0.00  0.00    +0.000 C 
ATOM      6  N   UNL     1       4.376   1.836  18.999  0.00  0.00    +0.000 N 
ATOM      7  C   UNL     1       4.395   2.613  20.120  0.00  0.00    +0.000 C 
ATOM      8  O   UNL     1       4.743   2.097  21.183  0.00  0.00    +0.000 OA
ATOM      9  C   UNL     1       4.016   4.074  20.072  0.00  0.00    +0.000 C 
ATOM     10  C   UNL     1       4.513   4.643  18.753  0.00  0.00    +0.000 C 
ATOM     11  H   UNL     1       4.689   0.899  19.233  0.00  0.00    +0.000 HD
ENDROOT
BRANCH   1  15
ATOM     12  C   UNL     1       1.629   9.970  18.184  0.00  0.00    +0.000 C 
ATOM     13  C   UNL     1       1.466   8.646  18.889  0.00  0.00    +0.000 A 
ATOM     14  C   UNL     1       1.750   7.467  18.130  0.00  0.00    +0.000 A 
ATOM     15  C   UNL     1       1.723   6.173  18.693  0.00  0.00    +0.000 A 
ATOM     16  C   UNL     1       1.473   6.082  20.049  0.00  0.00    +0.000 A 
ATOM     17  C   UNL     1       1.177   7.231  20.806  0.00  0.00    +0.000 A 
ATOM     18  C   UNL     1       1.124   8.528  20.257  0.00  0.00    +0.000 A 
BRANCH  18  19
ATOM     19  N   UNL     1       0.720   9.618  21.096  0.00  0.00    +0.000 N 
ATOM     20  C   UNL     1       1.181  10.988  20.981  0.00  0.00    +0.000 C 
ATOM     21  C   UNL     1       0.126  11.805  21.709  0.00  0.00    +0.000 C 
ATOM     22  N   UNL     1      -0.436  10.854  22.608  0.00  0.00    +0.000 N 
ATOM     23  C   UNL     1      -0.233   9.560  22.141  0.00  0.00    +0.000 C 
ATOM     24  O   UNL     1      -0.823   8.601  22.616  0.00  0.00    +0.000 OA
ATOM     25  H   UNL     1      -1.232  11.026  23.224  0.00  0.00    +0.000 HD
ENDBRANCH  18  19
ENDBRANCH   1  15
BRANCH  10  26
ATOM     26  C   UNL     1       5.678   5.614  18.653  0.00  0.00    +0.000 A 
ATOM     27  C   UNL     1       6.820   5.336  19.443  0.00  0.00    +0.000 A 
ATOM     28  C   UNL     1       8.050   5.944  19.193  0.00  0.00    +0.000 A 
ATOM     29  C   UNL     1       8.163   6.862  18.159  0.00  0.00    +0.000 A 
ATOM     30  C   UNL     1       7.055   7.147  17.361  0.00  0.00    +0.000 A 
ATOM     31  C   UNL     1       5.827   6.515  17.590  0.00  0.00    +0.000 A 
ENDBRANCH  10  26
TORSDOF 3
ENDMDL
MODEL 7
REMARK VINA RESULT:      -7.4      0.978      1.529
REMARK  Name = 
REMARK  4 active torsions:
REMARK  status: ('A' for Active; 'I' for Inactive)
REMARK    1  A    between atoms: C_1  and  C_2
REMARK    2  A    between atoms: C_4  and  C_5
REMARK    3  A    between atoms: C_14  and  C_15
REMARK    4  A    between atoms: C_23  and  N_24
REMARK                            x       y       z     vdW  Elec       q    Type
REMARK                         _______ _______ _______ _____ _____    ______ ____
ROOT
ATOM      1  C   UNL     1       1.178  11.789  19.270  0.00  0.00    +0.000 C 
ATOM      2  O   UNL     1       2.108  12.564  19.516  0.00  0.00    +0.000 OA
ATOM      3  N   UNL     1      -0.077  12.279  18.825  0.00  0.00    +0.000 N 
ATOM      4  C   UNL     1      -0.190  13.734  18.664  0.00  0.00    +0.000 C 
ATOM      5  C   UNL     1      -0.945  14.517  19.790  0.00  0.00    +0.000 C 
ATOM      6  N   UNL     1      -1.905  13.921  20.748  0.00  0.00    +0.000 N 
ATOM      7  C   UNL     1      -2.185  12.667  21.206  0.00  0.00    +0.000 C 
ATOM      8  O   UNL     1      -2.996  12.549  22.126  0.00  0.00    +0.000 OA
ATOM      9  C   UNL     1      -1.537  11.445  20.603  0.00  0.00    +0.000 C 
ATOM     10  C   UNL     1      -1.386  11.685  19.109  0.00  0.00    +0.000 C 
ATOM     11  H   UNL     1      -2.460  14.599  21.260  0.00  0.00    +0.000 HD
ENDROOT
BRANCH   1  15
ATOM     12  C   UNL     1       2.569   7.403  17.250  0.00  0.00    +0.000 C 
ATOM     13  C   UNL     1       2.154   8.131  18.504  0.00  0.00    +0.000 A 
ATOM     14  C   UNL     1       1.943   9.542  18.397  0.00  0.00    +0.000 A 
ATOM     15  C   UNL     1       1.470  10.327  19.470  0.00  0.00    +0.000 A 
ATOM     16  C   UNL     1       1.143   9.664  20.638  0.00  0.00    +0.000 A 
ATOM     17  C   UNL     1       1.359   8.278  20.765  0.00  0.00    +0.000 A 
ATOM     18  C   UNL     1       1.900   7.481  19.735  0.00  0.00    +0.000 A 
BRANCH  18  19
ATOM     19  N   UNL     1       2.167   6.098  20.000  0.00  0.00    +0.000 N 
ATOM     20  C   UNL     1       1.193   5.120  20.443  0.00  0.00    +0.000 C 
ATOM     21  C   UNL     1       1.816   3.779  20.090  0.00  0.00    +0.000 C 
ATOM     22  N   UNL     1       3.208   4.082  20.059  0.00  0.00    +0.000 N 
ATOM     23  C   UNL     1       3.407   5.438  19.825  0.00  0.00    +0.000 C 
ATOM     24  O   UNL     1       4.504   5.888  19.527  0.00  0.00    +0.000 OA
ATOM     25  H   UNL     1       3.945   3.431  19.786  0.00  0.00    +0.000 HD
ENDBRANCH  18  19
ENDBRANCH   1  15
BRANCH  10  26
ATOM     26  C   UNL     1      -2.216  10.958  18.063  0.00  0.00    +0.000 A 
ATOM     27  C   UNL     1      -3.488  11.500  17.757  0.00  0.00    +0.000 A 
ATOM     28  C   UNL     1      -4.184  11.132  16.607  0.00  0.00    +0.000 A 
ATOM     29  C   UNL     1      -3.633  10.197  15.742  0.00  0.00    +0.000 A 
ATOM     30  C   UNL     1      -2.377   9.655  16.015  0.00  0.00    +0.000 A 
ATOM     31  C   UNL     1      -1.663  10.046  17.155  0.00  0.00    +0.000 A 
ENDBRANCH  10  26
TORSDOF 3
ENDMDL
MODEL 8
REMARK VINA RESULT:      -7.4      1.298      2.092
REMARK  Name = 
REMARK  4 active torsions:
REMARK  status: ('A' for Active; 'I' for Inactive)
REMARK    1  A    between atoms: C_1  and  C_2
REMARK    2  A    between atoms: C_4  and  C_5
REMARK    3  A    between atoms: C_14  and  C_15
REMARK    4  A    between atoms: C_23  and  N_24
REMARK                            x       y       z     vdW  Elec       q    Type
REMARK                         _______ _______ _______ _____ _____    ______ ____
ROOT
ATOM      1  C   UNL     1       1.040  11.981  20.611  0.00  0.00    +0.000 C 
ATOM      2  O   UNL     1       1.915  12.657  21.161  0.00  0.00    +0.000 OA
ATOM      3  N   UNL     1      -0.148  12.586  20.124  0.00  0.00    +0.000 N 
ATOM      4  C   UNL     1      -0.258  14.039  20.298  0.00  0.00    +0.000 C 
ATOM      5  C   UNL     1      -1.175  14.548  21.461  0.00  0.00    +0.000 C 
ATOM      6  N   UNL     1      -2.251  13.760  22.108  0.00  0.00    +0.000 N 
ATOM      7  C   UNL     1      -2.574  12.439  22.212  0.00  0.00    +0.000 C 
ATOM      8  O   UNL     1      -3.504  12.122  22.955  0.00  0.00    +0.000 OA
ATOM      9  C   UNL     1      -1.829  11.382  21.433  0.00  0.00    +0.000 C 
ATOM     10  C   UNL     1      -1.474  11.966  20.074  0.00  0.00    +0.000 C 
ATOM     11  H   UNL     1      -2.882  14.308  22.683  0.00  0.00    +0.000 HD
ENDROOT
BRANCH   1  15
ATOM     12  C   UNL     1       2.001   8.039  17.646  0.00  0.00    +0.000 C 
ATOM     13  C   UNL     1       1.798   8.525  19.060  0.00  0.00    +0.000 A 
ATOM     14  C   UNL     1       1.608   9.932  19.242  0.00  0.00    +0.000 A 
ATOM     15  C   UNL     1       1.322  10.507  20.498  0.00  0.00    +0.000 A 
ATOM     16  C   UNL     1       1.159   9.642  21.564  0.00  0.00    +0.000 A 
ATOM     17  C   UNL     1       1.358   8.257  21.404  0.00  0.00    +0.000 A 
ATOM     18  C   UNL     1       1.717   7.662  20.178  0.00  0.00    +0.000 A 
BRANCH  18  19
ATOM     19  N   UNL     1       1.987   6.255  20.146  0.00  0.00    +0.000 N 
ATOM     20  C   UNL     1       1.040   5.205  20.470  0.00  0.00    +0.000 C 
ATOM     21  C   UNL     1       1.614   3.961  19.812  0.00  0.00    +0.000 C 
ATOM     22  N   UNL     1       3.002   4.269  19.723  0.00  0.00    +0.000 N 
ATOM     23  C   UNL     1       3.199   5.645  19.742  0.00  0.00    +0.000 C 
ATOM     24  O   UNL     1       4.274   6.148  19.445  0.00  0.00    +0.000 OA
ATOM     25  H   UNL     1       3.706   3.686  19.268  0.00  0.00    +0.000 HD
ENDBRANCH  18  19
ENDBRANCH   1  15
BRANCH  10  26
ATOM     26  C   UNL     1      -2.139  11.523  18.780  0.00  0.00    +0.000 A 
ATOM     27  C   UNL     1      -1.426  10.605  17.970  0.00  0.00    +0.000 A 
ATOM     28  C   UNL     1      -2.053   9.882  16.956  0.00  0.00    +0.000 A 
ATOM     29  C   UNL     1      -3.407  10.074  16.714  0.00  0.00    +0.000 A 
ATOM     30  C   UNL     1      -4.133  10.966  17.504  0.00  0.00    +0.000 A 
ATOM     31  C   UNL     1      -3.511  11.671  18.542  0.00  0.00    +0.000 A 
ENDBRANCH  10  26
TORSDOF 3
ENDMDL
MODEL 9
REMARK VINA RESULT:      -7.2      2.793      4.521
REMARK  Name = 
REMARK  4 active torsions:
REMARK  status: ('A' for Active; 'I' for Inactive)
REMARK    1  A    between atoms: C_1  and  C_2
REMARK    2  A    between atoms: C_4  and  C_5
REMARK    3  A    between atoms: C_14  and  C_15
REMARK    4  A    between atoms: C_23  and  N_24
REMARK                            x       y       z     vdW  Elec       q    Type
REMARK                         _______ _______ _______ _____ _____    ______ ____
ROOT
ATOM      1  C   UNL     1      -2.123  14.262  20.850  0.00  0.00    +0.000 C 
ATOM      2  O   UNL     1      -1.471  15.272  21.135  0.00  0.00    +0.000 OA
ATOM      3  N   UNL     1      -3.538  14.258  20.954  0.00  0.00    +0.000 N 
ATOM      4  C   UNL     1      -4.163  15.509  21.398  0.00  0.00    +0.000 C 
ATOM      5  C   UNL     1      -4.640  15.576  22.888  0.00  0.00    +0.000 C 
ATOM      6  N   UNL     1      -4.916  14.402  23.750  0.00  0.00    +0.000 N 
ATOM      7  C   UNL     1      -4.582  13.080  23.745  0.00  0.00    +0.000 C 
ATOM      8  O   UNL     1      -4.898  12.395  24.719  0.00  0.00    +0.000 OA
ATOM      9  C   UNL     1      -3.858  12.455  22.578  0.00  0.00    +0.000 C 
ATOM     10  C   UNL     1      -4.374  13.106  21.304  0.00  0.00    +0.000 C 
ATOM     11  H   UNL     1      -5.420  14.620  24.604  0.00  0.00    +0.000 HD
ENDROOT
BRANCH   1  15
ATOM     12  C   UNL     1      -1.646  10.426  17.638  0.00  0.00    +0.000 C 
ATOM     13  C   UNL     1      -1.054  11.154  18.820  0.00  0.00    +0.000 A 
ATOM     14  C   UNL     1      -1.722  12.345  19.250  0.00  0.00    +0.000 A 
ATOM     15  C   UNL     1      -1.325  13.071  20.393  0.00  0.00    +0.000 A 
ATOM     16  C   UNL     1      -0.289  12.548  21.143  0.00  0.00    +0.000 A 
ATOM     17  C   UNL     1       0.388  11.386  20.725  0.00  0.00    +0.000 A 
ATOM     18  C   UNL     1       0.063  10.681  19.548  0.00  0.00    +0.000 A 
BRANCH  18  19
ATOM     19  N   UNL     1       0.875   9.565  19.164  0.00  0.00    +0.000 N 
ATOM     20  C   UNL     1       1.459   9.356  17.853  0.00  0.00    +0.000 C 
ATOM     21  C   UNL     1       2.591   8.371  18.095  0.00  0.00    +0.000 C 
ATOM     22  N   UNL     1       2.177   7.709  19.286  0.00  0.00    +0.000 N 
ATOM     23  C   UNL     1       1.293   8.505  20.006  0.00  0.00    +0.000 C 
ATOM     24  O   UNL     1       0.990   8.252  21.163  0.00  0.00    +0.000 OA
ATOM     25  H   UNL     1       2.727   7.016  19.795  0.00  0.00    +0.000 HD
ENDBRANCH  18  19
ENDBRANCH   1  15
BRANCH  10  26
ATOM     26  C   UNL     1      -5.259  12.384  20.301  0.00  0.00    +0.000 A 
ATOM     27  C   UNL     1      -4.689  12.075  19.042  0.00  0.00    +0.000 A 
ATOM     28  C   UNL     1      -5.270  11.142  18.184  0.00  0.00    +0.000 A 
ATOM     29  C   UNL     1      -6.448  10.509  18.555  0.00  0.00    +0.000 A 
ATOM     30  C   UNL     1      -7.025  10.790  19.794  0.00  0.00    +0.000 A 
ATOM     31  C   UNL     1      -6.427  11.704  20.670  0.00  0.00    +0.000 A 
ENDBRANCH  10  26
TORSDOF 3
ENDMDL
