MODEL 1
REMARK VINA RESULT:      -9.5      0.000      0.000
REMARK  Name = 
REMARK  5 active torsions:
REMARK  status: ('A' for Active; 'I' for Inactive)
REMARK    1  A    between atoms: C_1  and  N_2
REMARK    2  A    between atoms: C_6  and  C_7
REMARK    3  A    between atoms: C_7  and  C_8
REMARK    4  A    between atoms: C_8  and  C_9
REMARK    5  A    between atoms: C_13  and  C_14
REMARK                            x       y       z     vdW  Elec       q    Type
REMARK                         _______ _______ _______ _____ _____    ______ ____
ROOT
ATOM      1  C   UNL     1       4.595   5.083  17.237  0.00  0.00    +0.000 A 
ATOM      2  C   UNL     1       3.726   3.970  17.175  0.00  0.00    +0.000 A 
ATOM      3  C   UNL     1       2.394   4.047  17.589  0.00  0.00    +0.000 A 
ATOM      4  C   UNL     1       1.893   5.245  18.084  0.00  0.00    +0.000 A 
ATOM      5  C   UNL     1       2.716   6.369  18.162  0.00  0.00    +0.000 A 
ATOM      6  C   UNL     1       4.042   6.286  17.722  0.00  0.00    +0.000 A 
ENDROOT
BRANCH   5   7
ATOM      7  C   UNL     1       2.191   7.620  18.713  0.00  0.00    +0.000 C 
ATOM      8  C   UNL     1       1.911   8.656  17.899  0.00  0.00    +0.000 C 
ATOM      9  C   UNL     1       1.237   9.908  18.402  0.00  0.00    +0.000 C 
ATOM     10  C   UNL     1       0.640   9.738  19.749  0.00  0.00    +0.000 C 
ATOM     11  C   UNL     1       0.933   8.727  20.561  0.00  0.00    +0.000 C 
ATOM     12  C   UNL     1       1.156  10.078  21.068  0.00  0.00    +0.000 C 
ATOM     13  O   UNL     1       0.595  10.658  21.966  0.00  0.00    +0.000 OA
ATOM     14  C   UNL     1       1.896   7.656  20.200  0.00  0.00    +0.000 C 
ENDBRANCH   5   7
BRANCH   1  15
ATOM     15  C   UNL     1       6.139   4.977  16.804  0.00  0.00    +0.000 C 
ATOM     16  C   UNL     1       6.957   6.299  16.731  0.00  0.00    +0.000 C 
ATOM     17  O   UNL     1       7.860   5.872  17.773  0.00  0.00    +0.000 OA
ATOM     18  C   UNL     1       7.136   4.641  17.952  0.00  0.00    +0.000 C 
BRANCH  15  19
ATOM     19  C   UNL     1       6.314   4.020  15.612  0.00  0.00    +0.000 C 
BRANCH  19  25
ATOM     20  C   UNL     1       5.722   3.359  12.553  0.00  0.00    +0.000 C 
ATOM     21  N   UNL     1       6.683   4.288  13.086  0.00  0.00    +0.000 N 
ATOM     22  C   UNL     1       7.568   5.004  12.337  0.00  0.00    +0.000 A 
ATOM     23  N   UNL     1       8.301   5.757  13.121  0.00  0.00    +0.000 NA
ATOM     24  N   UNL     1       7.897   5.525  14.411  0.00  0.00    +0.000 NA
ATOM     25  C   UNL     1       6.929   4.625  14.394  0.00  0.00    +0.000 A 
ENDBRANCH  19  25
ENDBRANCH  15  19
ENDBRANCH   1  15
TORSDOF 4
ENDMDL
MODEL 2
REMARK VINA RESULT:      -9.1      3.877      5.661
REMARK  Name = 
REMARK  5 active torsions:
REMARK  status: ('A' for Active; 'I' for Inactive)
REMARK    1  A    between atoms: C_1  and  N_2
REMARK    2  A    between atoms: C_6  and  C_7
REMARK    3  A    between atoms: C_7  and  C_8
REMARK    4  A    between atoms: C_8  and  C_9
REMARK    5  A    between atoms: C_13  and  C_14
REMARK                            x       y       z     vdW  Elec       q    Type
REMARK                         _______ _______ _______ _____ _____    ______ ____
ROOT
ATOM      1  C   UNL     1       2.526   7.379  18.611  0.00  0.00    +0.000 A 
ATOM      2  C   UNL     1       2.715   8.285  17.543  0.00  0.00    +0.000 A 
ATOM      3  C   UNL     1       2.172   9.572  17.559  0.00  0.00    +0.000 A 
ATOM      4  C   UNL     1       1.415   9.989  18.647  0.00  0.00    +0.000 A 
ATOM      5  C   UNL     1       1.204   9.127  19.724  0.00  0.00    +0.000 A 
ATOM      6  C   UNL     1       1.773   7.848  19.708  0.00  0.00    +0.000 A 
ENDROOT
BRANCH   5   7
ATOM      7  C   UNL     1       0.381   9.562  20.855  0.00  0.00    +0.000 C 
ATOM      8  C   UNL     1       0.265   8.784  21.948  0.00  0.00    +0.000 C 
ATOM      9  C   UNL     1      -0.453   9.254  23.189  0.00  0.00    +0.000 C 
ATOM     10  C   UNL     1      -0.703  10.716  23.190  0.00  0.00    +0.000 C 
ATOM     11  C   UNL     1      -0.609  11.480  22.107  0.00  0.00    +0.000 C 
ATOM     12  C   UNL     1      -1.885  11.479  22.815  0.00  0.00    +0.000 C 
ATOM     13  O   UNL     1      -2.422  12.376  23.420  0.00  0.00    +0.000 OA
ATOM     14  C   UNL     1      -0.242  10.941  20.771  0.00  0.00    +0.000 C 
ENDBRANCH   5   7
BRANCH   1  15
ATOM     15  C   UNL     1       3.112   5.884  18.568  0.00  0.00    +0.000 C 
ATOM     16  C   UNL     1       4.063   5.519  17.393  0.00  0.00    +0.000 C 
ATOM     17  O   UNL     1       5.170   5.265  18.284  0.00  0.00    +0.000 OA
ATOM     18  C   UNL     1       4.384   5.636  19.431  0.00  0.00    +0.000 C 
BRANCH  15  19
ATOM     19  C   UNL     1       2.014   4.851  18.880  0.00  0.00    +0.000 C 
BRANCH  19  25
ATOM     20  C   UNL     1       3.430   2.001  19.032  0.00  0.00    +0.000 C 
ATOM     21  N   UNL     1       2.840   2.753  20.108  0.00  0.00    +0.000 N 
ATOM     22  C   UNL     1       2.731   2.313  21.393  0.00  0.00    +0.000 A 
ATOM     23  N   UNL     1       2.150   3.232  22.125  0.00  0.00    +0.000 NA
ATOM     24  N   UNL     1       1.862   4.293  21.305  0.00  0.00    +0.000 NA
ATOM     25  C   UNL     1       2.263   4.000  20.080  0.00  0.00    +0.000 A 
ENDBRANCH  19  25
ENDBRANCH  15  19
ENDBRANCH   1  15
TORSDOF 4
ENDMDL
MODEL 3
REMARK VINA RESULT:      -9.0      1.849      3.073
REMARK  Name = 
REMARK  5 active torsions:
REMARK  status: ('A' for Active; 'I' for Inactive)
REMARK    1  A    between atoms: C_1  and  N_2
REMARK    2  A    between atoms: C_6  and  C_7
REMARK    3  A    between atoms: C_7  and  C_8
REMARK    4  A    between atoms: C_8  and  C_9
REMARK    5  A    between atoms: C_13  and  C_14
REMARK                            x       y       z     vdW  Elec       q    Type
REMARK                         _______ _______ _______ _____ _____    ______ ____
ROOT
ATOM      1  C   UNL     1       4.343   4.611  17.046  0.00  0.00    +0.000 A 
ATOM      2  C   UNL     1       3.595   3.479  17.440  0.00  0.00    +0.000 A 
ATOM      3  C   UNL     1       2.452   3.586  18.233  0.00  0.00    +0.000 A 
ATOM      4  C   UNL     1       2.024   4.837  18.663  0.00  0.00    +0.000 A 
ATOM      5  C   UNL     1       2.733   5.982  18.297  0.00  0.00    +0.000 A 
ATOM      6  C   UNL     1       3.864   5.864  17.481  0.00  0.00    +0.000 A 
ENDROOT
BRANCH   5   7
ATOM      7  C   UNL     1       2.294   7.295  18.777  0.00  0.00    +0.000 C 
ATOM      8  C   UNL     1       2.154   8.320  17.915  0.00  0.00    +0.000 C 
ATOM      9  C   UNL     1       1.571   9.645  18.340  0.00  0.00    +0.000 C 
ATOM     10  C   UNL     1       0.889   9.578  19.655  0.00  0.00    +0.000 C 
ATOM     11  C   UNL     1       1.045   8.577  20.515  0.00  0.00    +0.000 C 
ATOM     12  C   UNL     1       1.362   9.919  20.990  0.00  0.00    +0.000 C 
ATOM     13  O   UNL     1       0.809  10.580  21.836  0.00  0.00    +0.000 OA
ATOM     14  C   UNL     1       1.925   7.411  20.243  0.00  0.00    +0.000 C 
ENDBRANCH   5   7
BRANCH   1  15
ATOM     15  C   UNL     1       5.686   4.479  16.173  0.00  0.00    +0.000 C 
ATOM     16  C   UNL     1       5.702   3.415  15.037  0.00  0.00    +0.000 C 
ATOM     17  O   UNL     1       5.872   4.418  14.014  0.00  0.00    +0.000 OA
ATOM     18  C   UNL     1       5.816   5.478  14.985  0.00  0.00    +0.000 C 
BRANCH  15  19
ATOM     19  C   UNL     1       6.935   4.511  17.071  0.00  0.00    +0.000 C 
BRANCH  19  25
ATOM     20  C   UNL     1       7.958   5.609  19.881  0.00  0.00    +0.000 C 
ATOM     21  N   UNL     1       7.836   6.331  18.643  0.00  0.00    +0.000 N 
ATOM     22  C   UNL     1       8.083   7.662  18.493  0.00  0.00    +0.000 A 
ATOM     23  N   UNL     1       7.881   8.011  17.245  0.00  0.00    +0.000 NA
ATOM     24  N   UNL     1       7.485   6.889  16.563  0.00  0.00    +0.000 NA
ATOM     25  C   UNL     1       7.441   5.875  17.408  0.00  0.00    +0.000 A 
ENDBRANCH  19  25
ENDBRANCH  15  19
ENDBRANCH   1  15
TORSDOF 4
ENDMDL
MODEL 4
REMARK VINA RESULT:      -9.0      3.958      5.576
REMARK  Name = 
REMARK  5 active torsions:
REMARK  status: ('A' for Active; 'I' for Inactive)
REMARK    1  A    between atoms: C_1  and  N_2
REMARK    2  A    between atoms: C_6  and  C_7
REMARK    3  A    between atoms: C_7  and  C_8
REMARK    4  A    between atoms: C_8  and  C_9
REMARK    5  A    between atoms: C_13  and  C_14
REMARK                            x       y       z     vdW  Elec       q    Type
REMARK                         _______ _______ _______ _____ _____    ______ ____
ROOT
ATOM      1  C   UNL     1       2.517   7.426  18.896  0.00  0.00    +0.000 A 
ATOM      2  C   UNL     1       2.646   8.231  17.742  0.00  0.00    +0.000 A 
ATOM      3  C   UNL     1       2.025   9.477  17.635  0.00  0.00    +0.000 A 
ATOM      4  C   UNL     1       1.249   9.955  18.685  0.00  0.00    +0.000 A 
ATOM      5  C   UNL     1       1.095   9.193  19.844  0.00  0.00    +0.000 A 
ATOM      6  C   UNL     1       1.741   7.956  19.949  0.00  0.00    +0.000 A 
ENDROOT
BRANCH   5   7
ATOM      7  C   UNL     1       0.252   9.687  20.935  0.00  0.00    +0.000 C 
ATOM      8  C   UNL     1       0.127   8.977  22.072  0.00  0.00    +0.000 C 
ATOM      9  C   UNL     1      -0.613   9.514  23.272  0.00  0.00    +0.000 C 
ATOM     10  C   UNL     1      -0.876  10.971  23.180  0.00  0.00    +0.000 C 
ATOM     11  C   UNL     1      -0.774  11.668  22.053  0.00  0.00    +0.000 C 
ATOM     12  C   UNL     1      -2.059  11.698  22.743  0.00  0.00    +0.000 C 
ATOM     13  O   UNL     1      -2.614  12.625  23.284  0.00  0.00    +0.000 OA
ATOM     14  C   UNL     1      -0.383  11.053  20.758  0.00  0.00    +0.000 C 
ENDBRANCH   5   7
BRANCH   1  15
ATOM     15  C   UNL     1       3.193   5.972  18.996  0.00  0.00    +0.000 C 
ATOM     16  C   UNL     1       3.438   5.201  17.667  0.00  0.00    +0.000 C 
ATOM     17  O   UNL     1       4.868   5.200  17.857  0.00  0.00    +0.000 OA
ATOM     18  C   UNL     1       4.748   5.959  19.074  0.00  0.00    +0.000 C 
BRANCH  15  19
ATOM     19  C   UNL     1       2.568   5.149  20.137  0.00  0.00    +0.000 C 
BRANCH  19  25
ATOM     20  C   UNL     1       4.115   2.366  20.026  0.00  0.00    +0.000 C 
ATOM     21  N   UNL     1       2.748   2.632  19.662  0.00  0.00    +0.000 N 
ATOM     22  C   UNL     1       1.894   1.714  19.129  0.00  0.00    +0.000 A 
ATOM     23  N   UNL     1       0.727   2.271  18.913  0.00  0.00    +0.000 NA
ATOM     24  N   UNL     1       0.817   3.583  19.303  0.00  0.00    +0.000 NA
ATOM     25  C   UNL     1       2.043   3.809  19.741  0.00  0.00    +0.000 A 
ENDBRANCH  19  25
ENDBRANCH  15  19
ENDBRANCH   1  15
TORSDOF 4
ENDMDL
MODEL 5
REMARK VINA RESULT:      -8.9      2.685      3.934
REMARK  Name = 
REMARK  5 active torsions:
REMARK  status: ('A' for Active; 'I' for Inactive)
REMARK    1  A    between atoms: C_1  and  N_2
REMARK    2  A    between atoms: C_6  and  C_7
REMARK    3  A    between atoms: C_7  and  C_8
REMARK    4  A    between atoms: C_8  and  C_9
REMARK    5  A    between atoms: C_13  and  C_14
REMARK                            x       y       z     vdW  Elec       q    Type
REMARK                         _______ _______ _______ _____ _____    ______ ____
ROOT
ATOM      1  C   UNL     1       3.185   5.615  18.470  0.00  0.00    +0.000 A 
ATOM      2  C   UNL     1       3.776   6.161  17.308  0.00  0.00    +0.000 A 
ATOM      3  C   UNL     1       3.617   7.503  16.957  0.00  0.00    +0.000 A 
ATOM      4  C   UNL     1       2.853   8.341  17.761  0.00  0.00    +0.000 A 
ATOM      5  C   UNL     1       2.252   7.843  18.918  0.00  0.00    +0.000 A 
ATOM      6  C   UNL     1       2.438   6.503  19.272  0.00  0.00    +0.000 A 
ENDROOT
BRANCH   5   7
ATOM      7  C   UNL     1       1.423   8.724  19.745  0.00  0.00    +0.000 C 
ATOM      8  C   UNL     1       0.822   9.799  19.201  0.00  0.00    +0.000 C 
ATOM      9  C   UNL     1      -0.151  10.649  19.979  0.00  0.00    +0.000 C 
ATOM     10  C   UNL     1      -0.607   9.999  21.232  0.00  0.00    +0.000 C 
ATOM     11  C   UNL     1      -0.001   8.951  21.781  0.00  0.00    +0.000 C 
ATOM     12  C   UNL     1      -0.142  10.148  22.604  0.00  0.00    +0.000 C 
ATOM     13  O   UNL     1      -0.798  10.313  23.605  0.00  0.00    +0.000 OA
ATOM     14  C   UNL     1       1.206   8.318  21.190  0.00  0.00    +0.000 C 
ENDBRANCH   5   7
BRANCH   1  15
ATOM     15  C   UNL     1       3.331   4.059  18.844  0.00  0.00    +0.000 C 
ATOM     16  C   UNL     1       2.862   3.613  20.258  0.00  0.00    +0.000 C 
ATOM     17  O   UNL     1       1.839   2.751  19.716  0.00  0.00    +0.000 OA
ATOM     18  C   UNL     1       2.165   3.142  18.370  0.00  0.00    +0.000 C 
BRANCH  15  19
ATOM     19  C   UNL     1       4.696   3.508  18.392  0.00  0.00    +0.000 C 
BRANCH  19  25
ATOM     20  C   UNL     1       7.027   4.469  16.444  0.00  0.00    +0.000 C 
ATOM     21  N   UNL     1       6.882   4.740  17.850  0.00  0.00    +0.000 N 
ATOM     22  C   UNL     1       7.791   5.417  18.607  0.00  0.00    +0.000 A 
ATOM     23  N   UNL     1       7.363   5.495  19.844  0.00  0.00    +0.000 NA
ATOM     24  N   UNL     1       6.154   4.849  19.904  0.00  0.00    +0.000 NA
ATOM     25  C   UNL     1       5.868   4.377  18.704  0.00  0.00    +0.000 A 
ENDBRANCH  19  25
ENDBRANCH  15  19
ENDBRANCH   1  15
TORSDOF 4
ENDMDL
MODEL 6
REMARK VINA RESULT:      -8.9      2.208      3.314
REMARK  Name = 
REMARK  5 active torsions:
REMARK  status: ('A' for Active; 'I' for Inactive)
REMARK    1  A    between atoms: C_1  and  N_2
REMARK    2  A    between atoms: C_6  and  C_7
REMARK    3  A    between atoms: C_7  and  C_8
REMARK    4  A    between atoms: C_8  and  C_9
REMARK    5  A    between atoms: C_13  and  C_14
REMARK                            x       y       z     vdW  Elec       q    Type
REMARK                         _______ _______ _______ _____ _____    ______ ____
ROOT
ATOM      1  C   UNL     1       4.234   4.843  16.832  0.00  0.00    +0.000 A 
ATOM      2  C   UNL     1       3.510   3.650  17.054  0.00  0.00    +0.000 A 
ATOM      3  C   UNL     1       2.391   3.607  17.887  0.00  0.00    +0.000 A 
ATOM      4  C   UNL     1       1.963   4.763  18.530  0.00  0.00    +0.000 A 
ATOM      5  C   UNL     1       2.648   5.963  18.338  0.00  0.00    +0.000 A 
ATOM      6  C   UNL     1       3.755   5.999  17.483  0.00  0.00    +0.000 A 
ENDROOT
BRANCH   5   7
ATOM      7  C   UNL     1       2.211   7.172  19.042  0.00  0.00    +0.000 C 
ATOM      8  C   UNL     1       2.003   8.315  18.362  0.00  0.00    +0.000 C 
ATOM      9  C   UNL     1       1.417   9.540  19.020  0.00  0.00    +0.000 C 
ATOM     10  C   UNL     1       0.812   9.248  20.342  0.00  0.00    +0.000 C 
ATOM     11  C   UNL     1       1.035   8.129  21.023  0.00  0.00    +0.000 C 
ATOM     12  C   UNL     1       1.351   9.389  21.687  0.00  0.00    +0.000 C 
ATOM     13  O   UNL     1       0.833   9.893  22.655  0.00  0.00    +0.000 OA
ATOM     14  C   UNL     1       1.922   7.046  20.525  0.00  0.00    +0.000 C 
ENDBRANCH   5   7
BRANCH   1  15
ATOM     15  C   UNL     1       5.551   4.878  15.911  0.00  0.00    +0.000 C 
ATOM     16  C   UNL     1       6.279   3.528  15.647  0.00  0.00    +0.000 C 
ATOM     17  O   UNL     1       6.034   3.601  14.227  0.00  0.00    +0.000 OA
ATOM     18  C   UNL     1       5.297   4.828  14.376  0.00  0.00    +0.000 C 
BRANCH  15  19
ATOM     19  C   UNL     1       6.460   6.061  16.291  0.00  0.00    +0.000 C 
BRANCH  19  25
ATOM     20  C   UNL     1       8.018   8.315  17.915  0.00  0.00    +0.000 C 
ATOM     21  N   UNL     1       7.812   6.941  18.288  0.00  0.00    +0.000 N 
ATOM     22  C   UNL     1       8.330   6.353  19.403  0.00  0.00    +0.000 A 
ATOM     23  N   UNL     1       7.956   5.098  19.454  0.00  0.00    +0.000 NA
ATOM     24  N   UNL     1       7.184   4.852  18.347  0.00  0.00    +0.000 NA
ATOM     25  C   UNL     1       7.108   5.960  17.631  0.00  0.00    +0.000 A 
ENDBRANCH  19  25
ENDBRANCH  15  19
ENDBRANCH   1  15
TORSDOF 4
ENDMDL
MODEL 7
REMARK VINA RESULT:      -8.9      1.548      2.106
REMARK  Name = 
REMARK  5 active torsions:
REMARK  status: ('A' for Active; 'I' for Inactive)
REMARK    1  A    between atoms: C_1  and  N_2
REMARK    2  A    between atoms: C_6  and  C_7
REMARK    3  A    between atoms: C_7  and  C_8
REMARK    4  A    between atoms: C_8  and  C_9
REMARK    5  A    between atoms: C_13  and  C_14
REMARK                            x       y       z     vdW  Elec       q    Type
REMARK                         _______ _______ _______ _____ _____    ______ ____
ROOT
ATOM      1  C   UNL     1       5.466   5.443  18.628  0.00  0.00    +0.000 A 
ATOM      2  C   UNL     1       5.060   4.157  19.051  0.00  0.00    +0.000 A 
ATOM      3  C   UNL     1       3.781   3.912  19.555  0.00  0.00    +0.000 A 
ATOM      4  C   UNL     1       2.867   4.954  19.656  0.00  0.00    +0.000 A 
ATOM      5  C   UNL     1       3.225   6.240  19.249  0.00  0.00    +0.000 A 
ATOM      6  C   UNL     1       4.502   6.468  18.723  0.00  0.00    +0.000 A 
ENDROOT
BRANCH   5   7
ATOM      7  C   UNL     1       2.268   7.340  19.384  0.00  0.00    +0.000 C 
ATOM      8  C   UNL     1       1.751   7.645  20.589  0.00  0.00    +0.000 C 
ATOM      9  C   UNL     1       0.875   8.856  20.799  0.00  0.00    +0.000 C 
ATOM     10  C   UNL     1       0.929   9.808  19.664  0.00  0.00    +0.000 C 
ATOM     11  C   UNL     1       1.420   9.501  18.468  0.00  0.00    +0.000 C 
ATOM     12  C   UNL     1       0.042   9.978  18.521  0.00  0.00    +0.000 C 
ATOM     13  O   UNL     1      -0.430  10.999  18.083  0.00  0.00    +0.000 OA
ATOM     14  C   UNL     1       1.969   8.159  18.143  0.00  0.00    +0.000 C 
ENDBRANCH   5   7
BRANCH   1  15
ATOM     15  C   UNL     1       6.954   5.729  18.094  0.00  0.00    +0.000 C 
ATOM     16  C   UNL     1       7.267   7.161  17.573  0.00  0.00    +0.000 C 
ATOM     17  O   UNL     1       8.256   7.387  18.599  0.00  0.00    +0.000 OA
ATOM     18  C   UNL     1       8.000   6.098  19.187  0.00  0.00    +0.000 C 
BRANCH  15  19
ATOM     19  C   UNL     1       7.454   4.575  17.207  0.00  0.00    +0.000 C 
BRANCH  19  25
ATOM     20  C   UNL     1       4.982   3.180  15.761  0.00  0.00    +0.000 C 
ATOM     21  N   UNL     1       6.002   4.005  15.168  0.00  0.00    +0.000 N 
ATOM     22  C   UNL     1       6.110   4.269  13.836  0.00  0.00    +0.000 A 
ATOM     23  N   UNL     1       7.141   5.050  13.623  0.00  0.00    +0.000 NA
ATOM     24  N   UNL     1       7.728   5.298  14.838  0.00  0.00    +0.000 NA
ATOM     25  C   UNL     1       7.052   4.654  15.772  0.00  0.00    +0.000 A 
ENDBRANCH  19  25
ENDBRANCH  15  19
ENDBRANCH   1  15
TORSDOF 4
ENDMDL
MODEL 8
REMARK VINA RESULT:      -8.8      0.964      1.454
REMARK  Name = 
REMARK  5 active torsions:
REMARK  status: ('A' for Active; 'I' for Inactive)
REMARK    1  A    between atoms: C_1  and  N_2
REMARK    2  A    between atoms: C_6  and  C_7
REMARK    3  A    between atoms: C_7  and  C_8
REMARK    4  A    between atoms: C_8  and  C_9
REMARK    5  A    between atoms: C_13  and  C_14
REMARK                            x       y       z     vdW  Elec       q    Type
REMARK                         _______ _______ _______ _____ _____    ______ ____
ROOT
ATOM      1  C   UNL     1       4.929   5.372  17.498  0.00  0.00    +0.000 A 
ATOM      2  C   UNL     1       4.217   4.171  17.280  0.00  0.00    +0.000 A 
ATOM      3  C   UNL     1       2.843   4.072  17.508  0.00  0.00    +0.000 A 
ATOM      4  C   UNL     1       2.138   5.177  17.969  0.00  0.00    +0.000 A 
ATOM      5  C   UNL     1       2.801   6.384  18.197  0.00  0.00    +0.000 A 
ATOM      6  C   UNL     1       4.173   6.478  17.942  0.00  0.00    +0.000 A 
ENDROOT
BRANCH   5   7
ATOM      7  C   UNL     1       2.058   7.537  18.710  0.00  0.00    +0.000 C 
ATOM      8  C   UNL     1       1.788   7.639  20.025  0.00  0.00    +0.000 C 
ATOM      9  C   UNL     1       1.153   8.874  20.616  0.00  0.00    +0.000 C 
ATOM     10  C   UNL     1       1.177  10.032  19.690  0.00  0.00    +0.000 C 
ATOM     11  C   UNL     1       1.422   9.928  18.388  0.00  0.00    +0.000 C 
ATOM     12  C   UNL     1       0.160  10.545  18.782  0.00  0.00    +0.000 C 
ATOM     13  O   UNL     1      -0.211  11.685  18.638  0.00  0.00    +0.000 OA
ATOM     14  C   UNL     1       1.700   8.630  17.721  0.00  0.00    +0.000 C 
ENDBRANCH   5   7
BRANCH   1  15
ATOM     15  C   UNL     1       6.518   5.468  17.281  0.00  0.00    +0.000 C 
ATOM     16  C   UNL     1       7.131   6.883  17.076  0.00  0.00    +0.000 C 
ATOM     17  O   UNL     1       7.924   6.783  18.277  0.00  0.00    +0.000 OA
ATOM     18  C   UNL     1       7.373   5.488  18.581  0.00  0.00    +0.000 C 
BRANCH  15  19
ATOM     19  C   UNL     1       7.008   4.383  16.305  0.00  0.00    +0.000 C 
BRANCH  19  25
ATOM     20  C   UNL     1       5.429   3.637  13.641  0.00  0.00    +0.000 C 
ATOM     21  N   UNL     1       6.590   4.476  13.773  0.00  0.00    +0.000 N 
ATOM     22  C   UNL     1       7.259   5.046  12.732  0.00  0.00    +0.000 A 
ATOM     23  N   UNL     1       8.267   5.749  13.187  0.00  0.00    +0.000 NA
ATOM     24  N   UNL     1       8.267   5.633  14.554  0.00  0.00    +0.000 NA
ATOM     25  C   UNL     1       7.264   4.850  14.910  0.00  0.00    +0.000 A 
ENDBRANCH  19  25
ENDBRANCH  15  19
ENDBRANCH   1  15
TORSDOF 4
ENDMDL
MODEL 9
REMARK VINA RESULT:      -8.7      0.824      1.403
REMARK  Name = 
REMARK  5 active torsions:
REMARK  status: ('A' for Active; 'I' for Inactive)
REMARK    1  A    between atoms: C_1  and  N_2
REMARK    2  A    between atoms: C_6  and  C_7
REMARK    3  A    between atoms: C_7  and  C_8
REMARK    4  A    between atoms: C_8  and  C_9
REMARK    5  A    between atoms: C_13  and  C_14
REMARK                            x       y       z     vdW  Elec       q    Type
REMARK                         _______ _______ _______ _____ _____    ______ ____
ROOT
ATOM      1  C   UNL     1       4.527   5.438  17.135  0.00  0.00    +0.000 A 
ATOM      2  C   UNL     1       3.793   4.242  17.308  0.00  0.00    +0.000 A 
ATOM      3  C   UNL     1       2.547   4.224  17.937  0.00  0.00    +0.000 A 
ATOM      4  C   UNL     1       1.998   5.406  18.418  0.00  0.00    +0.000 A 
ATOM      5  C   UNL     1       2.688   6.610  18.267  0.00  0.00    +0.000 A 
ATOM      6  C   UNL     1       3.925   6.620  17.614  0.00  0.00    +0.000 A 
ENDROOT
BRANCH   5   7
ATOM      7  C   UNL     1       2.118   7.849  18.801  0.00  0.00    +0.000 C 
ATOM      8  C   UNL     1       1.806   8.865  17.975  0.00  0.00    +0.000 C 
ATOM      9  C   UNL     1       1.087  10.098  18.462  0.00  0.00    +0.000 C 
ATOM     10  C   UNL     1       0.492   9.923  19.809  0.00  0.00    +0.000 C 
ATOM     11  C   UNL     1       0.816   8.933  20.633  0.00  0.00    +0.000 C 
ATOM     12  C   UNL     1       0.991  10.295  21.125  0.00  0.00    +0.000 C 
ATOM     13  O   UNL     1       0.408  10.867  22.015  0.00  0.00    +0.000 OA
ATOM     14  C   UNL     1       1.817   7.891  20.287  0.00  0.00    +0.000 C 
ENDBRANCH   5   7
BRANCH   1  15
ATOM     15  C   UNL     1       5.982   5.448  16.454  0.00  0.00    +0.000 C 
ATOM     16  C   UNL     1       7.164   6.015  17.291  0.00  0.00    +0.000 C 
ATOM     17  O   UNL     1       7.854   4.748  17.295  0.00  0.00    +0.000 OA
ATOM     18  C   UNL     1       6.785   4.118  16.566  0.00  0.00    +0.000 C 
BRANCH  15  19
ATOM     19  C   UNL     1       5.906   5.934  14.995  0.00  0.00    +0.000 C 
BRANCH  19  25
ATOM     20  C   UNL     1       8.322   5.617  12.942  0.00  0.00    +0.000 C 
ATOM     21  N   UNL     1       7.148   4.794  13.059  0.00  0.00    +0.000 N 
ATOM     22  C   UNL     1       6.844   3.754  12.233  0.00  0.00    +0.000 A 
ATOM     23  N   UNL     1       5.712   3.209  12.606  0.00  0.00    +0.000 NA
ATOM     24  N   UNL     1       5.256   3.910  13.694  0.00  0.00    +0.000 NA
ATOM     25  C   UNL     1       6.114   4.879  13.960  0.00  0.00    +0.000 A 
ENDBRANCH  19  25
ENDBRANCH  15  19
ENDBRANCH   1  15
TORSDOF 4
ENDMDL
