MODEL 1
REMARK VINA RESULT:      -8.6      0.000      0.000
REMARK  Name = 
REMARK  5 active torsions:
REMARK  status: ('A' for Active; 'I' for Inactive)
REMARK    1  A    between atoms: C_2  and  O_3
REMARK    2  A    between atoms: C_2  and  C_4
REMARK    3  A    between atoms: C_6  and  C_7
REMARK    4  A    between atoms: C_13  and  C_14
REMARK    5  A    between atoms: N_22  and  C_23
REMARK                            x       y       z     vdW  Elec       q    Type
REMARK                         _______ _______ _______ _____ _____    ______ ____
ROOT
ATOM      1  C   UNL     1       6.138   4.330  14.743  0.00  0.00    +0.000 A 
ATOM      2  C   UNL     1       5.655   3.552  15.803  0.00  0.00    +0.000 A 
ATOM      3  C   UNL     1       5.827   4.291  16.961  0.00  0.00    +0.000 A 
ATOM      4  N   UNL     1       6.534   5.428  16.547  0.00  0.00    +0.000 N 
ATOM      5  N   UNL     1       6.627   5.499  15.175  0.00  0.00    +0.000 NA
ENDROOT
BRANCH   3   6
ATOM      6  C   UNL     1       5.262   4.131  18.290  0.00  0.00    +0.000 C 
ATOM      7  O   UNL     1       5.847   4.599  19.268  0.00  0.00    +0.000 OA
ATOM      8  N   UNL     1       4.032   3.500  18.501  0.00  0.00    +0.000 N 
ATOM      9  C   UNL     1       3.137   2.825  17.564  0.00  0.00    +0.000 C 
ATOM     10  C   UNL     1       1.693   3.341  17.695  0.00  0.00    +0.000 C 
ATOM     11  O   UNL     1       1.222   3.392  19.051  0.00  0.00    +0.000 OA
ATOM     12  C   UNL     1       2.109   4.103  19.949  0.00  0.00    +0.000 C 
ATOM     13  C   UNL     1       3.507   3.448  19.875  0.00  0.00    +0.000 C 
BRANCH  12  14
ATOM     14  C   UNL     1       2.061   5.617  19.751  0.00  0.00    +0.000 A 
ATOM     15  C   UNL     1       1.603   6.455  20.785  0.00  0.00    +0.000 A 
ATOM     16  C   UNL     1       1.541   7.843  20.620  0.00  0.00    +0.000 A 
ATOM     17  C   UNL     1       1.962   8.423  19.426  0.00  0.00    +0.000 A 
ATOM     18  C   UNL     1       2.458   7.613  18.416  0.00  0.00    +0.000 A 
ATOM     19  F   UNL     1       2.881   8.167  17.273  0.00  0.00    +0.000 F 
ATOM     20  C   UNL     1       2.522   6.231  18.575  0.00  0.00    +0.000 A 
ENDBRANCH  12  14
ENDBRANCH   3   6
BRANCH   4  21
ATOM     21  C   UNL     1       7.169   6.449  17.321  0.00  0.00    +0.000 A 
ATOM     22  C   UNL     1       7.903   6.146  18.476  0.00  0.00    +0.000 A 
ATOM     23  C   UNL     1       8.541   7.166  19.190  0.00  0.00    +0.000 A 
ATOM     24  C   UNL     1       8.447   8.488  18.761  0.00  0.00    +0.000 A 
ATOM     25  C   UNL     1       7.715   8.797  17.616  0.00  0.00    +0.000 A 
ATOM     26  C   UNL     1       7.090   7.781  16.888  0.00  0.00    +0.000 A 
ENDBRANCH   4  21
BRANCH   1  28
ATOM     27  O   UNL     1       5.103   3.453  12.791  0.00  0.00    +0.000 OA
ATOM     28  C   UNL     1       6.068   3.982  13.312  0.00  0.00    +0.000 C 
BRANCH  28  29
ATOM     29  O   UNL     1       7.195   4.313  12.638  0.00  0.00    +0.000 OA
ATOM     30  H   UNL     1       6.963   4.343  11.680  0.00  0.00    +0.000 HD
ENDBRANCH  28  29
ENDBRANCH   1  28
TORSDOF 5
ENDMDL
MODEL 2
REMARK VINA RESULT:      -8.5      0.852      1.232
REMARK  Name = 
REMARK  5 active torsions:
REMARK  status: ('A' for Active; 'I' for Inactive)
REMARK    1  A    between atoms: C_2  and  O_3
REMARK    2  A    between atoms: C_2  and  C_4
REMARK    3  A    between atoms: C_6  and  C_7
REMARK    4  A    between atoms: C_13  and  C_14
REMARK    5  A    between atoms: N_22  and  C_23
REMARK                            x       y       z     vdW  Elec       q    Type
REMARK                         _______ _______ _______ _____ _____    ______ ____
ROOT
ATOM      1  C   UNL     1       6.358   4.343  14.735  0.00  0.00    +0.000 A 
ATOM      2  C   UNL     1       5.854   3.566  15.786  0.00  0.00    +0.000 A 
ATOM      3  C   UNL     1       5.976   4.317  16.943  0.00  0.00    +0.000 A 
ATOM      4  N   UNL     1       6.678   5.462  16.542  0.00  0.00    +0.000 N 
ATOM      5  N   UNL     1       6.814   5.523  15.173  0.00  0.00    +0.000 NA
ENDROOT
BRANCH   3   6
ATOM      6  C   UNL     1       5.371   4.158  18.254  0.00  0.00    +0.000 C 
ATOM      7  O   UNL     1       5.923   4.633  19.249  0.00  0.00    +0.000 OA
ATOM      8  N   UNL     1       4.139   3.521  18.429  0.00  0.00    +0.000 N 
ATOM      9  C   UNL     1       3.278   2.838  17.467  0.00  0.00    +0.000 C 
ATOM     10  C   UNL     1       1.828   3.345  17.552  0.00  0.00    +0.000 C 
ATOM     11  O   UNL     1       1.314   3.398  18.893  0.00  0.00    +0.000 OA
ATOM     12  C   UNL     1       2.169   4.117  19.815  0.00  0.00    +0.000 C 
ATOM     13  C   UNL     1       3.572   3.470  19.787  0.00  0.00    +0.000 C 
BRANCH  12  14
ATOM     14  C   UNL     1       2.118   5.631  19.610  0.00  0.00    +0.000 A 
ATOM     15  C   UNL     1       2.427   6.189  18.357  0.00  0.00    +0.000 A 
ATOM     16  C   UNL     1       2.397   7.573  18.151  0.00  0.00    +0.000 A 
ATOM     17  C   UNL     1       2.030   8.425  19.191  0.00  0.00    +0.000 A 
ATOM     18  C   UNL     1       1.679   7.884  20.418  0.00  0.00    +0.000 A 
ATOM     19  F   UNL     1       1.307   8.697  21.415  0.00  0.00    +0.000 F 
ATOM     20  C   UNL     1       1.707   6.508  20.628  0.00  0.00    +0.000 A 
ENDBRANCH  12  14
ENDBRANCH   3   6
BRANCH   4  21
ATOM     21  C   UNL     1       7.272   6.499  17.328  0.00  0.00    +0.000 A 
ATOM     22  C   UNL     1       7.987   6.215  18.499  0.00  0.00    +0.000 A 
ATOM     23  C   UNL     1       8.584   7.252  19.226  0.00  0.00    +0.000 A 
ATOM     24  C   UNL     1       8.470   8.570  18.791  0.00  0.00    +0.000 A 
ATOM     25  C   UNL     1       7.757   8.860  17.629  0.00  0.00    +0.000 A 
ATOM     26  C   UNL     1       7.172   7.828  16.890  0.00  0.00    +0.000 A 
ENDBRANCH   4  21
BRANCH   1  28
ATOM     27  O   UNL     1       5.528   3.224  12.810  0.00  0.00    +0.000 OA
ATOM     28  C   UNL     1       6.340   3.983  13.307  0.00  0.00    +0.000 C 
BRANCH  28  29
ATOM     29  O   UNL     1       7.326   4.588  12.602  0.00  0.00    +0.000 OA
ATOM     30  H   UNL     1       8.037   4.828  13.242  0.00  0.00    +0.000 HD
ENDBRANCH  28  29
ENDBRANCH   1  28
TORSDOF 5
ENDMDL
MODEL 3
REMARK VINA RESULT:      -8.5      7.177     10.031
REMARK  Name = 
REMARK  5 active torsions:
REMARK  status: ('A' for Active; 'I' for Inactive)
REMARK    1  A    between atoms: C_2  and  O_3
REMARK    2  A    between atoms: C_2  and  C_4
REMARK    3  A    between atoms: C_6  and  C_7
REMARK    4  A    between atoms: C_13  and  C_14
REMARK    5  A    between atoms: N_22  and  C_23
REMARK                            x       y       z     vdW  Elec       q    Type
REMARK                         _______ _______ _______ _____ _____    ______ ____
ROOT
ATOM      1  C   UNL     1      -1.892  11.385  17.679  0.00  0.00    +0.000 A 
ATOM      2  C   UNL     1      -1.137  12.433  18.223  0.00  0.00    +0.000 A 
ATOM      3  C   UNL     1       0.077  11.896  18.618  0.00  0.00    +0.000 A 
ATOM      4  N   UNL     1      -0.067  10.518  18.412  0.00  0.00    +0.000 N 
ATOM      5  N   UNL     1      -1.231  10.222  17.738  0.00  0.00    +0.000 NA
ENDROOT
BRANCH   3   6
ATOM      6  C   UNL     1       1.336  12.534  18.965  0.00  0.00    +0.000 C 
ATOM      7  O   UNL     1       2.249  12.584  18.138  0.00  0.00    +0.000 OA
ATOM      8  N   UNL     1       1.538  13.149  20.204  0.00  0.00    +0.000 N 
ATOM      9  C   UNL     1       0.675  13.222  21.381  0.00  0.00    +0.000 C 
ATOM     10  C   UNL     1       0.525  14.670  21.879  0.00  0.00    +0.000 C 
ATOM     11  O   UNL     1       1.775  15.368  22.002  0.00  0.00    +0.000 OA
ATOM     12  C   UNL     1       2.592  15.313  20.806  0.00  0.00    +0.000 C 
ATOM     13  C   UNL     1       2.821  13.830  20.439  0.00  0.00    +0.000 C 
BRANCH  12  14
ATOM     14  C   UNL     1       2.064  16.213  19.689  0.00  0.00    +0.000 A 
ATOM     15  C   UNL     1       0.922  17.007  19.896  0.00  0.00    +0.000 A 
ATOM     16  C   UNL     1       0.416  17.829  18.882  0.00  0.00    +0.000 A 
ATOM     17  C   UNL     1       1.061  17.893  17.649  0.00  0.00    +0.000 A 
ATOM     18  C   UNL     1       2.214  17.149  17.448  0.00  0.00    +0.000 A 
ATOM     19  F   UNL     1       2.848  17.221  16.271  0.00  0.00    +0.000 F 
ATOM     20  C   UNL     1       2.721  16.330  18.452  0.00  0.00    +0.000 A 
ENDBRANCH  12  14
ENDBRANCH   3   6
BRANCH   4  21
ATOM     21  C   UNL     1       0.770   9.433  18.821  0.00  0.00    +0.000 A 
ATOM     22  C   UNL     1       1.630   8.789  17.922  0.00  0.00    +0.000 A 
ATOM     23  C   UNL     1       2.461   7.754  18.363  0.00  0.00    +0.000 A 
ATOM     24  C   UNL     1       2.436   7.354  19.698  0.00  0.00    +0.000 A 
ATOM     25  C   UNL     1       1.581   7.988  20.597  0.00  0.00    +0.000 A 
ATOM     26  C   UNL     1       0.760   9.034  20.167  0.00  0.00    +0.000 A 
ENDBRANCH   4  21
BRANCH   1  28
ATOM     27  O   UNL     1      -4.263  11.545  17.661  0.00  0.00    +0.000 OA
ATOM     28  C   UNL     1      -3.215  11.512  17.042  0.00  0.00    +0.000 C 
BRANCH  28  29
ATOM     29  O   UNL     1      -3.141  11.588  15.692  0.00  0.00    +0.000 OA
ATOM     30  H   UNL     1      -3.954  11.164  15.331  0.00  0.00    +0.000 HD
ENDBRANCH  28  29
ENDBRANCH   1  28
TORSDOF 5
ENDMDL
MODEL 4
REMARK VINA RESULT:      -8.5      7.208     10.073
REMARK  Name = 
REMARK  5 active torsions:
REMARK  status: ('A' for Active; 'I' for Inactive)
REMARK    1  A    between atoms: C_2  and  O_3
REMARK    2  A    between atoms: C_2  and  C_4
REMARK    3  A    between atoms: C_6  and  C_7
REMARK    4  A    between atoms: C_13  and  C_14
REMARK    5  A    between atoms: N_22  and  C_23
REMARK                            x       y       z     vdW  Elec       q    Type
REMARK                         _______ _______ _______ _____ _____    ______ ____
ROOT
ATOM      1  C   UNL     1      -1.895  11.404  17.785  0.00  0.00    +0.000 A 
ATOM      2  C   UNL     1      -1.134  12.458  18.309  0.00  0.00    +0.000 A 
ATOM      3  C   UNL     1       0.094  11.932  18.673  0.00  0.00    +0.000 A 
ATOM      4  N   UNL     1      -0.045  10.552  18.472  0.00  0.00    +0.000 N 
ATOM      5  N   UNL     1      -1.223  10.246  17.828  0.00  0.00    +0.000 NA
ENDROOT
BRANCH   3   6
ATOM      6  C   UNL     1       1.356  12.579  18.987  0.00  0.00    +0.000 C 
ATOM      7  O   UNL     1       2.251  12.625  18.141  0.00  0.00    +0.000 OA
ATOM      8  N   UNL     1       1.580  13.209  20.215  0.00  0.00    +0.000 N 
ATOM      9  C   UNL     1       0.741  13.290  21.408  0.00  0.00    +0.000 C 
ATOM     10  C   UNL     1       0.593  14.743  21.894  0.00  0.00    +0.000 C 
ATOM     11  O   UNL     1       1.842  15.449  21.984  0.00  0.00    +0.000 OA
ATOM     12  C   UNL     1       2.634  15.386  20.772  0.00  0.00    +0.000 C 
ATOM     13  C   UNL     1       2.864  13.900  20.416  0.00  0.00    +0.000 C 
BRANCH  12  14
ATOM     14  C   UNL     1       2.078  16.270  19.656  0.00  0.00    +0.000 A 
ATOM     15  C   UNL     1       0.921  17.040  19.870  0.00  0.00    +0.000 A 
ATOM     16  C   UNL     1       0.390  17.848  18.857  0.00  0.00    +0.000 A 
ATOM     17  C   UNL     1       1.023  17.922  17.619  0.00  0.00    +0.000 A 
ATOM     18  C   UNL     1       2.191  17.203  17.411  0.00  0.00    +0.000 A 
ATOM     19  F   UNL     1       2.814  17.284  16.229  0.00  0.00    +0.000 F 
ATOM     20  C   UNL     1       2.723  16.398  18.414  0.00  0.00    +0.000 A 
ENDBRANCH  12  14
ENDBRANCH   3   6
BRANCH   4  21
ATOM     21  C   UNL     1       0.812   9.475  18.860  0.00  0.00    +0.000 A 
ATOM     22  C   UNL     1       0.849   9.004  20.179  0.00  0.00    +0.000 A 
ATOM     23  C   UNL     1       1.675   7.926  20.518  0.00  0.00    +0.000 A 
ATOM     24  C   UNL     1       2.466   7.316  19.547  0.00  0.00    +0.000 A 
ATOM     25  C   UNL     1       2.437   7.782  18.233  0.00  0.00    +0.000 A 
ATOM     26  C   UNL     1       1.603   8.847  17.885  0.00  0.00    +0.000 A 
ENDBRANCH   4  21
BRANCH   1  28
ATOM     27  O   UNL     1      -3.518  11.099  16.076  0.00  0.00    +0.000 OA
ATOM     28  C   UNL     1      -3.235  11.519  17.183  0.00  0.00    +0.000 C 
BRANCH  28  29
ATOM     29  O   UNL     1      -4.121  12.145  17.994  0.00  0.00    +0.000 OA
ATOM     30  H   UNL     1      -5.023  11.859  17.717  0.00  0.00    +0.000 HD
ENDBRANCH  28  29
ENDBRANCH   1  28
TORSDOF 5
ENDMDL
MODEL 5
REMARK VINA RESULT:      -8.4      7.230     10.094
REMARK  Name = 
REMARK  5 active torsions:
REMARK  status: ('A' for Active; 'I' for Inactive)
REMARK    1  A    between atoms: C_2  and  O_3
REMARK    2  A    between atoms: C_2  and  C_4
REMARK    3  A    between atoms: C_6  and  C_7
REMARK    4  A    between atoms: C_13  and  C_14
REMARK    5  A    between atoms: N_22  and  C_23
REMARK                            x       y       z     vdW  Elec       q    Type
REMARK                         _______ _______ _______ _____ _____    ______ ____
ROOT
ATOM      1  C   UNL     1      -1.777  11.423  17.799  0.00  0.00    +0.000 A 
ATOM      2  C   UNL     1      -0.986  12.465  18.300  0.00  0.00    +0.000 A 
ATOM      3  C   UNL     1       0.234  11.914  18.656  0.00  0.00    +0.000 A 
ATOM      4  N   UNL     1       0.061  10.536  18.474  0.00  0.00    +0.000 N 
ATOM      5  N   UNL     1      -1.132  10.250  17.848  0.00  0.00    +0.000 NA
ENDROOT
BRANCH   3   6
ATOM      6  C   UNL     1       1.514  12.536  18.947  0.00  0.00    +0.000 C 
ATOM      7  O   UNL     1       2.428  12.477  18.122  0.00  0.00    +0.000 OA
ATOM      8  N   UNL     1       1.738  13.257  20.124  0.00  0.00    +0.000 N 
ATOM      9  C   UNL     1       0.878  13.469  21.286  0.00  0.00    +0.000 C 
ATOM     10  C   UNL     1       0.780  14.962  21.646  0.00  0.00    +0.000 C 
ATOM     11  O   UNL     1       2.054  15.624  21.708  0.00  0.00    +0.000 OA
ATOM     12  C   UNL     1       2.868  15.429  20.526  0.00  0.00    +0.000 C 
ATOM     13  C   UNL     1       3.045  13.911  20.299  0.00  0.00    +0.000 C 
BRANCH  12  14
ATOM     14  C   UNL     1       2.373  16.239  19.328  0.00  0.00    +0.000 A 
ATOM     15  C   UNL     1       3.139  16.305  18.150  0.00  0.00    +0.000 A 
ATOM     16  C   UNL     1       2.709  17.050  17.046  0.00  0.00    +0.000 A 
ATOM     17  C   UNL     1       1.489  17.722  17.090  0.00  0.00    +0.000 A 
ATOM     18  C   UNL     1       0.704  17.627  18.228  0.00  0.00    +0.000 A 
ATOM     19  F   UNL     1      -0.477  18.256  18.269  0.00  0.00    +0.000 F 
ATOM     20  C   UNL     1       1.126  16.887  19.329  0.00  0.00    +0.000 A 
ENDBRANCH  12  14
ENDBRANCH   3   6
BRANCH   4  21
ATOM     21  C   UNL     1       0.897   9.444  18.865  0.00  0.00    +0.000 A 
ATOM     22  C   UNL     1       0.932   8.982  20.188  0.00  0.00    +0.000 A 
ATOM     23  C   UNL     1       1.736   7.889  20.529  0.00  0.00    +0.000 A 
ATOM     24  C   UNL     1       2.509   7.256  19.558  0.00  0.00    +0.000 A 
ATOM     25  C   UNL     1       2.483   7.713  18.242  0.00  0.00    +0.000 A 
ATOM     26  C   UNL     1       1.669   8.793  17.890  0.00  0.00    +0.000 A 
ENDBRANCH   4  21
BRANCH   1  28
ATOM     27  O   UNL     1      -4.144  11.631  17.869  0.00  0.00    +0.000 OA
ATOM     28  C   UNL     1      -3.121  11.562  17.211  0.00  0.00    +0.000 C 
BRANCH  28  29
ATOM     29  O   UNL     1      -3.099  11.605  15.858  0.00  0.00    +0.000 OA
ATOM     30  H   UNL     1      -2.776  10.728  15.543  0.00  0.00    +0.000 HD
ENDBRANCH  28  29
ENDBRANCH   1  28
TORSDOF 5
ENDMDL
MODEL 6
REMARK VINA RESULT:      -8.3      8.009     11.035
REMARK  Name = 
REMARK  5 active torsions:
REMARK  status: ('A' for Active; 'I' for Inactive)
REMARK    1  A    between atoms: C_2  and  O_3
REMARK    2  A    between atoms: C_2  and  C_4
REMARK    3  A    between atoms: C_6  and  C_7
REMARK    4  A    between atoms: C_13  and  C_14
REMARK    5  A    between atoms: N_22  and  C_23
REMARK                            x       y       z     vdW  Elec       q    Type
REMARK                         _______ _______ _______ _____ _____    ______ ____
ROOT
ATOM      1  C   UNL     1      -1.813  11.258  17.662  0.00  0.00    +0.000 A 
ATOM      2  C   UNL     1      -1.292  12.540  17.878  0.00  0.00    +0.000 A 
ATOM      3  C   UNL     1      -0.551  12.486  19.047  0.00  0.00    +0.000 A 
ATOM      4  N   UNL     1      -0.780  11.197  19.546  0.00  0.00    +0.000 N 
ATOM      5  N   UNL     1      -1.464  10.415  18.642  0.00  0.00    +0.000 NA
ENDROOT
BRANCH   3   6
ATOM      6  C   UNL     1       0.434  13.402  19.598  0.00  0.00    +0.000 C 
ATOM      7  O   UNL     1       1.583  13.409  19.153  0.00  0.00    +0.000 OA
ATOM      8  N   UNL     1       0.109  14.328  20.594  0.00  0.00    +0.000 N 
ATOM      9  C   UNL     1      -1.136  14.532  21.331  0.00  0.00    +0.000 C 
ATOM     10  C   UNL     1      -1.570  16.008  21.302  0.00  0.00    +0.000 C 
ATOM     11  O   UNL     1      -0.514  16.925  21.631  0.00  0.00    +0.000 OA
ATOM     12  C   UNL     1       0.693  16.725  20.855  0.00  0.00    +0.000 C 
ATOM     13  C   UNL     1       1.155  15.262  21.039  0.00  0.00    +0.000 C 
BRANCH  12  14
ATOM     14  C   UNL     1       0.557  17.215  19.414  0.00  0.00    +0.000 A 
ATOM     15  C   UNL     1      -0.656  17.764  18.962  0.00  0.00    +0.000 A 
ATOM     16  C   UNL     1      -0.805  18.209  17.643  0.00  0.00    +0.000 A 
ATOM     17  C   UNL     1       0.268  18.137  16.758  0.00  0.00    +0.000 A 
ATOM     18  C   UNL     1       1.483  17.640  17.204  0.00  0.00    +0.000 A 
ATOM     19  F   UNL     1       2.523  17.586  16.363  0.00  0.00    +0.000 F 
ATOM     20  C   UNL     1       1.637  17.197  18.515  0.00  0.00    +0.000 A 
ENDBRANCH  12  14
ENDBRANCH   3   6
BRANCH   4  21
ATOM     21  C   UNL     1      -0.449  10.629  20.815  0.00  0.00    +0.000 A 
ATOM     22  C   UNL     1      -1.118  11.008  21.987  0.00  0.00    +0.000 A 
ATOM     23  C   UNL     1      -0.791  10.407  23.208  0.00  0.00    +0.000 A 
ATOM     24  C   UNL     1       0.203   9.433  23.267  0.00  0.00    +0.000 A 
ATOM     25  C   UNL     1       0.875   9.054  22.107  0.00  0.00    +0.000 A 
ATOM     26  C   UNL     1       0.542   9.638  20.881  0.00  0.00    +0.000 A 
ENDBRANCH   4  21
BRANCH   1  28
ATOM     27  O   UNL     1      -2.414   9.763  15.914  0.00  0.00    +0.000 OA
ATOM     28  C   UNL     1      -2.586  10.825  16.484  0.00  0.00    +0.000 C 
BRANCH  28  29
ATOM     29  O   UNL     1      -3.510  11.738  16.101  0.00  0.00    +0.000 OA
ATOM     30  H   UNL     1      -4.334  11.243  15.878  0.00  0.00    +0.000 HD
ENDBRANCH  28  29
ENDBRANCH   1  28
TORSDOF 5
ENDMDL
MODEL 7
REMARK VINA RESULT:      -8.3      8.094     10.949
REMARK  Name = 
REMARK  5 active torsions:
REMARK  status: ('A' for Active; 'I' for Inactive)
REMARK    1  A    between atoms: C_2  and  O_3
REMARK    2  A    between atoms: C_2  and  C_4
REMARK    3  A    between atoms: C_6  and  C_7
REMARK    4  A    between atoms: C_13  and  C_14
REMARK    5  A    between atoms: N_22  and  C_23
REMARK                            x       y       z     vdW  Elec       q    Type
REMARK                         _______ _______ _______ _____ _____    ______ ____
ROOT
ATOM      1  C   UNL     1      -1.771  11.485  17.747  0.00  0.00    +0.000 A 
ATOM      2  C   UNL     1      -1.033  12.660  17.943  0.00  0.00    +0.000 A 
ATOM      3  C   UNL     1      -0.250  12.466  19.068  0.00  0.00    +0.000 A 
ATOM      4  N   UNL     1      -0.664  11.225  19.571  0.00  0.00    +0.000 N 
ATOM      5  N   UNL     1      -1.516  10.581  18.701  0.00  0.00    +0.000 NA
ENDROOT
BRANCH   3   6
ATOM      6  C   UNL     1       0.901  13.197  19.569  0.00  0.00    +0.000 C 
ATOM      7  O   UNL     1       2.017  12.991  19.089  0.00  0.00    +0.000 OA
ATOM      8  N   UNL     1       0.782  14.180  20.556  0.00  0.00    +0.000 N 
ATOM      9  C   UNL     1      -0.380  14.615  21.328  0.00  0.00    +0.000 C 
ATOM     10  C   UNL     1      -0.543  16.145  21.283  0.00  0.00    +0.000 C 
ATOM     11  O   UNL     1       0.671  16.862  21.561  0.00  0.00    +0.000 OA
ATOM     12  C   UNL     1       1.795  16.437  20.752  0.00  0.00    +0.000 C 
ATOM     13  C   UNL     1       1.994  14.917  20.950  0.00  0.00    +0.000 C 
BRANCH  12  14
ATOM     14  C   UNL     1       1.700  16.923  19.306  0.00  0.00    +0.000 A 
ATOM     15  C   UNL     1       2.767  16.713  18.414  0.00  0.00    +0.000 A 
ATOM     16  C   UNL     1       2.704  17.161  17.089  0.00  0.00    +0.000 A 
ATOM     17  C   UNL     1       1.559  17.804  16.623  0.00  0.00    +0.000 A 
ATOM     18  C   UNL     1       0.483  17.976  17.480  0.00  0.00    +0.000 A 
ATOM     19  F   UNL     1      -0.627  18.576  17.033  0.00  0.00    +0.000 F 
ATOM     20  C   UNL     1       0.540  17.532  18.799  0.00  0.00    +0.000 A 
ENDBRANCH  12  14
ENDBRANCH   3   6
BRANCH   4  21
ATOM     21  C   UNL     1      -0.364  10.590  20.817  0.00  0.00    +0.000 A 
ATOM     22  C   UNL     1       0.615   9.592  20.917  0.00  0.00    +0.000 A 
ATOM     23  C   UNL     1       0.906   9.016  22.158  0.00  0.00    +0.000 A 
ATOM     24  C   UNL     1       0.224   9.428  23.301  0.00  0.00    +0.000 A 
ATOM     25  C   UNL     1      -0.754  10.417  23.208  0.00  0.00    +0.000 A 
ATOM     26  C   UNL     1      -1.038  11.008  21.974  0.00  0.00    +0.000 A 
ENDBRANCH   4  21
BRANCH   1  28
ATOM     27  O   UNL     1      -2.425  10.384  15.745  0.00  0.00    +0.000 OA
ATOM     28  C   UNL     1      -2.667  11.204  16.611  0.00  0.00    +0.000 C 
BRANCH  28  29
ATOM     29  O   UNL     1      -3.792  11.959  16.633  0.00  0.00    +0.000 OA
ATOM     30  H   UNL     1      -3.576  12.790  17.118  0.00  0.00    +0.000 HD
ENDBRANCH  28  29
ENDBRANCH   1  28
TORSDOF 5
ENDMDL
MODEL 8
REMARK VINA RESULT:      -8.2      8.048     10.851
REMARK  Name = 
REMARK  5 active torsions:
REMARK  status: ('A' for Active; 'I' for Inactive)
REMARK    1  A    between atoms: C_2  and  O_3
REMARK    2  A    between atoms: C_2  and  C_4
REMARK    3  A    between atoms: C_6  and  C_7
REMARK    4  A    between atoms: C_13  and  C_14
REMARK    5  A    between atoms: N_22  and  C_23
REMARK                            x       y       z     vdW  Elec       q    Type
REMARK                         _______ _______ _______ _____ _____    ______ ____
ROOT
ATOM      1  C   UNL     1      -1.862  11.645  17.918  0.00  0.00    +0.000 A 
ATOM      2  C   UNL     1      -1.045  12.769  18.096  0.00  0.00    +0.000 A 
ATOM      3  C   UNL     1      -0.214  12.503  19.172  0.00  0.00    +0.000 A 
ATOM      4  N   UNL     1      -0.674  11.277  19.671  0.00  0.00    +0.000 N 
ATOM      5  N   UNL     1      -1.609  10.705  18.838  0.00  0.00    +0.000 NA
ENDROOT
BRANCH   3   6
ATOM      6  C   UNL     1       1.004  13.153  19.622  0.00  0.00    +0.000 C 
ATOM      7  O   UNL     1       2.062  12.965  19.018  0.00  0.00    +0.000 OA
ATOM      8  N   UNL     1       1.015  14.041  20.702  0.00  0.00    +0.000 N 
ATOM      9  C   UNL     1      -0.052  14.430  21.622  0.00  0.00    +0.000 C 
ATOM     10  C   UNL     1      -0.165  15.961  21.734  0.00  0.00    +0.000 C 
ATOM     11  O   UNL     1       1.095  16.617  21.956  0.00  0.00    +0.000 OA
ATOM     12  C   UNL     1       2.121  16.241  21.004  0.00  0.00    +0.000 C 
ATOM     13  C   UNL     1       2.284  14.705  21.041  0.00  0.00    +0.000 C 
BRANCH  12  14
ATOM     14  C   UNL     1       1.905  16.865  19.626  0.00  0.00    +0.000 A 
ATOM     15  C   UNL     1       0.999  17.929  19.461  0.00  0.00    +0.000 A 
ATOM     16  C   UNL     1       0.779  18.507  18.206  0.00  0.00    +0.000 A 
ATOM     17  C   UNL     1       1.482  18.049  17.094  0.00  0.00    +0.000 A 
ATOM     18  C   UNL     1       2.411  17.031  17.251  0.00  0.00    +0.000 A 
ATOM     19  F   UNL     1       3.102  16.600  16.189  0.00  0.00    +0.000 F 
ATOM     20  C   UNL     1       2.634  16.453  18.497  0.00  0.00    +0.000 A 
ENDBRANCH  12  14
ENDBRANCH   3   6
BRANCH   4  21
ATOM     21  C   UNL     1      -0.346  10.597  20.885  0.00  0.00    +0.000 A 
ATOM     22  C   UNL     1       0.681   9.644  20.940  0.00  0.00    +0.000 A 
ATOM     23  C   UNL     1       0.999   9.022  22.152  0.00  0.00    +0.000 A 
ATOM     24  C   UNL     1       0.295   9.343  23.311  0.00  0.00    +0.000 A 
ATOM     25  C   UNL     1      -0.730  10.286  23.264  0.00  0.00    +0.000 A 
ATOM     26  C   UNL     1      -1.041  10.924  22.060  0.00  0.00    +0.000 A 
ENDBRANCH   4  21
BRANCH   1  28
ATOM     27  O   UNL     1      -4.040  11.427  16.993  0.00  0.00    +0.000 OA
ATOM     28  C   UNL     1      -2.834  11.445  16.829  0.00  0.00    +0.000 C 
BRANCH  28  29
ATOM     29  O   UNL     1      -2.241  11.283  15.622  0.00  0.00    +0.000 OA
ATOM     30  H   UNL     1      -1.543  10.594  15.730  0.00  0.00    +0.000 HD
ENDBRANCH  28  29
ENDBRANCH   1  28
TORSDOF 5
ENDMDL
MODEL 9
REMARK VINA RESULT:      -8.2      8.143     10.893
REMARK  Name = 
REMARK  5 active torsions:
REMARK  status: ('A' for Active; 'I' for Inactive)
REMARK    1  A    between atoms: C_2  and  O_3
REMARK    2  A    between atoms: C_2  and  C_4
REMARK    3  A    between atoms: C_6  and  C_7
REMARK    4  A    between atoms: C_13  and  C_14
REMARK    5  A    between atoms: N_22  and  C_23
REMARK                            x       y       z     vdW  Elec       q    Type
REMARK                         _______ _______ _______ _____ _____    ______ ____
ROOT
ATOM      1  C   UNL     1      -1.892  11.579  17.781  0.00  0.00    +0.000 A 
ATOM      2  C   UNL     1      -1.024  12.675  17.878  0.00  0.00    +0.000 A 
ATOM      3  C   UNL     1      -0.198  12.445  18.966  0.00  0.00    +0.000 A 
ATOM      4  N   UNL     1      -0.708  11.278  19.550  0.00  0.00    +0.000 N 
ATOM      5  N   UNL     1      -1.674  10.693  18.762  0.00  0.00    +0.000 NA
ENDROOT
BRANCH   3   6
ATOM      6  C   UNL     1       1.052  13.069  19.365  0.00  0.00    +0.000 C 
ATOM      7  O   UNL     1       2.088  12.822  18.745  0.00  0.00    +0.000 OA
ATOM      8  N   UNL     1       1.117  13.993  20.412  0.00  0.00    +0.000 N 
ATOM      9  C   UNL     1       0.086  14.452  21.340  0.00  0.00    +0.000 C 
ATOM     10  C   UNL     1       0.027  15.989  21.398  0.00  0.00    +0.000 C 
ATOM     11  O   UNL     1       1.312  16.608  21.568  0.00  0.00    +0.000 OA
ATOM     12  C   UNL     1       2.303  16.164  20.608  0.00  0.00    +0.000 C 
ATOM     13  C   UNL     1       2.415  14.626  20.698  0.00  0.00    +0.000 C 
BRANCH  12  14
ATOM     14  C   UNL     1       2.076  16.745  19.213  0.00  0.00    +0.000 A 
ATOM     15  C   UNL     1       3.033  16.554  18.200  0.00  0.00    +0.000 A 
ATOM     16  C   UNL     1       2.849  17.087  16.919  0.00  0.00    +0.000 A 
ATOM     17  C   UNL     1       1.691  17.800  16.619  0.00  0.00    +0.000 A 
ATOM     18  C   UNL     1       0.719  17.957  17.596  0.00  0.00    +0.000 A 
ATOM     19  F   UNL     1      -0.404  18.625  17.308  0.00  0.00    +0.000 F 
ATOM     20  C   UNL     1       0.896  17.428  18.872  0.00  0.00    +0.000 A 
ENDBRANCH  12  14
ENDBRANCH   3   6
BRANCH   4  21
ATOM     21  C   UNL     1      -0.401  10.667  20.806  0.00  0.00    +0.000 A 
ATOM     22  C   UNL     1      -1.031  11.069  21.992  0.00  0.00    +0.000 A 
ATOM     23  C   UNL     1      -0.731  10.428  23.199  0.00  0.00    +0.000 A 
ATOM     24  C   UNL     1       0.197   9.389  23.230  0.00  0.00    +0.000 A 
ATOM     25  C   UNL     1       0.830   8.987  22.056  0.00  0.00    +0.000 A 
ATOM     26  C   UNL     1       0.523   9.612  20.844  0.00  0.00    +0.000 A 
ENDBRANCH   4  21
BRANCH   1  28
ATOM     27  O   UNL     1      -4.084  11.339  16.895  0.00  0.00    +0.000 OA
ATOM     28  C   UNL     1      -2.880  11.349  16.713  0.00  0.00    +0.000 C 
BRANCH  28  29
ATOM     29  O   UNL     1      -2.305  11.150  15.503  0.00  0.00    +0.000 OA
ATOM     30  H   UNL     1      -2.766  10.386  15.083  0.00  0.00    +0.000 HD
ENDBRANCH  28  29
ENDBRANCH   1  28
TORSDOF 5
ENDMDL
