MODEL 1
REMARK VINA RESULT:      -8.2      0.000      0.000
REMARK  Name = 
REMARK  6 active torsions:
REMARK  status: ('A' for Active; 'I' for Inactive)
REMARK    1  A    between atoms: C_2  and  C_4
REMARK    2  A    between atoms: C_6  and  N_7
REMARK    3  A    between atoms: C_15  and  N_16
REMARK    4  A    between atoms: C_17  and  C_19
REMARK    5  A    between atoms: C_19  and  C_20
REMARK    6  A    between atoms: C_20  and  C_21
REMARK                            x       y       z     vdW  Elec       q    Type
REMARK                         _______ _______ _______ _____ _____    ______ ____
ROOT
ATOM      1  C   UNL     1       1.636   6.023  20.389  0.00  0.00    +0.000 A 
ATOM      2  C   UNL     1       0.836   7.026  20.988  0.00  0.00    +0.000 A 
ATOM      3  C   UNL     1       0.822   8.355  20.537  0.00  0.00    +0.000 A 
ATOM      4  C   UNL     1       1.659   8.644  19.462  0.00  0.00    +0.000 A 
ATOM      5  C   UNL     1       2.455   7.673  18.856  0.00  0.00    +0.000 A 
ATOM      6  C   UNL     1       2.487   6.356  19.315  0.00  0.00    +0.000 A 
ENDROOT
BRANCH   3   7
ATOM      7  N   UNL     1       0.001   9.316  21.090  0.00  0.00    +0.000 N 
ATOM      8  C   UNL     1      -0.352  10.550  20.389  0.00  0.00    +0.000 C 
ATOM      9  C   UNL     1      -0.061  11.735  21.309  0.00  0.00    +0.000 C 
ATOM     10  C   UNL     1      -0.782  11.584  22.646  0.00  0.00    +0.000 C 
ATOM     11  C   UNL     1      -0.477  10.237  23.294  0.00  0.00    +0.000 C 
ATOM     12  C   UNL     1      -0.741   9.077  22.334  0.00  0.00    +0.000 C 
ENDBRANCH   3   7
BRANCH   1  14
ATOM     13  N   UNL     1       0.603   3.797  20.485  0.00  0.00    +0.000 N 
ATOM     14  C   UNL     1       1.591   4.635  20.936  0.00  0.00    +0.000 C 
ATOM     15  O   UNL     1       2.425   4.230  21.739  0.00  0.00    +0.000 OA
ATOM     16  H   UNL     1       0.620   2.843  20.822  0.00  0.00    +0.000 HD
ATOM     17  H   UNL     1       0.075   3.978  19.642  0.00  0.00    +0.000 HD
ENDBRANCH   1  14
BRANCH   6  18
ATOM     18  N   UNL     1       3.314   5.391  18.688  0.00  0.00    +0.000 N 
ATOM     19  C   UNL     1       2.870   4.378  17.852  0.00  0.00    +0.000 C 
ATOM     20  O   UNL     1       1.737   4.240  17.408  0.00  0.00    +0.000 OA
ATOM     21  H   UNL     1       4.321   5.512  18.806  0.00  0.00    +0.000 HD
BRANCH  19  22
ATOM     22  C   UNL     1       3.906   3.372  17.441  0.00  0.00    +0.000 C 
ATOM     23  C   UNL     1       3.484   1.912  17.300  0.00  0.00    +0.000 C 
ATOM     24  C   UNL     1       4.262   2.324  18.506  0.00  0.00    +0.000 C 
BRANCH  22  25
ATOM     25  C   UNL     1       5.028   3.858  16.538  0.00  0.00    +0.000 C 
BRANCH  25  26
ATOM     26  C   UNL     1       5.926   4.922  17.134  0.00  0.00    +0.000 A 
ATOM     27  C   UNL     1       6.912   4.661  18.098  0.00  0.00    +0.000 A 
ATOM     28  C   UNL     1       7.766   5.675  18.546  0.00  0.00    +0.000 A 
ATOM     29  C   UNL     1       7.662   6.964  18.029  0.00  0.00    +0.000 A 
ATOM     30  C   UNL     1       6.695   7.241  17.068  0.00  0.00    +0.000 A 
ATOM     31  C   UNL     1       5.845   6.227  16.630  0.00  0.00    +0.000 A 
ATOM     32  F   UNL     1       4.936   6.520  15.688  0.00  0.00    +0.000 F 
ENDBRANCH  25  26
ENDBRANCH  22  25
ENDBRANCH  19  22
ENDBRANCH   6  18
TORSDOF 6
ENDMDL
MODEL 2
REMARK VINA RESULT:      -8.1      1.029      1.420
REMARK  Name = 
REMARK  6 active torsions:
REMARK  status: ('A' for Active; 'I' for Inactive)
REMARK    1  A    between atoms: C_2  and  C_4
REMARK    2  A    between atoms: C_6  and  N_7
REMARK    3  A    between atoms: C_15  and  N_16
REMARK    4  A    between atoms: C_17  and  C_19
REMARK    5  A    between atoms: C_19  and  C_20
REMARK    6  A    between atoms: C_20  and  C_21
REMARK                            x       y       z     vdW  Elec       q    Type
REMARK                         _______ _______ _______ _____ _____    ______ ____
ROOT
ATOM      1  C   UNL     1       1.639   6.229  20.279  0.00  0.00    +0.000 A 
ATOM      2  C   UNL     1       1.211   7.312  21.083  0.00  0.00    +0.000 A 
ATOM      3  C   UNL     1       1.301   8.650  20.666  0.00  0.00    +0.000 A 
ATOM      4  C   UNL     1       1.857   8.860  19.406  0.00  0.00    +0.000 A 
ATOM      5  C   UNL     1       2.286   7.810  18.597  0.00  0.00    +0.000 A 
ATOM      6  C   UNL     1       2.215   6.481  19.017  0.00  0.00    +0.000 A 
ENDROOT
BRANCH   3   7
ATOM      7  N   UNL     1       0.833   9.697  21.432  0.00  0.00    +0.000 N 
ATOM      8  C   UNL     1       0.569   9.570  22.865  0.00  0.00    +0.000 C 
ATOM      9  C   UNL     1      -0.845  10.077  23.148  0.00  0.00    +0.000 C 
ATOM     10  C   UNL     1      -1.031  11.503  22.634  0.00  0.00    +0.000 C 
ATOM     11  C   UNL     1      -0.638  11.620  21.164  0.00  0.00    +0.000 C 
ATOM     12  C   UNL     1       0.764  11.067  20.910  0.00  0.00    +0.000 C 
ENDBRANCH   3   7
BRANCH   1  14
ATOM     13  N   UNL     1       2.370   4.439  21.794  0.00  0.00    +0.000 N 
ATOM     14  C   UNL     1       1.508   4.838  20.804  0.00  0.00    +0.000 C 
ATOM     15  O   UNL     1       0.640   4.074  20.397  0.00  0.00    +0.000 OA
ATOM     16  H   UNL     1       2.232   3.514  22.178  0.00  0.00    +0.000 HD
ATOM     17  H   UNL     1       2.905   5.093  22.349  0.00  0.00    +0.000 HD
ENDBRANCH   1  14
BRANCH   6  18
ATOM     18  N   UNL     1       2.669   5.432  18.178  0.00  0.00    +0.000 N 
ATOM     19  C   UNL     1       3.714   4.569  18.470  0.00  0.00    +0.000 C 
ATOM     20  O   UNL     1       4.308   4.474  19.537  0.00  0.00    +0.000 OA
ATOM     21  H   UNL     1       2.123   5.260  17.333  0.00  0.00    +0.000 HD
BRANCH  19  22
ATOM     22  C   UNL     1       4.126   3.646  17.360  0.00  0.00    +0.000 C 
ATOM     23  C   UNL     1       3.039   2.882  16.609  0.00  0.00    +0.000 C 
ATOM     24  C   UNL     1       3.866   2.154  17.617  0.00  0.00    +0.000 C 
BRANCH  22  25
ATOM     25  C   UNL     1       5.380   4.011  16.581  0.00  0.00    +0.000 C 
BRANCH  25  26
ATOM     26  C   UNL     1       6.229   5.105  17.194  0.00  0.00    +0.000 A 
ATOM     27  C   UNL     1       7.272   4.868  18.100  0.00  0.00    +0.000 A 
ATOM     28  C   UNL     1       8.075   5.917  18.564  0.00  0.00    +0.000 A 
ATOM     29  C   UNL     1       7.858   7.220  18.120  0.00  0.00    +0.000 A 
ATOM     30  C   UNL     1       6.832   7.474  17.216  0.00  0.00    +0.000 A 
ATOM     31  C   UNL     1       6.034   6.425  16.762  0.00  0.00    +0.000 A 
ATOM     32  F   UNL     1       5.065   6.699  15.876  0.00  0.00    +0.000 F 
ENDBRANCH  25  26
ENDBRANCH  22  25
ENDBRANCH  19  22
ENDBRANCH   6  18
TORSDOF 6
ENDMDL
MODEL 3
REMARK VINA RESULT:      -8.0      2.119      3.688
REMARK  Name = 
REMARK  6 active torsions:
REMARK  status: ('A' for Active; 'I' for Inactive)
REMARK    1  A    between atoms: C_2  and  C_4
REMARK    2  A    between atoms: C_6  and  N_7
REMARK    3  A    between atoms: C_15  and  N_16
REMARK    4  A    between atoms: C_17  and  C_19
REMARK    5  A    between atoms: C_19  and  C_20
REMARK    6  A    between atoms: C_20  and  C_21
REMARK                            x       y       z     vdW  Elec       q    Type
REMARK                         _______ _______ _______ _____ _____    ______ ____
ROOT
ATOM      1  C   UNL     1       1.075   9.398  19.635  0.00  0.00    +0.000 A 
ATOM      2  C   UNL     1       0.222  10.455  20.034  0.00  0.00    +0.000 A 
ATOM      3  C   UNL     1      -0.311  10.552  21.329  0.00  0.00    +0.000 A 
ATOM      4  C   UNL     1       0.035   9.529  22.210  0.00  0.00    +0.000 A 
ATOM      5  C   UNL     1       0.872   8.479  21.839  0.00  0.00    +0.000 A 
ATOM      6  C   UNL     1       1.389   8.370  20.547  0.00  0.00    +0.000 A 
ENDROOT
BRANCH   3   7
ATOM      7  N   UNL     1      -1.099  11.612  21.728  0.00  0.00    +0.000 N 
ATOM      8  C   UNL     1      -1.338  11.930  23.135  0.00  0.00    +0.000 C 
ATOM      9  C   UNL     1      -2.845  12.056  23.359  0.00  0.00    +0.000 C 
ATOM     10  C   UNL     1      -3.459  13.078  22.406  0.00  0.00    +0.000 C 
ATOM     11  C   UNL     1      -3.094  12.776  20.955  0.00  0.00    +0.000 C 
ATOM     12  C   UNL     1      -1.585  12.617  20.775  0.00  0.00    +0.000 C 
ENDBRANCH   3   7
BRANCH   1  14
ATOM     13  N   UNL     1       2.060  10.548  17.701  0.00  0.00    +0.000 N 
ATOM     14  C   UNL     1       1.596   9.374  18.236  0.00  0.00    +0.000 C 
ATOM     15  O   UNL     1       1.646   8.336  17.584  0.00  0.00    +0.000 OA
ATOM     16  H   UNL     1       2.462  10.504  16.773  0.00  0.00    +0.000 HD
ATOM     17  H   UNL     1       2.298  11.351  18.267  0.00  0.00    +0.000 HD
ENDBRANCH   1  14
BRANCH   6  18
ATOM     18  N   UNL     1       2.230   7.285  20.193  0.00  0.00    +0.000 N 
ATOM     19  C   UNL     1       1.858   5.950  20.200  0.00  0.00    +0.000 C 
ATOM     20  O   UNL     1       0.729   5.505  20.365  0.00  0.00    +0.000 OA
ATOM     21  H   UNL     1       3.153   7.528  19.830  0.00  0.00    +0.000 HD
BRANCH  19  22
ATOM     22  C   UNL     1       2.965   4.964  19.952  0.00  0.00    +0.000 C 
ATOM     23  C   UNL     1       2.610   3.616  19.331  0.00  0.00    +0.000 C 
ATOM     24  C   UNL     1       2.901   3.682  20.795  0.00  0.00    +0.000 C 
BRANCH  22  25
ATOM     25  C   UNL     1       4.342   5.528  19.641  0.00  0.00    +0.000 C 
BRANCH  25  26
ATOM     26  C   UNL     1       4.724   5.537  18.176  0.00  0.00    +0.000 A 
ATOM     27  C   UNL     1       4.497   6.621  17.316  0.00  0.00    +0.000 A 
ATOM     28  C   UNL     1       4.952   6.598  15.992  0.00  0.00    +0.000 A 
ATOM     29  C   UNL     1       5.655   5.497  15.508  0.00  0.00    +0.000 A 
ATOM     30  C   UNL     1       5.896   4.414  16.348  0.00  0.00    +0.000 A 
ATOM     31  C   UNL     1       5.436   4.443  17.663  0.00  0.00    +0.000 A 
ATOM     32  F   UNL     1       5.701   3.393  18.454  0.00  0.00    +0.000 F 
ENDBRANCH  25  26
ENDBRANCH  22  25
ENDBRANCH  19  22
ENDBRANCH   6  18
TORSDOF 6
ENDMDL
MODEL 4
REMARK VINA RESULT:      -7.9      2.007      3.483
REMARK  Name = 
REMARK  6 active torsions:
REMARK  status: ('A' for Active; 'I' for Inactive)
REMARK    1  A    between atoms: C_2  and  C_4
REMARK    2  A    between atoms: C_6  and  N_7
REMARK    3  A    between atoms: C_15  and  N_16
REMARK    4  A    between atoms: C_17  and  C_19
REMARK    5  A    between atoms: C_19  and  C_20
REMARK    6  A    between atoms: C_20  and  C_21
REMARK                            x       y       z     vdW  Elec       q    Type
REMARK                         _______ _______ _______ _____ _____    ______ ____
ROOT
ATOM      1  C   UNL     1       0.845   9.571  19.538  0.00  0.00    +0.000 A 
ATOM      2  C   UNL     1       0.132  10.594  20.208  0.00  0.00    +0.000 A 
ATOM      3  C   UNL     1       0.000  10.638  21.605  0.00  0.00    +0.000 A 
ATOM      4  C   UNL     1       0.604   9.598  22.308  0.00  0.00    +0.000 A 
ATOM      5  C   UNL     1       1.311   8.581  21.671  0.00  0.00    +0.000 A 
ATOM      6  C   UNL     1       1.427   8.523  20.281  0.00  0.00    +0.000 A 
ENDROOT
BRANCH   3   7
ATOM      7  N   UNL     1      -0.651  11.666  22.255  0.00  0.00    +0.000 N 
ATOM      8  C   UNL     1      -1.641  11.432  23.306  0.00  0.00    +0.000 C 
ATOM      9  C   UNL     1      -2.909  12.215  22.966  0.00  0.00    +0.000 C 
ATOM     10  C   UNL     1      -2.602  13.696  22.758  0.00  0.00    +0.000 C 
ATOM     11  C   UNL     1      -1.486  13.895  21.737  0.00  0.00    +0.000 C 
ATOM     12  C   UNL     1      -0.249  13.067  22.085  0.00  0.00    +0.000 C 
ENDBRANCH   3   7
BRANCH   1  14
ATOM     13  N   UNL     1      -0.231   9.757  17.338  0.00  0.00    +0.000 N 
ATOM     14  C   UNL     1       0.933   9.601  18.048  0.00  0.00    +0.000 C 
ATOM     15  O   UNL     1       2.008   9.525  17.463  0.00  0.00    +0.000 OA
ATOM     16  H   UNL     1      -0.148   9.833  16.333  0.00  0.00    +0.000 HD
ATOM     17  H   UNL     1      -1.085  10.097  17.757  0.00  0.00    +0.000 HD
ENDBRANCH   1  14
BRANCH   6  18
ATOM     18  N   UNL     1       2.143   7.470  19.657  0.00  0.00    +0.000 N 
ATOM     19  C   UNL     1       2.064   6.132  20.008  0.00  0.00    +0.000 C 
ATOM     20  O   UNL     1       1.273   5.627  20.795  0.00  0.00    +0.000 OA
ATOM     21  H   UNL     1       2.694   7.723  18.835  0.00  0.00    +0.000 HD
BRANCH  19  22
ATOM     22  C   UNL     1       3.040   5.220  19.321  0.00  0.00    +0.000 C 
ATOM     23  C   UNL     1       2.532   4.339  18.183  0.00  0.00    +0.000 C 
ATOM     24  C   UNL     1       2.783   3.718  19.518  0.00  0.00    +0.000 C 
BRANCH  22  25
ATOM     25  C   UNL     1       4.488   5.677  19.250  0.00  0.00    +0.000 C 
BRANCH  25  26
ATOM     26  C   UNL     1       5.153   5.515  17.899  0.00  0.00    +0.000 A 
ATOM     27  C   UNL     1       6.061   4.490  17.593  0.00  0.00    +0.000 A 
ATOM     28  C   UNL     1       6.576   4.347  16.300  0.00  0.00    +0.000 A 
ATOM     29  C   UNL     1       6.181   5.216  15.284  0.00  0.00    +0.000 A 
ATOM     30  C   UNL     1       5.277   6.235  15.566  0.00  0.00    +0.000 A 
ATOM     31  C   UNL     1       4.773   6.374  16.858  0.00  0.00    +0.000 A 
ATOM     32  F   UNL     1       3.888   7.354  17.094  0.00  0.00    +0.000 F 
ENDBRANCH  25  26
ENDBRANCH  22  25
ENDBRANCH  19  22
ENDBRANCH   6  18
TORSDOF 6
ENDMDL
MODEL 5
REMARK VINA RESULT:      -7.9      4.122      7.065
REMARK  Name = 
REMARK  6 active torsions:
REMARK  status: ('A' for Active; 'I' for Inactive)
REMARK    1  A    between atoms: C_2  and  C_4
REMARK    2  A    between atoms: C_6  and  N_7
REMARK    3  A    between atoms: C_15  and  N_16
REMARK    4  A    between atoms: C_17  and  C_19
REMARK    5  A    between atoms: C_19  and  C_20
REMARK    6  A    between atoms: C_20  and  C_21
REMARK                            x       y       z     vdW  Elec       q    Type
REMARK                         _______ _______ _______ _____ _____    ______ ____
ROOT
ATOM      1  C   UNL     1       7.882   6.903  18.569  0.00  0.00    +0.000 A 
ATOM      2  C   UNL     1       8.729   7.972  18.948  0.00  0.00    +0.000 A 
ATOM      3  C   UNL     1       8.583   9.272  18.439  0.00  0.00    +0.000 A 
ATOM      4  C   UNL     1       7.556   9.454  17.516  0.00  0.00    +0.000 A 
ATOM      5  C   UNL     1       6.710   8.417  17.128  0.00  0.00    +0.000 A 
ATOM      6  C   UNL     1       6.865   7.120  17.618  0.00  0.00    +0.000 A 
ENDROOT
BRANCH   3   7
ATOM      7  N   UNL     1       9.378  10.322  18.850  0.00  0.00    +0.000 N 
ATOM      8  C   UNL     1       9.585  10.647  20.261  0.00  0.00    +0.000 C 
ATOM      9  C   UNL     1       9.290  12.133  20.468  0.00  0.00    +0.000 C 
ATOM     10  C   UNL     1      10.128  12.997  19.529  0.00  0.00    +0.000 C 
ATOM     11  C   UNL     1       9.972  12.554  18.077  0.00  0.00    +0.000 C 
ATOM     12  C   UNL     1      10.236  11.057  17.913  0.00  0.00    +0.000 C 
ENDBRANCH   3   7
BRANCH   1  14
ATOM     13  N   UNL     1       8.242   5.457  20.522  0.00  0.00    +0.000 N 
ATOM     14  C   UNL     1       8.111   5.551  19.160  0.00  0.00    +0.000 C 
ATOM     15  O   UNL     1       8.149   4.541  18.465  0.00  0.00    +0.000 OA
ATOM     16  H   UNL     1       8.339   4.527  20.911  0.00  0.00    +0.000 HD
ATOM     17  H   UNL     1       7.948   6.191  21.151  0.00  0.00    +0.000 HD
ENDBRANCH   1  14
BRANCH   6  18
ATOM     18  N   UNL     1       5.997   6.080  17.199  0.00  0.00    +0.000 N 
ATOM     19  C   UNL     1       4.637   6.018  17.459  0.00  0.00    +0.000 C 
ATOM     20  O   UNL     1       3.946   6.900  17.954  0.00  0.00    +0.000 OA
ATOM     21  H   UNL     1       6.405   5.368  16.590  0.00  0.00    +0.000 HD
BRANCH  19  22
ATOM     22  C   UNL     1       3.955   4.740  17.063  0.00  0.00    +0.000 C 
ATOM     23  C   UNL     1       4.782   3.458  17.026  0.00  0.00    +0.000 C 
ATOM     24  C   UNL     1       4.431   4.127  15.738  0.00  0.00    +0.000 C 
BRANCH  22  25
ATOM     25  C   UNL     1       2.480   4.603  17.406  0.00  0.00    +0.000 C 
BRANCH  25  26
ATOM     26  C   UNL     1       2.183   4.031  18.777  0.00  0.00    +0.000 A 
ATOM     27  C   UNL     1       2.138   4.798  19.950  0.00  0.00    +0.000 A 
ATOM     28  C   UNL     1       1.774   4.223  21.173  0.00  0.00    +0.000 A 
ATOM     29  C   UNL     1       1.433   2.874  21.243  0.00  0.00    +0.000 A 
ATOM     30  C   UNL     1       1.465   2.098  20.089  0.00  0.00    +0.000 A 
ATOM     31  C   UNL     1       1.833   2.677  18.876  0.00  0.00    +0.000 A 
ATOM     32  F   UNL     1       1.836   1.907  17.777  0.00  0.00    +0.000 F 
ENDBRANCH  25  26
ENDBRANCH  22  25
ENDBRANCH  19  22
ENDBRANCH   6  18
TORSDOF 6
ENDMDL
MODEL 6
REMARK VINA RESULT:      -7.8      3.356      9.462
REMARK  Name = 
REMARK  6 active torsions:
REMARK  status: ('A' for Active; 'I' for Inactive)
REMARK    1  A    between atoms: C_2  and  C_4
REMARK    2  A    between atoms: C_6  and  N_7
REMARK    3  A    between atoms: C_15  and  N_16
REMARK    4  A    between atoms: C_17  and  C_19
REMARK    5  A    between atoms: C_19  and  C_20
REMARK    6  A    between atoms: C_20  and  C_21
REMARK                            x       y       z     vdW  Elec       q    Type
REMARK                         _______ _______ _______ _____ _____    ______ ____
ROOT
ATOM      1  C   UNL     1       1.151   8.611  20.279  0.00  0.00    +0.000 A 
ATOM      2  C   UNL     1       1.937   7.490  19.917  0.00  0.00    +0.000 A 
ATOM      3  C   UNL     1       2.561   7.374  18.666  0.00  0.00    +0.000 A 
ATOM      4  C   UNL     1       2.352   8.427  17.778  0.00  0.00    +0.000 A 
ATOM      5  C   UNL     1       1.582   9.540  18.112  0.00  0.00    +0.000 A 
ATOM      6  C   UNL     1       0.945   9.649  19.349  0.00  0.00    +0.000 A 
ENDROOT
BRANCH   3   7
ATOM      7  N   UNL     1       3.369   6.304  18.338  0.00  0.00    +0.000 N 
ATOM      8  C   UNL     1       4.698   6.471  17.750  0.00  0.00    +0.000 C 
ATOM      9  C   UNL     1       4.787   5.606  16.492  0.00  0.00    +0.000 C 
ATOM     10  C   UNL     1       4.453   4.149  16.802  0.00  0.00    +0.000 C 
ATOM     11  C   UNL     1       3.111   4.026  17.517  0.00  0.00    +0.000 C 
ATOM     12  C   UNL     1       3.041   4.933  18.745  0.00  0.00    +0.000 C 
ENDBRANCH   3   7
BRANCH   1  14
ATOM     13  N   UNL     1       1.258   9.162  22.670  0.00  0.00    +0.000 N 
ATOM     14  C   UNL     1       0.522   8.650  21.632  0.00  0.00    +0.000 C 
ATOM     15  O   UNL     1      -0.630   8.272  21.820  0.00  0.00    +0.000 OA
ATOM     16  H   UNL     1       0.798   9.235  23.568  0.00  0.00    +0.000 HD
ATOM     17  H   UNL     1       2.082   9.730  22.528  0.00  0.00    +0.000 HD
ENDBRANCH   1  14
BRANCH   6  18
ATOM     18  N   UNL     1       0.158  10.787  19.659  0.00  0.00    +0.000 N 
ATOM     19  C   UNL     1       0.535  11.812  20.512  0.00  0.00    +0.000 C 
ATOM     20  O   UNL     1       1.641  11.979  21.012  0.00  0.00    +0.000 OA
ATOM     21  H   UNL     1      -0.719  10.885  19.144  0.00  0.00    +0.000 HD
BRANCH  19  22
ATOM     22  C   UNL     1      -0.528  12.827  20.822  0.00  0.00    +0.000 C 
ATOM     23  C   UNL     1      -1.858  12.734  20.080  0.00  0.00    +0.000 C 
ATOM     24  C   UNL     1      -0.876  13.783  19.670  0.00  0.00    +0.000 C 
BRANCH  22  25
ATOM     25  C   UNL     1      -0.560  13.393  22.232  0.00  0.00    +0.000 C 
BRANCH  25  26
ATOM     26  C   UNL     1      -1.927  13.436  22.883  0.00  0.00    +0.000 A 
ATOM     27  C   UNL     1      -2.747  14.574  22.903  0.00  0.00    +0.000 A 
ATOM     28  C   UNL     1      -4.036  14.524  23.446  0.00  0.00    +0.000 A 
ATOM     29  C   UNL     1      -4.535  13.331  23.966  0.00  0.00    +0.000 A 
ATOM     30  C   UNL     1      -3.740  12.190  23.949  0.00  0.00    +0.000 A 
ATOM     31  C   UNL     1      -2.456  12.250  23.410  0.00  0.00    +0.000 A 
ATOM     32  F   UNL     1      -1.720  11.128  23.391  0.00  0.00    +0.000 F 
ENDBRANCH  25  26
ENDBRANCH  22  25
ENDBRANCH  19  22
ENDBRANCH   6  18
TORSDOF 6
ENDMDL
MODEL 7
REMARK VINA RESULT:      -7.8      1.218      1.778
REMARK  Name = 
REMARK  6 active torsions:
REMARK  status: ('A' for Active; 'I' for Inactive)
REMARK    1  A    between atoms: C_2  and  C_4
REMARK    2  A    between atoms: C_6  and  N_7
REMARK    3  A    between atoms: C_15  and  N_16
REMARK    4  A    between atoms: C_17  and  C_19
REMARK    5  A    between atoms: C_19  and  C_20
REMARK    6  A    between atoms: C_20  and  C_21
REMARK                            x       y       z     vdW  Elec       q    Type
REMARK                         _______ _______ _______ _____ _____    ______ ____
ROOT
ATOM      1  C   UNL     1       1.651   5.982  20.350  0.00  0.00    +0.000 A 
ATOM      2  C   UNL     1       1.235   7.090  21.128  0.00  0.00    +0.000 A 
ATOM      3  C   UNL     1       1.347   8.415  20.681  0.00  0.00    +0.000 A 
ATOM      4  C   UNL     1       1.912   8.589  19.419  0.00  0.00    +0.000 A 
ATOM      5  C   UNL     1       2.329   7.514  18.636  0.00  0.00    +0.000 A 
ATOM      6  C   UNL     1       2.237   6.196  19.085  0.00  0.00    +0.000 A 
ENDROOT
BRANCH   3   7
ATOM      7  N   UNL     1       0.892   9.487  21.420  0.00  0.00    +0.000 N 
ATOM      8  C   UNL     1       0.685   9.415  22.866  0.00  0.00    +0.000 C 
ATOM      9  C   UNL     1      -0.726   9.914  23.183  0.00  0.00    +0.000 C 
ATOM     10  C   UNL     1      -0.955  11.313  22.618  0.00  0.00    +0.000 C 
ATOM     11  C   UNL     1      -0.620  11.375  21.131  0.00  0.00    +0.000 C 
ATOM     12  C   UNL     1       0.780  10.833  20.845  0.00  0.00    +0.000 C 
ENDBRANCH   3   7
BRANCH   1  14
ATOM     13  N   UNL     1       0.500   3.813  20.395  0.00  0.00    +0.000 N 
ATOM     14  C   UNL     1       1.497   4.605  20.906  0.00  0.00    +0.000 C 
ATOM     15  O   UNL     1       2.252   4.168  21.768  0.00  0.00    +0.000 OA
ATOM     16  H   UNL     1       0.445   2.864  20.741  0.00  0.00    +0.000 HD
ATOM     17  H   UNL     1       0.042   4.010  19.516  0.00  0.00    +0.000 HD
ENDBRANCH   1  14
BRANCH   6  18
ATOM     18  N   UNL     1       2.679   5.122  18.273  0.00  0.00    +0.000 N 
ATOM     19  C   UNL     1       3.823   4.370  18.493  0.00  0.00    +0.000 C 
ATOM     20  O   UNL     1       4.545   4.409  19.481  0.00  0.00    +0.000 OA
ATOM     21  H   UNL     1       2.053   4.839  17.517  0.00  0.00    +0.000 HD
BRANCH  19  22
ATOM     22  C   UNL     1       4.181   3.396  17.408  0.00  0.00    +0.000 C 
ATOM     23  C   UNL     1       3.062   2.578  16.769  0.00  0.00    +0.000 C 
ATOM     24  C   UNL     1       3.964   1.916  17.759  0.00  0.00    +0.000 C 
BRANCH  22  25
ATOM     25  C   UNL     1       5.375   3.738  16.531  0.00  0.00    +0.000 C 
BRANCH  25  26
ATOM     26  C   UNL     1       5.977   5.108  16.762  0.00  0.00    +0.000 A 
ATOM     27  C   UNL     1       5.342   6.309  16.412  0.00  0.00    +0.000 A 
ATOM     28  C   UNL     1       5.916   7.545  16.730  0.00  0.00    +0.000 A 
ATOM     29  C   UNL     1       7.127   7.605  17.416  0.00  0.00    +0.000 A 
ATOM     30  C   UNL     1       7.769   6.425  17.777  0.00  0.00    +0.000 A 
ATOM     31  C   UNL     1       7.194   5.197  17.453  0.00  0.00    +0.000 A 
ATOM     32  F   UNL     1       7.827   4.077  17.831  0.00  0.00    +0.000 F 
ENDBRANCH  25  26
ENDBRANCH  22  25
ENDBRANCH  19  22
ENDBRANCH   6  18
TORSDOF 6
ENDMDL
MODEL 8
REMARK VINA RESULT:      -7.7      2.067      3.332
REMARK  Name = 
REMARK  6 active torsions:
REMARK  status: ('A' for Active; 'I' for Inactive)
REMARK    1  A    between atoms: C_2  and  C_4
REMARK    2  A    between atoms: C_6  and  N_7
REMARK    3  A    between atoms: C_15  and  N_16
REMARK    4  A    between atoms: C_17  and  C_19
REMARK    5  A    between atoms: C_19  and  C_20
REMARK    6  A    between atoms: C_20  and  C_21
REMARK                            x       y       z     vdW  Elec       q    Type
REMARK                         _______ _______ _______ _____ _____    ______ ____
ROOT
ATOM      1  C   UNL     1       1.310   9.209  19.442  0.00  0.00    +0.000 A 
ATOM      2  C   UNL     1       0.370  10.187  19.846  0.00  0.00    +0.000 A 
ATOM      3  C   UNL     1      -0.240  10.177  21.111  0.00  0.00    +0.000 A 
ATOM      4  C   UNL     1       0.122   9.129  21.955  0.00  0.00    +0.000 A 
ATOM      5  C   UNL     1       1.045   8.155  21.579  0.00  0.00    +0.000 A 
ATOM      6  C   UNL     1       1.638   8.151  20.316  0.00  0.00    +0.000 A 
ENDROOT
BRANCH   3   7
ATOM      7  N   UNL     1      -1.115  11.162  21.518  0.00  0.00    +0.000 N 
ATOM      8  C   UNL     1      -1.919  11.940  20.577  0.00  0.00    +0.000 C 
ATOM      9  C   UNL     1      -1.719  13.426  20.876  0.00  0.00    +0.000 C 
ATOM     10  C   UNL     1      -2.040  13.742  22.334  0.00  0.00    +0.000 C 
ATOM     11  C   UNL     1      -1.265  12.833  23.284  0.00  0.00    +0.000 C 
ATOM     12  C   UNL     1      -1.456  11.358  22.933  0.00  0.00    +0.000 C 
ENDBRANCH   3   7
BRANCH   1  14
ATOM     13  N   UNL     1       2.199  10.540  17.580  0.00  0.00    +0.000 N 
ATOM     14  C   UNL     1       1.908   9.295  18.077  0.00  0.00    +0.000 C 
ATOM     15  O   UNL     1       2.169   8.292  17.421  0.00  0.00    +0.000 OA
ATOM     16  H   UNL     1       2.656  10.579  16.678  0.00  0.00    +0.000 HD
ATOM     17  H   UNL     1       2.266  11.361  18.165  0.00  0.00    +0.000 HD
ENDBRANCH   1  14
BRANCH   6  18
ATOM     18  N   UNL     1       2.566   7.142  19.954  0.00  0.00    +0.000 N 
ATOM     19  C   UNL     1       2.255   5.807  19.748  0.00  0.00    +0.000 C 
ATOM     20  O   UNL     1       1.135   5.315  19.699  0.00  0.00    +0.000 OA
ATOM     21  H   UNL     1       3.518   7.453  19.756  0.00  0.00    +0.000 HD
BRANCH  19  22
ATOM     22  C   UNL     1       3.427   4.890  19.540  0.00  0.00    +0.000 C 
ATOM     23  C   UNL     1       3.175   3.522  18.913  0.00  0.00    +0.000 C 
ATOM     24  C   UNL     1       3.413   3.608  20.385  0.00  0.00    +0.000 C 
BRANCH  22  25
ATOM     25  C   UNL     1       4.777   5.536  19.272  0.00  0.00    +0.000 C 
BRANCH  25  26
ATOM     26  C   UNL     1       5.294   5.396  17.855  0.00  0.00    +0.000 A 
ATOM     27  C   UNL     1       4.691   5.999  16.742  0.00  0.00    +0.000 A 
ATOM     28  C   UNL     1       5.267   5.901  15.470  0.00  0.00    +0.000 A 
ATOM     29  C   UNL     1       6.465   5.211  15.291  0.00  0.00    +0.000 A 
ATOM     30  C   UNL     1       7.082   4.612  16.385  0.00  0.00    +0.000 A 
ATOM     31  C   UNL     1       6.499   4.711  17.647  0.00  0.00    +0.000 A 
ATOM     32  F   UNL     1       7.127   4.139  18.685  0.00  0.00    +0.000 F 
ENDBRANCH  25  26
ENDBRANCH  22  25
ENDBRANCH  19  22
ENDBRANCH   6  18
TORSDOF 6
ENDMDL
MODEL 9
REMARK VINA RESULT:      -7.7      3.724      8.422
REMARK  Name = 
REMARK  6 active torsions:
REMARK  status: ('A' for Active; 'I' for Inactive)
REMARK    1  A    between atoms: C_2  and  C_4
REMARK    2  A    between atoms: C_6  and  N_7
REMARK    3  A    between atoms: C_15  and  N_16
REMARK    4  A    between atoms: C_17  and  C_19
REMARK    5  A    between atoms: C_19  and  C_20
REMARK    6  A    between atoms: C_20  and  C_21
REMARK                            x       y       z     vdW  Elec       q    Type
REMARK                         _______ _______ _______ _____ _____    ______ ____
ROOT
ATOM      1  C   UNL     1       1.445   8.466  20.213  0.00  0.00    +0.000 A 
ATOM      2  C   UNL     1       2.118   7.261  19.901  0.00  0.00    +0.000 A 
ATOM      3  C   UNL     1       2.698   7.018  18.646  0.00  0.00    +0.000 A 
ATOM      4  C   UNL     1       2.560   8.034  17.703  0.00  0.00    +0.000 A 
ATOM      5  C   UNL     1       1.902   9.229  17.987  0.00  0.00    +0.000 A 
ATOM      6  C   UNL     1       1.308   9.465  19.227  0.00  0.00    +0.000 A 
ENDROOT
BRANCH   3   7
ATOM      7  N   UNL     1       3.399   5.863  18.365  0.00  0.00    +0.000 N 
ATOM      8  C   UNL     1       4.778   5.877  17.879  0.00  0.00    +0.000 C 
ATOM      9  C   UNL     1       4.861   5.012  16.621  0.00  0.00    +0.000 C 
ATOM     10  C   UNL     1       4.338   3.603  16.886  0.00  0.00    +0.000 C 
ATOM     11  C   UNL     1       2.940   3.634  17.498  0.00  0.00    +0.000 C 
ATOM     12  C   UNL     1       2.884   4.538  18.729  0.00  0.00    +0.000 C 
ENDBRANCH   3   7
BRANCH   1  14
ATOM     13  N   UNL     1       1.701   8.962  22.605  0.00  0.00    +0.000 N 
ATOM     14  C   UNL     1       0.856   8.639  21.574  0.00  0.00    +0.000 C 
ATOM     15  O   UNL     1      -0.350   8.533  21.774  0.00  0.00    +0.000 OA
ATOM     16  H   UNL     1       1.279   9.131  23.509  0.00  0.00    +0.000 HD
ATOM     17  H   UNL     1       2.631   9.327  22.455  0.00  0.00    +0.000 HD
ENDBRANCH   1  14
BRANCH   6  18
ATOM     18  N   UNL     1       0.634  10.685  19.486  0.00  0.00    +0.000 N 
ATOM     19  C   UNL     1      -0.649  10.996  19.063  0.00  0.00    +0.000 C 
ATOM     20  O   UNL     1      -1.450  10.235  18.536  0.00  0.00    +0.000 OA
ATOM     21  H   UNL     1       1.112  11.345  20.102  0.00  0.00    +0.000 HD
BRANCH  19  22
ATOM     22  C   UNL     1      -1.091  12.411  19.309  0.00  0.00    +0.000 C 
ATOM     23  C   UNL     1      -1.236  12.885  20.751  0.00  0.00    +0.000 C 
ATOM     24  C   UNL     1      -2.468  12.560  19.973  0.00  0.00    +0.000 C 
BRANCH  22  25
ATOM     25  C   UNL     1      -0.699  13.452  18.273  0.00  0.00    +0.000 C 
BRANCH  25  26
ATOM     26  C   UNL     1       0.511  14.293  18.625  0.00  0.00    +0.000 A 
ATOM     27  C   UNL     1       1.833  13.838  18.525  0.00  0.00    +0.000 A 
ATOM     28  C   UNL     1       2.911  14.693  18.784  0.00  0.00    +0.000 A 
ATOM     29  C   UNL     1       2.686  16.023  19.133  0.00  0.00    +0.000 A 
ATOM     30  C   UNL     1       1.381  16.496  19.230  0.00  0.00    +0.000 A 
ATOM     31  C   UNL     1       0.314  15.636  18.975  0.00  0.00    +0.000 A 
ATOM     32  F   UNL     1      -0.932  16.126  19.059  0.00  0.00    +0.000 F 
ENDBRANCH  25  26
ENDBRANCH  22  25
ENDBRANCH  19  22
ENDBRANCH   6  18
TORSDOF 6
ENDMDL
