MODEL 1
REMARK VINA RESULT:      -8.3      0.000      0.000
REMARK  Name = 
REMARK  4 active torsions:
REMARK  status: ('A' for Active; 'I' for Inactive)
REMARK    1  A    between atoms: C_1  and  C_2
REMARK    2  A    between atoms: C_4  and  N_5
REMARK    3  A    between atoms: C_6  and  C_8
REMARK    4  A    between atoms: C_20  and  C_21
REMARK                            x       y       z     vdW  Elec       q    Type
REMARK                         _______ _______ _______ _____ _____    ______ ____
ROOT
ATOM      1  N   UNL     1       8.834   9.130  19.256  0.00  0.00    +0.000 N 
ATOM      2  C   UNL     1       8.211   8.611  18.130  0.00  0.00    +0.000 C 
ATOM      3  O   UNL     1       8.064   9.191  17.058  0.00  0.00    +0.000 OA
ATOM      4  H   UNL     1       8.960   8.539  20.068  0.00  0.00    +0.000 HD
ENDROOT
BRANCH   2   5
ATOM      5  C   UNL     1       7.673   7.231  18.180  0.00  0.00    +0.000 A 
ATOM      6  C   UNL     1       8.130   6.239  19.063  0.00  0.00    +0.000 A 
ATOM      7  N   UNL     1       7.577   4.995  19.189  0.00  0.00    +0.000 NA
ATOM      8  C   UNL     1       6.516   4.791  18.399  0.00  0.00    +0.000 A 
ATOM      9  N   UNL     1       5.707   3.666  18.345  0.00  0.00    +0.000 N 
ATOM     10  C   UNL     1       4.676   3.888  17.423  0.00  0.00    +0.000 A 
ATOM     11  O   UNL     1       3.769   3.126  17.145  0.00  0.00    +0.000 OA
ATOM     12  N   UNL     1       4.879   5.166  16.889  0.00  0.00    +0.000 N 
ATOM     13  C   UNL     1       5.999   5.713  17.499  0.00  0.00    +0.000 A 
ATOM     14  C   UNL     1       6.568   6.948  17.360  0.00  0.00    +0.000 A 
ATOM     15  H   UNL     1       5.815   2.845  18.910  0.00  0.00    +0.000 HD
ATOM     16  H   UNL     1       4.269   5.601  16.215  0.00  0.00    +0.000 HD
ENDBRANCH   2   5
BRANCH   1  20
ATOM     17  C   UNL     1      11.168  12.990  17.171  0.00  0.00    +0.000 C 
ATOM     18  C   UNL     1      10.539  12.388  18.399  0.00  0.00    +0.000 A 
ATOM     19  C   UNL     1       9.984  11.100  18.282  0.00  0.00    +0.000 A 
ATOM     20  C   UNL     1       9.389  10.434  19.357  0.00  0.00    +0.000 A 
ATOM     21  C   UNL     1       9.345  11.089  20.588  0.00  0.00    +0.000 A 
ATOM     22  C   UNL     1       9.884  12.377  20.725  0.00  0.00    +0.000 A 
ATOM     23  C   UNL     1      10.488  13.047  19.639  0.00  0.00    +0.000 A 
BRANCH  23  24
ATOM     24  C   UNL     1      11.043  14.437  19.876  0.00  0.00    +0.000 C 
ATOM     25  F   UNL     1      12.331  14.626  19.479  0.00  0.00    +0.000 F 
ATOM     26  F   UNL     1      10.318  15.393  19.228  0.00  0.00    +0.000 F 
ATOM     27  F   UNL     1      11.013  14.783  21.194  0.00  0.00    +0.000 F 
ENDBRANCH  23  24
ENDBRANCH   1  20
TORSDOF 3
ENDMDL
MODEL 2
REMARK VINA RESULT:      -8.1      0.547      1.475
REMARK  Name = 
REMARK  4 active torsions:
REMARK  status: ('A' for Active; 'I' for Inactive)
REMARK    1  A    between atoms: C_1  and  C_2
REMARK    2  A    between atoms: C_4  and  N_5
REMARK    3  A    between atoms: C_6  and  C_8
REMARK    4  A    between atoms: C_20  and  C_21
REMARK                            x       y       z     vdW  Elec       q    Type
REMARK                         _______ _______ _______ _____ _____    ______ ____
ROOT
ATOM      1  N   UNL     1       8.907   9.032  19.057  0.00  0.00    +0.000 N 
ATOM      2  C   UNL     1       8.048   8.578  18.066  0.00  0.00    +0.000 C 
ATOM      3  O   UNL     1       7.664   9.224  17.096  0.00  0.00    +0.000 OA
ATOM      4  H   UNL     1       9.213   8.391  19.778  0.00  0.00    +0.000 HD
ENDROOT
BRANCH   2   5
ATOM      5  C   UNL     1       7.539   7.188  18.140  0.00  0.00    +0.000 A 
ATOM      6  C   UNL     1       8.062   6.201  18.992  0.00  0.00    +0.000 A 
ATOM      7  N   UNL     1       7.539   4.947  19.143  0.00  0.00    +0.000 NA
ATOM      8  C   UNL     1       6.440   4.727  18.413  0.00  0.00    +0.000 A 
ATOM      9  N   UNL     1       5.649   3.588  18.399  0.00  0.00    +0.000 N 
ATOM     10  C   UNL     1       4.565   3.794  17.537  0.00  0.00    +0.000 A 
ATOM     11  O   UNL     1       3.657   3.017  17.306  0.00  0.00    +0.000 OA
ATOM     12  N   UNL     1       4.715   5.077  16.998  0.00  0.00    +0.000 N 
ATOM     13  C   UNL     1       5.857   5.642  17.547  0.00  0.00    +0.000 A 
ATOM     14  C   UNL     1       6.396   6.887  17.382  0.00  0.00    +0.000 A 
ATOM     15  H   UNL     1       5.803   2.767  18.955  0.00  0.00    +0.000 HD
ATOM     16  H   UNL     1       4.061   5.503  16.360  0.00  0.00    +0.000 HD
ENDBRANCH   2   5
BRANCH   1  20
ATOM     17  C   UNL     1       9.818  13.210  21.590  0.00  0.00    +0.000 C 
ATOM     18  C   UNL     1       9.962  12.435  20.307  0.00  0.00    +0.000 A 
ATOM     19  C   UNL     1       9.410  11.141  20.262  0.00  0.00    +0.000 A 
ATOM     20  C   UNL     1       9.467  10.336  19.121  0.00  0.00    +0.000 A 
ATOM     21  C   UNL     1      10.106  10.848  17.991  0.00  0.00    +0.000 A 
ATOM     22  C   UNL     1      10.671  12.132  18.017  0.00  0.00    +0.000 A 
ATOM     23  C   UNL     1      10.610  12.945  19.169  0.00  0.00    +0.000 A 
BRANCH  23  24
ATOM     24  C   UNL     1      11.248  14.318  19.109  0.00  0.00    +0.000 C 
ATOM     25  F   UNL     1      11.809  14.649  17.914  0.00  0.00    +0.000 F 
ATOM     26  F   UNL     1      10.351  15.309  19.378  0.00  0.00    +0.000 F 
ATOM     27  F   UNL     1      12.242  14.462  20.031  0.00  0.00    +0.000 F 
ENDBRANCH  23  24
ENDBRANCH   1  20
TORSDOF 3
ENDMDL
MODEL 3
REMARK VINA RESULT:      -8.1      7.184      8.501
REMARK  Name = 
REMARK  4 active torsions:
REMARK  status: ('A' for Active; 'I' for Inactive)
REMARK    1  A    between atoms: C_1  and  C_2
REMARK    2  A    between atoms: C_4  and  N_5
REMARK    3  A    between atoms: C_6  and  C_8
REMARK    4  A    between atoms: C_20  and  C_21
REMARK                            x       y       z     vdW  Elec       q    Type
REMARK                         _______ _______ _______ _____ _____    ______ ____
ROOT
ATOM      1  N   UNL     1       1.969   7.908  19.893  0.00  0.00    +0.000 N 
ATOM      2  C   UNL     1       2.173   7.812  18.524  0.00  0.00    +0.000 C 
ATOM      3  O   UNL     1       1.675   8.540  17.670  0.00  0.00    +0.000 OA
ATOM      4  H   UNL     1       2.484   7.297  20.515  0.00  0.00    +0.000 HD
ENDROOT
BRANCH   2   5
ATOM      5  C   UNL     1       3.078   6.759  18.006  0.00  0.00    +0.000 A 
ATOM      6  C   UNL     1       2.769   5.389  17.998  0.00  0.00    +0.000 A 
ATOM      7  N   UNL     1       3.550   4.419  17.433  0.00  0.00    +0.000 NA
ATOM      8  C   UNL     1       4.658   4.888  16.847  0.00  0.00    +0.000 A 
ATOM      9  N   UNL     1       5.608   4.169  16.137  0.00  0.00    +0.000 N 
ATOM     10  C   UNL     1       6.575   5.052  15.643  0.00  0.00    +0.000 A 
ATOM     11  O   UNL     1       7.537   4.769  14.953  0.00  0.00    +0.000 OA
ATOM     12  N   UNL     1       6.217   6.332  16.082  0.00  0.00    +0.000 N 
ATOM     13  C   UNL     1       5.039   6.222  16.808  0.00  0.00    +0.000 A 
ATOM     14  C   UNL     1       4.267   7.187  17.393  0.00  0.00    +0.000 A 
ATOM     15  H   UNL     1       5.579   3.181  15.966  0.00  0.00    +0.000 HD
ATOM     16  H   UNL     1       6.724   7.172  15.852  0.00  0.00    +0.000 HD
ENDBRANCH   2   5
BRANCH   1  20
ATOM     17  C   UNL     1       0.035  12.481  20.117  0.00  0.00    +0.000 C 
ATOM     18  C   UNL     1       0.125  11.100  20.710  0.00  0.00    +0.000 A 
ATOM     19  C   UNL     1       0.954  10.165  20.063  0.00  0.00    +0.000 A 
ATOM     20  C   UNL     1       1.129   8.860  20.531  0.00  0.00    +0.000 A 
ATOM     21  C   UNL     1       0.441   8.482  21.685  0.00  0.00    +0.000 A 
ATOM     22  C   UNL     1      -0.397   9.396  22.341  0.00  0.00    +0.000 A 
ATOM     23  C   UNL     1      -0.570  10.714  21.869  0.00  0.00    +0.000 A 
BRANCH  23  24
ATOM     24  C   UNL     1      -1.496  11.634  22.640  0.00  0.00    +0.000 C 
ATOM     25  F   UNL     1      -0.898  12.709  23.223  0.00  0.00    +0.000 F 
ATOM     26  F   UNL     1      -2.478  12.150  21.847  0.00  0.00    +0.000 F 
ATOM     27  F   UNL     1      -2.141  10.984  23.649  0.00  0.00    +0.000 F 
ENDBRANCH  23  24
ENDBRANCH   1  20
TORSDOF 3
ENDMDL
MODEL 4
REMARK VINA RESULT:      -8.1      6.992      8.402
REMARK  Name = 
REMARK  4 active torsions:
REMARK  status: ('A' for Active; 'I' for Inactive)
REMARK    1  A    between atoms: C_1  and  C_2
REMARK    2  A    between atoms: C_4  and  N_5
REMARK    3  A    between atoms: C_6  and  C_8
REMARK    4  A    between atoms: C_20  and  C_21
REMARK                            x       y       z     vdW  Elec       q    Type
REMARK                         _______ _______ _______ _____ _____    ______ ____
ROOT
ATOM      1  N   UNL     1       2.299   7.826  19.025  0.00  0.00    +0.000 N 
ATOM      2  C   UNL     1       2.449   6.458  19.206  0.00  0.00    +0.000 C 
ATOM      3  O   UNL     1       1.883   5.779  20.057  0.00  0.00    +0.000 OA
ATOM      4  H   UNL     1       2.763   8.277  18.247  0.00  0.00    +0.000 HD
ENDROOT
BRANCH   2   5
ATOM      5  C   UNL     1       3.354   5.711  18.301  0.00  0.00    +0.000 A 
ATOM      6  C   UNL     1       3.127   4.394  17.870  0.00  0.00    +0.000 A 
ATOM      7  N   UNL     1       3.898   3.730  16.957  0.00  0.00    +0.000 NA
ATOM      8  C   UNL     1       4.910   4.459  16.470  0.00  0.00    +0.000 A 
ATOM      9  N   UNL     1       5.820   4.092  15.490  0.00  0.00    +0.000 N 
ATOM     10  C   UNL     1       6.677   5.169  15.236  0.00  0.00    +0.000 A 
ATOM     11  O   UNL     1       7.576   5.210  14.416  0.00  0.00    +0.000 OA
ATOM     12  N   UNL     1       6.294   6.204  16.097  0.00  0.00    +0.000 N 
ATOM     13  C   UNL     1       5.206   5.763  16.839  0.00  0.00    +0.000 A 
ATOM     14  C   UNL     1       4.446   6.417  17.768  0.00  0.00    +0.000 A 
ATOM     15  H   UNL     1       5.831   3.213  15.007  0.00  0.00    +0.000 HD
ATOM     16  H   UNL     1       6.724   7.115  16.115  0.00  0.00    +0.000 HD
ENDBRANCH   2   5
BRANCH   1  20
ATOM     17  C   UNL     1      -0.752  11.730  19.412  0.00  0.00    +0.000 C 
ATOM     18  C   UNL     1      -0.047  10.586  20.091  0.00  0.00    +0.000 A 
ATOM     19  C   UNL     1       0.759   9.752  19.294  0.00  0.00    +0.000 A 
ATOM     20  C   UNL     1       1.474   8.670  19.816  0.00  0.00    +0.000 A 
ATOM     21  C   UNL     1       1.368   8.416  21.184  0.00  0.00    +0.000 A 
ATOM     22  C   UNL     1       0.563   9.230  21.995  0.00  0.00    +0.000 A 
ATOM     23  C   UNL     1      -0.156  10.323  21.467  0.00  0.00    +0.000 A 
BRANCH  23  24
ATOM     24  C   UNL     1      -1.002  11.148  22.416  0.00  0.00    +0.000 C 
ATOM     25  F   UNL     1      -2.238  11.484  21.953  0.00  0.00    +0.000 F 
ATOM     26  F   UNL     1      -1.219  10.503  23.598  0.00  0.00    +0.000 F 
ATOM     27  F   UNL     1      -0.403  12.327  22.745  0.00  0.00    +0.000 F 
ENDBRANCH  23  24
ENDBRANCH   1  20
TORSDOF 3
ENDMDL
MODEL 5
REMARK VINA RESULT:      -8.0      6.949      8.478
REMARK  Name = 
REMARK  4 active torsions:
REMARK  status: ('A' for Active; 'I' for Inactive)
REMARK    1  A    between atoms: C_1  and  C_2
REMARK    2  A    between atoms: C_4  and  N_5
REMARK    3  A    between atoms: C_6  and  C_8
REMARK    4  A    between atoms: C_20  and  C_21
REMARK                            x       y       z     vdW  Elec       q    Type
REMARK                         _______ _______ _______ _____ _____    ______ ____
ROOT
ATOM      1  N   UNL     1       2.201   8.003  18.891  0.00  0.00    +0.000 N 
ATOM      2  C   UNL     1       2.426   6.665  19.182  0.00  0.00    +0.000 C 
ATOM      3  O   UNL     1       1.941   6.042  20.122  0.00  0.00    +0.000 OA
ATOM      4  H   UNL     1       2.599   8.401  18.050  0.00  0.00    +0.000 HD
ENDROOT
BRANCH   2   5
ATOM      5  C   UNL     1       3.315   5.879  18.294  0.00  0.00    +0.000 A 
ATOM      6  C   UNL     1       3.045   4.567  17.870  0.00  0.00    +0.000 A 
ATOM      7  N   UNL     1       3.804   3.869  16.973  0.00  0.00    +0.000 NA
ATOM      8  C   UNL     1       4.846   4.557  16.492  0.00  0.00    +0.000 A 
ATOM      9  N   UNL     1       5.754   4.150  15.526  0.00  0.00    +0.000 N 
ATOM     10  C   UNL     1       6.653   5.193  15.274  0.00  0.00    +0.000 A 
ATOM     11  O   UNL     1       7.562   5.195  14.466  0.00  0.00    +0.000 OA
ATOM     12  N   UNL     1       6.296   6.248  16.123  0.00  0.00    +0.000 N 
ATOM     13  C   UNL     1       5.185   5.853  16.855  0.00  0.00    +0.000 A 
ATOM     14  C   UNL     1       4.437   6.541  17.769  0.00  0.00    +0.000 A 
ATOM     15  H   UNL     1       5.739   3.266  15.051  0.00  0.00    +0.000 HD
ATOM     16  H   UNL     1       6.758   7.144  16.139  0.00  0.00    +0.000 HD
ENDBRANCH   2   5
BRANCH   1  20
ATOM     17  C   UNL     1       0.246   9.372  23.251  0.00  0.00    +0.000 C 
ATOM     18  C   UNL     1       0.376   9.624  21.772  0.00  0.00    +0.000 A 
ATOM     19  C   UNL     1       1.198   8.755  21.033  0.00  0.00    +0.000 A 
ATOM     20  C   UNL     1       1.381   8.879  19.652  0.00  0.00    +0.000 A 
ATOM     21  C   UNL     1       0.719   9.918  18.997  0.00  0.00    +0.000 A 
ATOM     22  C   UNL     1      -0.099  10.802  19.717  0.00  0.00    +0.000 A 
ATOM     23  C   UNL     1      -0.285  10.673  21.110  0.00  0.00    +0.000 A 
BRANCH  23  24
ATOM     24  C   UNL     1      -1.185  11.673  21.807  0.00  0.00    +0.000 C 
ATOM     25  F   UNL     1      -1.971  11.162  22.793  0.00  0.00    +0.000 F 
ATOM     26  F   UNL     1      -0.474  12.678  22.392  0.00  0.00    +0.000 F 
ATOM     27  F   UNL     1      -2.041  12.285  20.940  0.00  0.00    +0.000 F 
ENDBRANCH  23  24
ENDBRANCH   1  20
TORSDOF 3
ENDMDL
MODEL 6
REMARK VINA RESULT:      -7.9      7.534      8.692
REMARK  Name = 
REMARK  4 active torsions:
REMARK  status: ('A' for Active; 'I' for Inactive)
REMARK    1  A    between atoms: C_1  and  C_2
REMARK    2  A    between atoms: C_4  and  N_5
REMARK    3  A    between atoms: C_6  and  C_8
REMARK    4  A    between atoms: C_20  and  C_21
REMARK                            x       y       z     vdW  Elec       q    Type
REMARK                         _______ _______ _______ _____ _____    ______ ____
ROOT
ATOM      1  N   UNL     1       1.565   7.967  20.901  0.00  0.00    +0.000 N 
ATOM      2  C   UNL     1       1.974   7.771  19.590  0.00  0.00    +0.000 C 
ATOM      3  O   UNL     1       1.743   8.520  18.645  0.00  0.00    +0.000 OA
ATOM      4  H   UNL     1       1.870   7.319  21.617  0.00  0.00    +0.000 HD
ENDROOT
BRANCH   2   5
ATOM      5  C   UNL     1       2.777   6.570  19.261  0.00  0.00    +0.000 A 
ATOM      6  C   UNL     1       3.779   6.536  18.277  0.00  0.00    +0.000 A 
ATOM      7  N   UNL     1       4.594   5.466  18.034  0.00  0.00    +0.000 NA
ATOM      8  C   UNL     1       4.377   4.423  18.844  0.00  0.00    +0.000 A 
ATOM      9  N   UNL     1       5.078   3.228  18.890  0.00  0.00    +0.000 N 
ATOM     10  C   UNL     1       4.562   2.434  19.921  0.00  0.00    +0.000 A 
ATOM     11  O   UNL     1       4.957   1.334  20.263  0.00  0.00    +0.000 OA
ATOM     12  N   UNL     1       3.509   3.153  20.498  0.00  0.00    +0.000 N 
ATOM     13  C   UNL     1       3.411   4.371  19.840  0.00  0.00    +0.000 A 
ATOM     14  C   UNL     1       2.583   5.435  20.066  0.00  0.00    +0.000 A 
ATOM     15  H   UNL     1       5.861   2.991  18.308  0.00  0.00    +0.000 HD
ATOM     16  H   UNL     1       2.969   2.832  21.285  0.00  0.00    +0.000 HD
ENDBRANCH   2   5
BRANCH   1  20
ATOM     17  C   UNL     1       0.182  12.725  20.518  0.00  0.00    +0.000 C 
ATOM     18  C   UNL     1       0.050  11.409  21.237  0.00  0.00    +0.000 A 
ATOM     19  C   UNL     1       0.817  10.328  20.764  0.00  0.00    +0.000 A 
ATOM     20  C   UNL     1       0.790   9.065  21.362  0.00  0.00    +0.000 A 
ATOM     21  C   UNL     1      -0.041   8.883  22.468  0.00  0.00    +0.000 A 
ATOM     22  C   UNL     1      -0.821   9.945  22.951  0.00  0.00    +0.000 A 
ATOM     23  C   UNL     1      -0.790  11.220  22.348  0.00  0.00    +0.000 A 
BRANCH  23  24
ATOM     24  C   UNL     1      -1.666  12.309  22.934  0.00  0.00    +0.000 C 
ATOM     25  F   UNL     1      -1.009  13.270  23.639  0.00  0.00    +0.000 F 
ATOM     26  F   UNL     1      -2.363  12.977  21.971  0.00  0.00    +0.000 F 
ATOM     27  F   UNL     1      -2.604  11.809  23.788  0.00  0.00    +0.000 F 
ENDBRANCH  23  24
ENDBRANCH   1  20
TORSDOF 3
ENDMDL
MODEL 7
REMARK VINA RESULT:      -7.9      7.394      8.577
REMARK  Name = 
REMARK  4 active torsions:
REMARK  status: ('A' for Active; 'I' for Inactive)
REMARK    1  A    between atoms: C_1  and  C_2
REMARK    2  A    between atoms: C_4  and  N_5
REMARK    3  A    between atoms: C_6  and  C_8
REMARK    4  A    between atoms: C_20  and  C_21
REMARK                            x       y       z     vdW  Elec       q    Type
REMARK                         _______ _______ _______ _____ _____    ______ ____
ROOT
ATOM      1  N   UNL     1       1.760   7.988  20.667  0.00  0.00    +0.000 N 
ATOM      2  C   UNL     1       2.095   7.807  19.332  0.00  0.00    +0.000 C 
ATOM      3  O   UNL     1       1.737   8.519  18.399  0.00  0.00    +0.000 OA
ATOM      4  H   UNL     1       2.166   7.379  21.366  0.00  0.00    +0.000 HD
ENDROOT
BRANCH   2   5
ATOM      5  C   UNL     1       2.972   6.672  18.961  0.00  0.00    +0.000 A 
ATOM      6  C   UNL     1       3.093   5.491  19.711  0.00  0.00    +0.000 A 
ATOM      7  N   UNL     1       3.819   4.397  19.329  0.00  0.00    +0.000 NA
ATOM      8  C   UNL     1       4.409   4.528  18.135  0.00  0.00    +0.000 A 
ATOM      9  N   UNL     1       5.152   3.578  17.450  0.00  0.00    +0.000 N 
ATOM     10  C   UNL     1       5.539   4.105  16.212  0.00  0.00    +0.000 A 
ATOM     11  O   UNL     1       6.175   3.537  15.344  0.00  0.00    +0.000 OA
ATOM     12  N   UNL     1       5.040   5.412  16.154  0.00  0.00    +0.000 N 
ATOM     13  C   UNL     1       4.342   5.657  17.329  0.00  0.00    +0.000 A 
ATOM     14  C   UNL     1       3.633   6.756  17.724  0.00  0.00    +0.000 A 
ATOM     15  H   UNL     1       5.340   2.647  17.771  0.00  0.00    +0.000 HD
ATOM     16  H   UNL     1       5.146   6.024  15.361  0.00  0.00    +0.000 HD
ENDBRANCH   2   5
BRANCH   1  20
ATOM     17  C   UNL     1       0.036  12.641  20.393  0.00  0.00    +0.000 C 
ATOM     18  C   UNL     1       0.023  11.312  21.100  0.00  0.00    +0.000 A 
ATOM     19  C   UNL     1       0.845  10.292  20.587  0.00  0.00    +0.000 A 
ATOM     20  C   UNL     1       0.928   9.024  21.169  0.00  0.00    +0.000 A 
ATOM     21  C   UNL     1       0.153   8.773  22.302  0.00  0.00    +0.000 A 
ATOM     22  C   UNL     1      -0.681   9.773  22.826  0.00  0.00    +0.000 A 
ATOM     23  C   UNL     1      -0.761  11.054  22.239  0.00  0.00    +0.000 A 
BRANCH  23  24
ATOM     24  C   UNL     1      -1.688  12.073  22.870  0.00  0.00    +0.000 C 
ATOM     25  F   UNL     1      -2.572  11.573  23.777  0.00  0.00    +0.000 F 
ATOM     26  F   UNL     1      -1.002  13.048  23.529  0.00  0.00    +0.000 F 
ATOM     27  F   UNL     1      -2.447  12.720  21.940  0.00  0.00    +0.000 F 
ENDBRANCH  23  24
ENDBRANCH   1  20
TORSDOF 3
ENDMDL
MODEL 8
REMARK VINA RESULT:      -7.8      7.116      8.642
REMARK  Name = 
REMARK  4 active torsions:
REMARK  status: ('A' for Active; 'I' for Inactive)
REMARK    1  A    between atoms: C_1  and  C_2
REMARK    2  A    between atoms: C_4  and  N_5
REMARK    3  A    between atoms: C_6  and  C_8
REMARK    4  A    between atoms: C_20  and  C_21
REMARK                            x       y       z     vdW  Elec       q    Type
REMARK                         _______ _______ _______ _____ _____    ______ ____
ROOT
ATOM      1  N   UNL     1       2.122   8.453  18.458  0.00  0.00    +0.000 N 
ATOM      2  C   UNL     1       2.424   7.285  19.143  0.00  0.00    +0.000 C 
ATOM      3  O   UNL     1       1.817   6.843  20.114  0.00  0.00    +0.000 OA
ATOM      4  H   UNL     1       2.648   8.690  17.626  0.00  0.00    +0.000 HD
ENDROOT
BRANCH   2   5
ATOM      5  C   UNL     1       3.567   6.460  18.683  0.00  0.00    +0.000 A 
ATOM      6  C   UNL     1       3.951   5.246  19.275  0.00  0.00    +0.000 A 
ATOM      7  N   UNL     1       4.937   4.426  18.801  0.00  0.00    +0.000 NA
ATOM      8  C   UNL     1       5.515   4.869  17.678  0.00  0.00    +0.000 A 
ATOM      9  N   UNL     1       6.492   4.235  16.924  0.00  0.00    +0.000 N 
ATOM     10  C   UNL     1       6.778   5.015  15.797  0.00  0.00    +0.000 A 
ATOM     11  O   UNL     1       7.563   4.750  14.906  0.00  0.00    +0.000 OA
ATOM     12  N   UNL     1       5.974   6.158  15.881  0.00  0.00    +0.000 N 
ATOM     13  C   UNL     1       5.199   6.053  17.028  0.00  0.00    +0.000 A 
ATOM     14  C   UNL     1       4.227   6.881  17.517  0.00  0.00    +0.000 A 
ATOM     15  H   UNL     1       6.895   3.339  17.130  0.00  0.00    +0.000 HD
ATOM     16  H   UNL     1       5.951   6.887  15.185  0.00  0.00    +0.000 HD
ENDBRANCH   2   5
BRANCH   1  20
ATOM     17  C   UNL     1      -2.097  10.769  17.219  0.00  0.00    +0.000 C 
ATOM     18  C   UNL     1      -1.028  10.525  18.249  0.00  0.00    +0.000 A 
ATOM     19  C   UNL     1       0.008   9.634  17.916  0.00  0.00    +0.000 A 
ATOM     20  C   UNL     1       1.064   9.343  18.785  0.00  0.00    +0.000 A 
ATOM     21  C   UNL     1       1.072   9.966  20.034  0.00  0.00    +0.000 A 
ATOM     22  C   UNL     1       0.044  10.851  20.391  0.00  0.00    +0.000 A 
ATOM     23  C   UNL     1      -1.019  11.146  19.511  0.00  0.00    +0.000 A 
BRANCH  23  24
ATOM     24  C   UNL     1      -2.088  12.113  19.979  0.00  0.00    +0.000 C 
ATOM     25  F   UNL     1      -3.345  11.856  19.525  0.00  0.00    +0.000 F 
ATOM     26  F   UNL     1      -2.190  12.141  21.338  0.00  0.00    +0.000 F 
ATOM     27  F   UNL     1      -1.820  13.395  19.603  0.00  0.00    +0.000 F 
ENDBRANCH  23  24
ENDBRANCH   1  20
TORSDOF 3
ENDMDL
MODEL 9
REMARK VINA RESULT:      -7.8      1.079      1.639
REMARK  Name = 
REMARK  4 active torsions:
REMARK  status: ('A' for Active; 'I' for Inactive)
REMARK    1  A    between atoms: C_1  and  C_2
REMARK    2  A    between atoms: C_4  and  N_5
REMARK    3  A    between atoms: C_6  and  C_8
REMARK    4  A    between atoms: C_20  and  C_21
REMARK                            x       y       z     vdW  Elec       q    Type
REMARK                         _______ _______ _______ _____ _____    ______ ____
ROOT
ATOM      1  N   UNL     1       8.589   9.094  18.920  0.00  0.00    +0.000 N 
ATOM      2  C   UNL     1       8.148   8.274  17.892  0.00  0.00    +0.000 C 
ATOM      3  O   UNL     1       8.238   8.514  16.692  0.00  0.00    +0.000 OA
ATOM      4  H   UNL     1       8.526   8.767  19.876  0.00  0.00    +0.000 HD
ENDROOT
BRANCH   2   5
ATOM      5  C   UNL     1       7.518   6.976  18.230  0.00  0.00    +0.000 A 
ATOM      6  C   UNL     1       7.877   6.191  19.338  0.00  0.00    +0.000 A 
ATOM      7  N   UNL     1       7.237   5.044  19.719  0.00  0.00    +0.000 NA
ATOM      8  C   UNL     1       6.193   4.723  18.946  0.00  0.00    +0.000 A 
ATOM      9  N   UNL     1       5.312   3.665  19.111  0.00  0.00    +0.000 N 
ATOM     10  C   UNL     1       4.331   3.725  18.114  0.00  0.00    +0.000 A 
ATOM     11  O   UNL     1       3.385   2.973  17.974  0.00  0.00    +0.000 OA
ATOM     12  N   UNL     1       4.638   4.831  17.312  0.00  0.00    +0.000 N 
ATOM     13  C   UNL     1       5.770   5.440  17.835  0.00  0.00    +0.000 A 
ATOM     14  C   UNL     1       6.425   6.574  17.445  0.00  0.00    +0.000 A 
ATOM     15  H   UNL     1       5.346   2.992  19.855  0.00  0.00    +0.000 HD
ATOM     16  H   UNL     1       4.081   5.133  16.528  0.00  0.00    +0.000 HD
ENDBRANCH   2   5
BRANCH   1  20
ATOM     17  C   UNL     1      12.333  12.228  19.853  0.00  0.00    +0.000 C 
ATOM     18  C   UNL     1      11.021  11.972  19.159  0.00  0.00    +0.000 A 
ATOM     19  C   UNL     1      10.428  10.708  19.330  0.00  0.00    +0.000 A 
ATOM     20  C   UNL     1       9.204  10.363  18.749  0.00  0.00    +0.000 A 
ATOM     21  C   UNL     1       8.560  11.321  17.965  0.00  0.00    +0.000 A 
ATOM     22  C   UNL     1       9.138  12.585  17.774  0.00  0.00    +0.000 A 
ATOM     23  C   UNL     1      10.372  12.933  18.364  0.00  0.00    +0.000 A 
BRANCH  23  24
ATOM     24  C   UNL     1      10.923  14.320  18.103  0.00  0.00    +0.000 C 
ATOM     25  F   UNL     1      10.139  15.124  17.334  0.00  0.00    +0.000 F 
ATOM     26  F   UNL     1      11.131  15.012  19.259  0.00  0.00    +0.000 F 
ATOM     27  F   UNL     1      12.132  14.282  17.474  0.00  0.00    +0.000 F 
ENDBRANCH  23  24
ENDBRANCH   1  20
TORSDOF 3
ENDMDL
