MODEL 1
REMARK VINA RESULT:      -8.8      0.000      0.000
REMARK  Name = 
REMARK  9 active torsions:
REMARK  status: ('A' for Active; 'I' for Inactive)
REMARK    1  A    between atoms: C_1  and  N_2
REMARK    2  A    between atoms: C_6  and  O_7
REMARK    3  A    between atoms: O_7  and  C_8
REMARK    4  A    between atoms: C_8  and  C_9
REMARK    5  A    between atoms: C_13  and  N_14
REMARK    6  A    between atoms: C_19  and  C_20
REMARK    7  A    between atoms: C_20  and  C_21
REMARK    8  A    between atoms: C_21  and  O_22
REMARK    9  A    between atoms: C_24  and  C_25
REMARK                            x       y       z     vdW  Elec       q    Type
REMARK                         _______ _______ _______ _____ _____    ______ ____
ROOT
ATOM      1  N   UNL     1       4.067   4.497  18.966  0.00  0.00    +0.000 N 
ATOM      2  C   UNL     1       5.398   5.124  19.154  0.00  0.00    +0.000 C 
ATOM      3  C   UNL     1       5.981   5.048  17.776  0.00  0.00    +0.000 A 
ATOM      4  C   UNL     1       5.388   3.960  17.131  0.00  0.00    +0.000 A 
ATOM      5  C   UNL     1       5.614   3.654  15.801  0.00  0.00    +0.000 A 
ATOM      6  C   UNL     1       6.476   4.489  15.082  0.00  0.00    +0.000 A 
ATOM      7  C   UNL     1       7.051   5.617  15.721  0.00  0.00    +0.000 A 
ATOM      8  C   UNL     1       6.812   5.919  17.081  0.00  0.00    +0.000 A 
ATOM      9  C   UNL     1       4.254   3.504  17.969  0.00  0.00    +0.000 C 
ATOM     10  O   UNL     1       3.534   2.563  17.687  0.00  0.00    +0.000 OA
ENDROOT
BRANCH   1  15
ATOM     11  C   UNL     1       2.092   7.436  19.768  0.00  0.00    +0.000 A 
ATOM     12  C   UNL     1       2.479   8.229  18.680  0.00  0.00    +0.000 A 
ATOM     13  C   UNL     1       2.973   7.639  17.518  0.00  0.00    +0.000 A 
ATOM     14  C   UNL     1       3.206   6.269  17.482  0.00  0.00    +0.000 A 
ATOM     15  C   UNL     1       3.074   5.520  18.660  0.00  0.00    +0.000 A 
ATOM     16  C   UNL     1       2.359   6.062  19.735  0.00  0.00    +0.000 A 
BRANCH  11  17
ATOM     17  C   UNL     1       1.465   8.059  20.987  0.00  0.00    +0.000 C 
BRANCH  17  18
ATOM     18  O   UNL     1       1.225   9.457  20.781  0.00  0.00    +0.000 OA
BRANCH  18  24
ATOM     19  C   UNL     1      -1.043  11.369  20.247  0.00  0.00    +0.000 C 
ATOM     20  N   UNL     1      -0.588  10.838  21.501  0.00  0.00    +0.000 N 
ATOM     21  C   UNL     1      -1.125  11.105  22.725  0.00  0.00    +0.000 A 
ATOM     22  N   UNL     1      -0.462  10.449  23.648  0.00  0.00    +0.000 NA
ATOM     23  N   UNL     1       0.527   9.734  23.019  0.00  0.00    +0.000 NA
ATOM     24  C   UNL     1       0.439   9.973  21.727  0.00  0.00    +0.000 A 
ENDBRANCH  18  24
ENDBRANCH  17  18
ENDBRANCH  11  17
ENDBRANCH   1  15
BRANCH   8  25
ATOM     25  C   UNL     1       7.378   7.189  17.665  0.00  0.00    +0.000 C 
ATOM     26  F   UNL     1       8.072   7.016  18.824  0.00  0.00    +0.000 F 
ATOM     27  F   UNL     1       8.241   7.806  16.813  0.00  0.00    +0.000 F 
ATOM     28  F   UNL     1       6.414   8.108  17.947  0.00  0.00    +0.000 F 
ENDBRANCH   8  25
BRANCH   6  29
ATOM     29  C   UNL     1       6.759   4.229  13.618  0.00  0.00    +0.000 C 
BRANCH  29  30
ATOM     30  C   UNL     1       5.656   3.457  12.892  0.00  0.00    +0.000 C 
BRANCH  30  31
ATOM     31  O   UNL     1       6.196   2.455  12.036  0.00  0.00    +0.000 OA
ATOM     32  H   UNL     1       5.523   1.757  11.957  0.00  0.00    +0.000 HD
ENDBRANCH  30  31
ENDBRANCH  29  30
ENDBRANCH   6  29
TORSDOF 8
ENDMDL
MODEL 2
REMARK VINA RESULT:      -8.7      4.427      6.873
REMARK  Name = 
REMARK  9 active torsions:
REMARK  status: ('A' for Active; 'I' for Inactive)
REMARK    1  A    between atoms: C_1  and  N_2
REMARK    2  A    between atoms: C_6  and  O_7
REMARK    3  A    between atoms: O_7  and  C_8
REMARK    4  A    between atoms: C_8  and  C_9
REMARK    5  A    between atoms: C_13  and  N_14
REMARK    6  A    between atoms: C_19  and  C_20
REMARK    7  A    between atoms: C_20  and  C_21
REMARK    8  A    between atoms: C_21  and  O_22
REMARK    9  A    between atoms: C_24  and  C_25
REMARK                            x       y       z     vdW  Elec       q    Type
REMARK                         _______ _______ _______ _____ _____    ______ ____
ROOT
ATOM      1  N   UNL     1       6.091   5.339  15.617  0.00  0.00    +0.000 N 
ATOM      2  C   UNL     1       4.927   6.233  15.835  0.00  0.00    +0.000 C 
ATOM      3  C   UNL     1       4.127   5.469  16.845  0.00  0.00    +0.000 A 
ATOM      4  C   UNL     1       4.425   4.115  16.676  0.00  0.00    +0.000 A 
ATOM      5  C   UNL     1       3.942   3.124  17.512  0.00  0.00    +0.000 A 
ATOM      6  C   UNL     1       3.125   3.518  18.578  0.00  0.00    +0.000 A 
ATOM      7  C   UNL     1       2.850   4.895  18.776  0.00  0.00    +0.000 A 
ATOM      8  C   UNL     1       3.349   5.897  17.914  0.00  0.00    +0.000 A 
ATOM      9  C   UNL     1       5.589   4.020  15.763  0.00  0.00    +0.000 C 
ATOM     10  O   UNL     1       6.092   2.970  15.408  0.00  0.00    +0.000 OA
ENDROOT
BRANCH   1  15
ATOM     11  C   UNL     1       7.817   7.631  17.842  0.00  0.00    +0.000 A 
ATOM     12  C   UNL     1       7.856   6.806  18.974  0.00  0.00    +0.000 A 
ATOM     13  C   UNL     1       7.754   5.422  18.841  0.00  0.00    +0.000 A 
ATOM     14  C   UNL     1       7.483   4.864  17.598  0.00  0.00    +0.000 A 
ATOM     15  C   UNL     1       7.176   5.707  16.520  0.00  0.00    +0.000 A 
ATOM     16  C   UNL     1       7.513   7.064  16.599  0.00  0.00    +0.000 A 
BRANCH  11  17
ATOM     17  C   UNL     1       8.027   9.117  17.968  0.00  0.00    +0.000 C 
BRANCH  17  18
ATOM     18  O   UNL     1       8.938   9.416  19.034  0.00  0.00    +0.000 OA
BRANCH  18  24
ATOM     19  C   UNL     1       9.089  11.393  21.304  0.00  0.00    +0.000 C 
ATOM     20  N   UNL     1       9.518  11.549  19.943  0.00  0.00    +0.000 N 
ATOM     21  C   UNL     1      10.104  12.659  19.411  0.00  0.00    +0.000 A 
ATOM     22  N   UNL     1      10.365  12.452  18.141  0.00  0.00    +0.000 NA
ATOM     23  N   UNL     1       9.948  11.180  17.835  0.00  0.00    +0.000 NA
ATOM     24  C   UNL     1       9.444  10.646  18.928  0.00  0.00    +0.000 A 
ENDBRANCH  18  24
ENDBRANCH  17  18
ENDBRANCH  11  17
ENDBRANCH   1  15
BRANCH   8  25
ATOM     25  C   UNL     1       3.097   7.347  18.245  0.00  0.00    +0.000 C 
ATOM     26  F   UNL     1       2.084   7.919  17.538  0.00  0.00    +0.000 F 
ATOM     27  F   UNL     1       2.773   7.526  19.554  0.00  0.00    +0.000 F 
ATOM     28  F   UNL     1       4.189   8.129  18.023  0.00  0.00    +0.000 F 
ENDBRANCH   8  25
BRANCH   6  29
ATOM     29  C   UNL     1       2.573   2.494  19.545  0.00  0.00    +0.000 C 
BRANCH  29  30
ATOM     30  C   UNL     1       2.118   3.075  20.885  0.00  0.00    +0.000 C 
BRANCH  30  31
ATOM     31  O   UNL     1       2.808   2.474  21.976  0.00  0.00    +0.000 OA
ATOM     32  H   UNL     1       3.320   3.179  22.410  0.00  0.00    +0.000 HD
ENDBRANCH  30  31
ENDBRANCH  29  30
ENDBRANCH   6  29
TORSDOF 8
ENDMDL
MODEL 3
REMARK VINA RESULT:      -8.4      0.777      1.062
REMARK  Name = 
REMARK  9 active torsions:
REMARK  status: ('A' for Active; 'I' for Inactive)
REMARK    1  A    between atoms: C_1  and  N_2
REMARK    2  A    between atoms: C_6  and  O_7
REMARK    3  A    between atoms: O_7  and  C_8
REMARK    4  A    between atoms: C_8  and  C_9
REMARK    5  A    between atoms: C_13  and  N_14
REMARK    6  A    between atoms: C_19  and  C_20
REMARK    7  A    between atoms: C_20  and  C_21
REMARK    8  A    between atoms: C_21  and  O_22
REMARK    9  A    between atoms: C_24  and  C_25
REMARK                            x       y       z     vdW  Elec       q    Type
REMARK                         _______ _______ _______ _____ _____    ______ ____
ROOT
ATOM      1  N   UNL     1       3.724   4.378  19.339  0.00  0.00    +0.000 N 
ATOM      2  C   UNL     1       5.085   4.966  19.394  0.00  0.00    +0.000 C 
ATOM      3  C   UNL     1       5.545   4.830  17.975  0.00  0.00    +0.000 A 
ATOM      4  C   UNL     1       4.866   3.745  17.418  0.00  0.00    +0.000 A 
ATOM      5  C   UNL     1       4.968   3.392  16.084  0.00  0.00    +0.000 A 
ATOM      6  C   UNL     1       5.790   4.177  15.268  0.00  0.00    +0.000 A 
ATOM      7  C   UNL     1       6.452   5.303  15.820  0.00  0.00    +0.000 A 
ATOM      8  C   UNL     1       6.340   5.652  17.185  0.00  0.00    +0.000 A 
ATOM      9  C   UNL     1       3.794   3.351  18.363  0.00  0.00    +0.000 C 
ATOM     10  O   UNL     1       3.024   2.427  18.172  0.00  0.00    +0.000 OA
ENDROOT
BRANCH   1  15
ATOM     11  C   UNL     1       2.013   7.477  20.144  0.00  0.00    +0.000 A 
ATOM     12  C   UNL     1       2.269   8.154  18.944  0.00  0.00    +0.000 A 
ATOM     13  C   UNL     1       2.561   7.443  17.782  0.00  0.00    +0.000 A 
ATOM     14  C   UNL     1       2.729   6.064  17.838  0.00  0.00    +0.000 A 
ATOM     15  C   UNL     1       2.741   5.425  19.087  0.00  0.00    +0.000 A 
ATOM     16  C   UNL     1       2.214   6.094  20.199  0.00  0.00    +0.000 A 
BRANCH  11  17
ATOM     17  C   UNL     1       1.598   8.234  21.378  0.00  0.00    +0.000 C 
BRANCH  17  18
ATOM     18  O   UNL     1       0.176   8.413  21.415  0.00  0.00    +0.000 OA
BRANCH  18  24
ATOM     19  C   UNL     1      -0.843  10.649  19.670  0.00  0.00    +0.000 C 
ATOM     20  N   UNL     1      -0.625  10.641  21.090  0.00  0.00    +0.000 N 
ATOM     21  C   UNL     1      -0.857  11.680  21.941  0.00  0.00    +0.000 A 
ATOM     22  N   UNL     1      -0.548  11.321  23.165  0.00  0.00    +0.000 NA
ATOM     23  N   UNL     1      -0.110  10.021  23.119  0.00  0.00    +0.000 NA
ATOM     24  C   UNL     1      -0.164   9.621  21.865  0.00  0.00    +0.000 A 
ENDBRANCH  18  24
ENDBRANCH  17  18
ENDBRANCH  11  17
ENDBRANCH   1  15
BRANCH   8  25
ATOM     25  C   UNL     1       6.993   6.918  17.678  0.00  0.00    +0.000 C 
ATOM     26  F   UNL     1       7.939   7.428  16.841  0.00  0.00    +0.000 F 
ATOM     27  F   UNL     1       6.094   7.922  17.864  0.00  0.00    +0.000 F 
ATOM     28  F   UNL     1       7.616   6.751  18.878  0.00  0.00    +0.000 F 
ENDBRANCH   8  25
BRANCH   6  29
ATOM     29  C   UNL     1       5.939   3.865  13.795  0.00  0.00    +0.000 C 
BRANCH  29  30
ATOM     30  C   UNL     1       7.090   4.602  13.109  0.00  0.00    +0.000 C 
BRANCH  30  31
ATOM     31  O   UNL     1       7.277   4.150  11.771  0.00  0.00    +0.000 OA
ATOM     32  H   UNL     1       8.208   4.319  11.543  0.00  0.00    +0.000 HD
ENDBRANCH  30  31
ENDBRANCH  29  30
ENDBRANCH   6  29
TORSDOF 8
ENDMDL
MODEL 4
REMARK VINA RESULT:      -8.3      0.693      1.328
REMARK  Name = 
REMARK  9 active torsions:
REMARK  status: ('A' for Active; 'I' for Inactive)
REMARK    1  A    between atoms: C_1  and  N_2
REMARK    2  A    between atoms: C_6  and  O_7
REMARK    3  A    between atoms: O_7  and  C_8
REMARK    4  A    between atoms: C_8  and  C_9
REMARK    5  A    between atoms: C_13  and  N_14
REMARK    6  A    between atoms: C_19  and  C_20
REMARK    7  A    between atoms: C_20  and  C_21
REMARK    8  A    between atoms: C_21  and  O_22
REMARK    9  A    between atoms: C_24  and  C_25
REMARK                            x       y       z     vdW  Elec       q    Type
REMARK                         _______ _______ _______ _____ _____    ______ ____
ROOT
ATOM      1  N   UNL     1       3.995   4.596  18.999  0.00  0.00    +0.000 N 
ATOM      2  C   UNL     1       5.336   5.205  19.174  0.00  0.00    +0.000 C 
ATOM      3  C   UNL     1       5.910   5.108  17.794  0.00  0.00    +0.000 A 
ATOM      4  C   UNL     1       5.298   4.023  17.162  0.00  0.00    +0.000 A 
ATOM      5  C   UNL     1       5.512   3.701  15.834  0.00  0.00    +0.000 A 
ATOM      6  C   UNL     1       6.382   4.517  15.103  0.00  0.00    +0.000 A 
ATOM      7  C   UNL     1       6.977   5.642  15.729  0.00  0.00    +0.000 A 
ATOM      8  C   UNL     1       6.750   5.959  17.087  0.00  0.00    +0.000 A 
ATOM      9  C   UNL     1       4.161   3.592  18.011  0.00  0.00    +0.000 C 
ATOM     10  O   UNL     1       3.426   2.659  17.740  0.00  0.00    +0.000 OA
ENDROOT
BRANCH   1  15
ATOM     11  C   UNL     1       2.094   7.591  19.771  0.00  0.00    +0.000 A 
ATOM     12  C   UNL     1       2.473   8.351  18.658  0.00  0.00    +0.000 A 
ATOM     13  C   UNL     1       2.932   7.725  17.500  0.00  0.00    +0.000 A 
ATOM     14  C   UNL     1       3.138   6.351  17.491  0.00  0.00    +0.000 A 
ATOM     15  C   UNL     1       3.016   5.632  18.690  0.00  0.00    +0.000 A 
ATOM     16  C   UNL     1       2.333   6.212  19.766  0.00  0.00    +0.000 A 
BRANCH  11  17
ATOM     17  C   UNL     1       1.504   8.254  20.989  0.00  0.00    +0.000 C 
BRANCH  17  18
ATOM     18  O   UNL     1       0.220   8.817  20.692  0.00  0.00    +0.000 OA
BRANCH  18  24
ATOM     19  C   UNL     1      -0.865  10.201  23.140  0.00  0.00    +0.000 C 
ATOM     20  N   UNL     1      -0.284  10.779  21.961  0.00  0.00    +0.000 N 
ATOM     21  C   UNL     1      -0.101  12.110  21.729  0.00  0.00    +0.000 A 
ATOM     22  N   UNL     1       0.457  12.277  20.553  0.00  0.00    +0.000 NA
ATOM     23  N   UNL     1       0.650  11.034  20.004  0.00  0.00    +0.000 NA
ATOM     24  C   UNL     1       0.203  10.140  20.862  0.00  0.00    +0.000 A 
ENDBRANCH  18  24
ENDBRANCH  17  18
ENDBRANCH  11  17
ENDBRANCH   1  15
BRANCH   8  25
ATOM     25  C   UNL     1       7.339   7.226  17.656  0.00  0.00    +0.000 C 
ATOM     26  F   UNL     1       6.426   8.201  17.924  0.00  0.00    +0.000 F 
ATOM     27  F   UNL     1       7.993   7.008  18.828  0.00  0.00    +0.000 F 
ATOM     28  F   UNL     1       8.252   7.797  16.822  0.00  0.00    +0.000 F 
ENDBRANCH   8  25
BRANCH   6  29
ATOM     29  C   UNL     1       6.653   4.239  13.640  0.00  0.00    +0.000 C 
BRANCH  29  30
ATOM     30  C   UNL     1       5.538   3.473  12.928  0.00  0.00    +0.000 C 
BRANCH  30  31
ATOM     31  O   UNL     1       6.058   2.423  12.119  0.00  0.00    +0.000 OA
ATOM     32  H   UNL     1       6.943   2.212  12.465  0.00  0.00    +0.000 HD
ENDBRANCH  30  31
ENDBRANCH  29  30
ENDBRANCH   6  29
TORSDOF 8
ENDMDL
MODEL 5
REMARK VINA RESULT:      -8.3      4.224      6.739
REMARK  Name = 
REMARK  9 active torsions:
REMARK  status: ('A' for Active; 'I' for Inactive)
REMARK    1  A    between atoms: C_1  and  N_2
REMARK    2  A    between atoms: C_6  and  O_7
REMARK    3  A    between atoms: O_7  and  C_8
REMARK    4  A    between atoms: C_8  and  C_9
REMARK    5  A    between atoms: C_13  and  N_14
REMARK    6  A    between atoms: C_19  and  C_20
REMARK    7  A    between atoms: C_20  and  C_21
REMARK    8  A    between atoms: C_21  and  O_22
REMARK    9  A    between atoms: C_24  and  C_25
REMARK                            x       y       z     vdW  Elec       q    Type
REMARK                         _______ _______ _______ _____ _____    ______ ____
ROOT
ATOM      1  N   UNL     1       6.075   5.432  15.666  0.00  0.00    +0.000 N 
ATOM      2  C   UNL     1       4.911   6.306  15.953  0.00  0.00    +0.000 C 
ATOM      3  C   UNL     1       4.118   5.472  16.912  0.00  0.00    +0.000 A 
ATOM      4  C   UNL     1       4.416   4.134  16.646  0.00  0.00    +0.000 A 
ATOM      5  C   UNL     1       3.939   3.086  17.413  0.00  0.00    +0.000 A 
ATOM      6  C   UNL     1       3.128   3.402  18.509  0.00  0.00    +0.000 A 
ATOM      7  C   UNL     1       2.853   4.761  18.805  0.00  0.00    +0.000 A 
ATOM      8  C   UNL     1       3.345   5.823  18.012  0.00  0.00    +0.000 A 
ATOM      9  C   UNL     1       5.575   4.105  15.722  0.00  0.00    +0.000 C 
ATOM     10  O   UNL     1       6.076   3.083  15.291  0.00  0.00    +0.000 OA
ENDROOT
BRANCH   1  15
ATOM     11  C   UNL     1       7.858   7.598  17.970  0.00  0.00    +0.000 A 
ATOM     12  C   UNL     1       7.862   6.738  19.077  0.00  0.00    +0.000 A 
ATOM     13  C   UNL     1       7.717   5.364  18.902  0.00  0.00    +0.000 A 
ATOM     14  C   UNL     1       7.436   4.852  17.640  0.00  0.00    +0.000 A 
ATOM     15  C   UNL     1       7.164   5.737  16.586  0.00  0.00    +0.000 A 
ATOM     16  C   UNL     1       7.544   7.079  16.709  0.00  0.00    +0.000 A 
BRANCH  11  17
ATOM     17  C   UNL     1       8.114   9.072  18.143  0.00  0.00    +0.000 C 
BRANCH  17  18
ATOM     18  O   UNL     1       9.324   9.298  18.878  0.00  0.00    +0.000 OA
BRANCH  18  24
ATOM     19  C   UNL     1      10.525  11.748  17.597  0.00  0.00    +0.000 C 
ATOM     20  N   UNL     1       9.886  11.622  18.877  0.00  0.00    +0.000 N 
ATOM     21  C   UNL     1       9.690  12.626  19.777  0.00  0.00    +0.000 A 
ATOM     22  N   UNL     1       9.074  12.154  20.835  0.00  0.00    +0.000 NA
ATOM     23  N   UNL     1       8.857  10.814  20.625  0.00  0.00    +0.000 NA
ATOM     24  C   UNL     1       9.347  10.506  19.442  0.00  0.00    +0.000 A 
ENDBRANCH  18  24
ENDBRANCH  17  18
ENDBRANCH  11  17
ENDBRANCH   1  15
BRANCH   8  25
ATOM     25  C   UNL     1       3.094   7.245  18.447  0.00  0.00    +0.000 C 
ATOM     26  F   UNL     1       2.006   7.827  17.869  0.00  0.00    +0.000 F 
ATOM     27  F   UNL     1       2.890   7.345  19.788  0.00  0.00    +0.000 F 
ATOM     28  F   UNL     1       4.143   8.068  18.168  0.00  0.00    +0.000 F 
ENDBRANCH   8  25
BRANCH   6  29
ATOM     29  C   UNL     1       2.582   2.312  19.405  0.00  0.00    +0.000 C 
BRANCH  29  30
ATOM     30  C   UNL     1       1.959   2.820  20.706  0.00  0.00    +0.000 C 
BRANCH  30  31
ATOM     31  O   UNL     1       2.805   2.570  21.824  0.00  0.00    +0.000 OA
ATOM     32  H   UNL     1       3.525   3.224  21.785  0.00  0.00    +0.000 HD
ENDBRANCH  30  31
ENDBRANCH  29  30
ENDBRANCH   6  29
TORSDOF 8
ENDMDL
MODEL 6
REMARK VINA RESULT:      -7.9      4.484      6.915
REMARK  Name = 
REMARK  9 active torsions:
REMARK  status: ('A' for Active; 'I' for Inactive)
REMARK    1  A    between atoms: C_1  and  N_2
REMARK    2  A    between atoms: C_6  and  O_7
REMARK    3  A    between atoms: O_7  and  C_8
REMARK    4  A    between atoms: C_8  and  C_9
REMARK    5  A    between atoms: C_13  and  N_14
REMARK    6  A    between atoms: C_19  and  C_20
REMARK    7  A    between atoms: C_20  and  C_21
REMARK    8  A    between atoms: C_21  and  O_22
REMARK    9  A    between atoms: C_24  and  C_25
REMARK                            x       y       z     vdW  Elec       q    Type
REMARK                         _______ _______ _______ _____ _____    ______ ____
ROOT
ATOM      1  N   UNL     1       6.126   5.502  15.594  0.00  0.00    +0.000 N 
ATOM      2  C   UNL     1       4.907   6.313  15.838  0.00  0.00    +0.000 C 
ATOM      3  C   UNL     1       4.184   5.496  16.865  0.00  0.00    +0.000 A 
ATOM      4  C   UNL     1       4.571   4.166  16.688  0.00  0.00    +0.000 A 
ATOM      5  C   UNL     1       4.177   3.144  17.533  0.00  0.00    +0.000 A 
ATOM      6  C   UNL     1       3.357   3.481  18.617  0.00  0.00    +0.000 A 
ATOM      7  C   UNL     1       2.992   4.835  18.822  0.00  0.00    +0.000 A 
ATOM      8  C   UNL     1       3.401   5.870  17.950  0.00  0.00    +0.000 A 
ATOM      9  C   UNL     1       5.719   4.152  15.751  0.00  0.00    +0.000 C 
ATOM     10  O   UNL     1       6.286   3.138  15.383  0.00  0.00    +0.000 OA
ENDROOT
BRANCH   1  15
ATOM     11  C   UNL     1       7.723   7.897  17.807  0.00  0.00    +0.000 A 
ATOM     12  C   UNL     1       7.857   7.064  18.925  0.00  0.00    +0.000 A 
ATOM     13  C   UNL     1       7.863   5.679  18.776  0.00  0.00    +0.000 A 
ATOM     14  C   UNL     1       7.603   5.115  17.532  0.00  0.00    +0.000 A 
ATOM     15  C   UNL     1       7.201   5.945  16.474  0.00  0.00    +0.000 A 
ATOM     16  C   UNL     1       7.431   7.323  16.564  0.00  0.00    +0.000 A 
BRANCH  11  17
ATOM     17  C   UNL     1       7.816   9.394  17.949  0.00  0.00    +0.000 C 
BRANCH  17  18
ATOM     18  O   UNL     1       9.135   9.788  18.347  0.00  0.00    +0.000 OA
BRANCH  18  24
ATOM     19  C   UNL     1      11.741  11.190  18.921  0.00  0.00    +0.000 C 
ATOM     20  N   UNL     1      10.517  11.738  18.409  0.00  0.00    +0.000 N 
ATOM     21  C   UNL     1      10.305  13.040  18.066  0.00  0.00    +0.000 A 
ATOM     22  N   UNL     1       9.074  13.185  17.634  0.00  0.00    +0.000 NA
ATOM     23  N   UNL     1       8.467  11.954  17.689  0.00  0.00    +0.000 NA
ATOM     24  C   UNL     1       9.347  11.091  18.153  0.00  0.00    +0.000 A 
ENDBRANCH  18  24
ENDBRANCH  17  18
ENDBRANCH  11  17
ENDBRANCH   1  15
BRANCH   8  25
ATOM     25  C   UNL     1       3.057   7.298  18.289  0.00  0.00    +0.000 C 
ATOM     26  F   UNL     1       4.040   8.197  18.008  0.00  0.00    +0.000 F 
ATOM     27  F   UNL     1       1.960   7.737  17.614  0.00  0.00    +0.000 F 
ATOM     28  F   UNL     1       2.772   7.467  19.610  0.00  0.00    +0.000 F 
ENDBRANCH   8  25
BRANCH   6  29
ATOM     29  C   UNL     1       2.898   2.421  19.595  0.00  0.00    +0.000 C 
BRANCH  29  30
ATOM     30  C   UNL     1       3.857   2.187  20.763  0.00  0.00    +0.000 C 
BRANCH  30  31
ATOM     31  O   UNL     1       5.114   1.688  20.316  0.00  0.00    +0.000 OA
ATOM     32  H   UNL     1       5.246   0.826  20.748  0.00  0.00    +0.000 HD
ENDBRANCH  30  31
ENDBRANCH  29  30
ENDBRANCH   6  29
TORSDOF 8
ENDMDL
MODEL 7
REMARK VINA RESULT:      -7.9      1.084      1.462
REMARK  Name = 
REMARK  9 active torsions:
REMARK  status: ('A' for Active; 'I' for Inactive)
REMARK    1  A    between atoms: C_1  and  N_2
REMARK    2  A    between atoms: C_6  and  O_7
REMARK    3  A    between atoms: O_7  and  C_8
REMARK    4  A    between atoms: C_8  and  C_9
REMARK    5  A    between atoms: C_13  and  N_14
REMARK    6  A    between atoms: C_19  and  C_20
REMARK    7  A    between atoms: C_20  and  C_21
REMARK    8  A    between atoms: C_21  and  O_22
REMARK    9  A    between atoms: C_24  and  C_25
REMARK                            x       y       z     vdW  Elec       q    Type
REMARK                         _______ _______ _______ _____ _____    ______ ____
ROOT
ATOM      1  N   UNL     1       3.108   4.035  18.701  0.00  0.00    +0.000 N 
ATOM      2  C   UNL     1       4.481   4.184  19.241  0.00  0.00    +0.000 C 
ATOM      3  C   UNL     1       5.305   4.267  17.993  0.00  0.00    +0.000 A 
ATOM      4  C   UNL     1       4.614   3.582  16.991  0.00  0.00    +0.000 A 
ATOM      5  C   UNL     1       5.034   3.543  15.674  0.00  0.00    +0.000 A 
ATOM      6  C   UNL     1       6.205   4.235  15.347  0.00  0.00    +0.000 A 
ATOM      7  C   UNL     1       6.890   4.963  16.353  0.00  0.00    +0.000 A 
ATOM      8  C   UNL     1       6.451   4.994  17.696  0.00  0.00    +0.000 A 
ATOM      9  C   UNL     1       3.252   3.294  17.500  0.00  0.00    +0.000 C 
ATOM     10  O   UNL     1       2.400   2.698  16.866  0.00  0.00    +0.000 OA
ENDROOT
BRANCH   1  15
ATOM     11  C   UNL     1       2.055   7.271  19.968  0.00  0.00    +0.000 A 
ATOM     12  C   UNL     1       2.720   8.070  19.029  0.00  0.00    +0.000 A 
ATOM     13  C   UNL     1       3.081   7.548  17.788  0.00  0.00    +0.000 A 
ATOM     14  C   UNL     1       2.898   6.195  17.527  0.00  0.00    +0.000 A 
ATOM     15  C   UNL     1       2.483   5.346  18.564  0.00  0.00    +0.000 A 
ATOM     16  C   UNL     1       1.902   5.904  19.710  0.00  0.00    +0.000 A 
BRANCH  11  17
ATOM     17  C   UNL     1       1.575   7.855  21.270  0.00  0.00    +0.000 C 
BRANCH  17  18
ATOM     18  O   UNL     1       0.251   8.389  21.134  0.00  0.00    +0.000 OA
BRANCH  18  24
ATOM     19  C   UNL     1      -0.371  10.161  18.776  0.00  0.00    +0.000 C 
ATOM     20  N   UNL     1      -0.035  10.535  20.121  0.00  0.00    +0.000 N 
ATOM     21  C   UNL     1       0.058  11.808  20.599  0.00  0.00    +0.000 A 
ATOM     22  N   UNL     1       0.382  11.778  21.870  0.00  0.00    +0.000 NA
ATOM     23  N   UNL     1       0.500  10.460  22.237  0.00  0.00    +0.000 NA
ATOM     24  C   UNL     1       0.243   9.722  21.177  0.00  0.00    +0.000 A 
ENDBRANCH  18  24
ENDBRANCH  17  18
ENDBRANCH  11  17
ENDBRANCH   1  15
BRANCH   8  25
ATOM     25  C   UNL     1       7.174   5.869  18.688  0.00  0.00    +0.000 C 
ATOM     26  F   UNL     1       7.468   7.118  18.229  0.00  0.00    +0.000 F 
ATOM     27  F   UNL     1       6.454   6.061  19.826  0.00  0.00    +0.000 F 
ATOM     28  F   UNL     1       8.362   5.335  19.085  0.00  0.00    +0.000 F 
ENDBRANCH   8  25
BRANCH   6  29
ATOM     29  C   UNL     1       6.719   4.254  13.923  0.00  0.00    +0.000 C 
BRANCH  29  30
ATOM     30  C   UNL     1       5.816   3.534  12.920  0.00  0.00    +0.000 C 
BRANCH  30  31
ATOM     31  O   UNL     1       6.570   2.716  12.031  0.00  0.00    +0.000 OA
ATOM     32  H   UNL     1       6.516   1.806  12.370  0.00  0.00    +0.000 HD
ENDBRANCH  30  31
ENDBRANCH  29  30
ENDBRANCH   6  29
TORSDOF 8
ENDMDL
MODEL 8
REMARK VINA RESULT:      -7.9      3.725      8.381
REMARK  Name = 
REMARK  9 active torsions:
REMARK  status: ('A' for Active; 'I' for Inactive)
REMARK    1  A    between atoms: C_1  and  N_2
REMARK    2  A    between atoms: C_6  and  O_7
REMARK    3  A    between atoms: O_7  and  C_8
REMARK    4  A    between atoms: C_8  and  C_9
REMARK    5  A    between atoms: C_13  and  N_14
REMARK    6  A    between atoms: C_19  and  C_20
REMARK    7  A    between atoms: C_20  and  C_21
REMARK    8  A    between atoms: C_21  and  O_22
REMARK    9  A    between atoms: C_24  and  C_25
REMARK                            x       y       z     vdW  Elec       q    Type
REMARK                         _______ _______ _______ _____ _____    ______ ____
ROOT
ATOM      1  N   UNL     1       2.544   7.728  19.352  0.00  0.00    +0.000 N 
ATOM      2  C   UNL     1       2.199   8.489  20.579  0.00  0.00    +0.000 C 
ATOM      3  C   UNL     1       0.987   9.255  20.145  0.00  0.00    +0.000 A 
ATOM      4  C   UNL     1       1.077   9.431  18.762  0.00  0.00    +0.000 A 
ATOM      5  C   UNL     1       0.073  10.009  18.006  0.00  0.00    +0.000 A 
ATOM      6  C   UNL     1      -1.083  10.425  18.675  0.00  0.00    +0.000 A 
ATOM      7  C   UNL     1      -1.195  10.215  20.072  0.00  0.00    +0.000 A 
ATOM      8  C   UNL     1      -0.162   9.624  20.834  0.00  0.00    +0.000 A 
ATOM      9  C   UNL     1       2.178   8.570  18.270  0.00  0.00    +0.000 C 
ATOM     10  O   UNL     1       2.518   8.500  17.103  0.00  0.00    +0.000 OA
ENDROOT
BRANCH   1  15
ATOM     11  C   UNL     1       2.331   4.203  18.513  0.00  0.00    +0.000 A 
ATOM     12  C   UNL     1       2.230   3.701  19.818  0.00  0.00    +0.000 A 
ATOM     13  C   UNL     1       1.773   4.515  20.852  0.00  0.00    +0.000 A 
ATOM     14  C   UNL     1       1.539   5.865  20.619  0.00  0.00    +0.000 A 
ATOM     15  C   UNL     1       1.900   6.420  19.383  0.00  0.00    +0.000 A 
ATOM     16  C   UNL     1       2.124   5.569  18.293  0.00  0.00    +0.000 A 
BRANCH  11  17
ATOM     17  C   UNL     1       2.729   3.302  17.373  0.00  0.00    +0.000 C 
BRANCH  17  18
ATOM     18  O   UNL     1       4.120   2.964  17.450  0.00  0.00    +0.000 OA
BRANCH  18  24
ATOM     19  C   UNL     1       5.799   4.903  19.033  0.00  0.00    +0.000 C 
ATOM     20  N   UNL     1       5.656   4.789  17.609  0.00  0.00    +0.000 N 
ATOM     21  C   UNL     1       6.285   5.559  16.677  0.00  0.00    +0.000 A 
ATOM     22  N   UNL     1       5.923   5.177  15.475  0.00  0.00    +0.000 NA
ATOM     23  N   UNL     1       5.043   4.133  15.619  0.00  0.00    +0.000 NA
ATOM     24  C   UNL     1       4.893   3.906  16.908  0.00  0.00    +0.000 A 
ENDBRANCH  18  24
ENDBRANCH  17  18
ENDBRANCH  11  17
ENDBRANCH   1  15
BRANCH   8  25
ATOM     25  C   UNL     1      -0.393   9.343  22.297  0.00  0.00    +0.000 C 
ATOM     26  F   UNL     1       0.734   9.369  23.061  0.00  0.00    +0.000 F 
ATOM     27  F   UNL     1      -1.239  10.243  22.866  0.00  0.00    +0.000 F 
ATOM     28  F   UNL     1      -0.954   8.120  22.511  0.00  0.00    +0.000 F 
ENDBRANCH   8  25
BRANCH   6  29
ATOM     29  C   UNL     1      -2.232  11.050  17.913  0.00  0.00    +0.000 C 
BRANCH  29  30
ATOM     30  C   UNL     1      -2.576  10.343  16.601  0.00  0.00    +0.000 C 
BRANCH  30  31
ATOM     31  O   UNL     1      -2.526  11.239  15.496  0.00  0.00    +0.000 OA
ATOM     32  H   UNL     1      -3.079  12.006  15.728  0.00  0.00    +0.000 HD
ENDBRANCH  30  31
ENDBRANCH  29  30
ENDBRANCH   6  29
TORSDOF 8
ENDMDL
MODEL 9
REMARK VINA RESULT:      -7.8      1.036      1.574
REMARK  Name = 
REMARK  9 active torsions:
REMARK  status: ('A' for Active; 'I' for Inactive)
REMARK    1  A    between atoms: C_1  and  N_2
REMARK    2  A    between atoms: C_6  and  O_7
REMARK    3  A    between atoms: O_7  and  C_8
REMARK    4  A    between atoms: C_8  and  C_9
REMARK    5  A    between atoms: C_13  and  N_14
REMARK    6  A    between atoms: C_19  and  C_20
REMARK    7  A    between atoms: C_20  and  C_21
REMARK    8  A    between atoms: C_21  and  O_22
REMARK    9  A    between atoms: C_24  and  C_25
REMARK                            x       y       z     vdW  Elec       q    Type
REMARK                         _______ _______ _______ _____ _____    ______ ____
ROOT
ATOM      1  N   UNL     1       3.969   4.664  19.200  0.00  0.00    +0.000 N 
ATOM      2  C   UNL     1       5.312   5.281  19.332  0.00  0.00    +0.000 C 
ATOM      3  C   UNL     1       5.880   5.098  17.959  0.00  0.00    +0.000 A 
ATOM      4  C   UNL     1       5.264   3.978  17.397  0.00  0.00    +0.000 A 
ATOM      5  C   UNL     1       5.473   3.574  16.091  0.00  0.00    +0.000 A 
ATOM      6  C   UNL     1       6.341   4.343  15.307  0.00  0.00    +0.000 A 
ATOM      7  C   UNL     1       6.939   5.503  15.860  0.00  0.00    +0.000 A 
ATOM      8  C   UNL     1       6.718   5.904  17.197  0.00  0.00    +0.000 A 
ATOM      9  C   UNL     1       4.131   3.600  18.275  0.00  0.00    +0.000 C 
ATOM     10  O   UNL     1       3.394   2.654  18.066  0.00  0.00    +0.000 OA
ENDROOT
BRANCH   1  15
ATOM     11  C   UNL     1       2.027   7.667  19.821  0.00  0.00    +0.000 A 
ATOM     12  C   UNL     1       2.427   8.392  18.691  0.00  0.00    +0.000 A 
ATOM     13  C   UNL     1       2.918   7.729  17.567  0.00  0.00    +0.000 A 
ATOM     14  C   UNL     1       3.135   6.357  17.612  0.00  0.00    +0.000 A 
ATOM     15  C   UNL     1       2.990   5.680  18.832  0.00  0.00    +0.000 A 
ATOM     16  C   UNL     1       2.277   6.291  19.870  0.00  0.00    +0.000 A 
BRANCH  11  17
ATOM     17  C   UNL     1       1.403   8.368  21.000  0.00  0.00    +0.000 C 
BRANCH  17  18
ATOM     18  O   UNL     1       0.144   8.950  20.641  0.00  0.00    +0.000 OA
BRANCH  18  24
ATOM     19  C   UNL     1      -0.897  10.294  23.131  0.00  0.00    +0.000 C 
ATOM     20  N   UNL     1      -0.337  10.891  21.951  0.00  0.00    +0.000 N 
ATOM     21  C   UNL     1      -0.157  12.225  21.737  0.00  0.00    +0.000 A 
ATOM     22  N   UNL     1       0.380  12.412  20.555  0.00  0.00    +0.000 NA
ATOM     23  N   UNL     1       0.562  11.177  19.982  0.00  0.00    +0.000 NA
ATOM     24  C   UNL     1       0.130  10.270  20.833  0.00  0.00    +0.000 A 
ENDBRANCH  18  24
ENDBRANCH  17  18
ENDBRANCH  11  17
ENDBRANCH   1  15
BRANCH   8  25
ATOM     25  C   UNL     1       7.310   7.202  17.685  0.00  0.00    +0.000 C 
ATOM     26  F   UNL     1       8.170   7.794  16.810  0.00  0.00    +0.000 F 
ATOM     27  F   UNL     1       6.356   8.137  17.945  0.00  0.00    +0.000 F 
ATOM     28  F   UNL     1       8.010   7.054  18.844  0.00  0.00    +0.000 F 
ENDBRANCH   8  25
BRANCH   6  29
ATOM     29  C   UNL     1       6.606   3.975  13.863  0.00  0.00    +0.000 C 
BRANCH  29  30
ATOM     30  C   UNL     1       7.068   5.143  12.991  0.00  0.00    +0.000 C 
BRANCH  30  31
ATOM     31  O   UNL     1       8.417   5.504  13.271  0.00  0.00    +0.000 OA
ATOM     32  H   UNL     1       8.506   6.450  13.061  0.00  0.00    +0.000 HD
ENDBRANCH  30  31
ENDBRANCH  29  30
ENDBRANCH   6  29
TORSDOF 8
ENDMDL
