MODEL 1
REMARK VINA RESULT:      -8.4      0.000      0.000
REMARK  Name = 
REMARK  6 active torsions:
REMARK  status: ('A' for Active; 'I' for Inactive)
REMARK    1  A    between atoms: C_1  and  O_2
REMARK    2  A    between atoms: O_2  and  C_3
REMARK    3  A    between atoms: C_3  and  C_4
REMARK    4  A    between atoms: C_8  and  C_9
REMARK    5  A    between atoms: N_15  and  C_16
REMARK    6  A    between atoms: C_20  and  C_21
REMARK                            x       y       z     vdW  Elec       q    Type
REMARK                         _______ _______ _______ _____ _____    ______ ____
ROOT
ATOM      1  C   UNL     1       1.533   6.805  20.651  0.00  0.00    +0.000 A 
ATOM      2  C   UNL     1       2.285   7.272  19.569  0.00  0.00    +0.000 A 
ATOM      3  C   UNL     1       2.987   6.344  18.822  0.00  0.00    +0.000 A 
ATOM      4  C   UNL     1       2.979   4.980  19.095  0.00  0.00    +0.000 A 
ATOM      5  C   UNL     1       2.253   4.485  20.174  0.00  0.00    +0.000 A 
ATOM      6  C   UNL     1       1.527   5.420  20.944  0.00  0.00    +0.000 A 
ATOM      7  C   UNL     1       3.836   4.274  18.093  0.00  0.00    +0.000 C 
ATOM      8  N   UNL     1       4.351   5.354  17.259  0.00  0.00    +0.000 N 
ATOM      9  C   UNL     1       3.856   6.591  17.669  0.00  0.00    +0.000 C 
ATOM     10  O   UNL     1       4.034   7.716  17.234  0.00  0.00    +0.000 OA
ENDROOT
BRANCH   8  11
ATOM     11  C   UNL     1       5.315   5.132  16.240  0.00  0.00    +0.000 A 
ATOM     12  C   UNL     1       6.618   5.627  16.348  0.00  0.00    +0.000 A 
ATOM     13  C   UNL     1       7.579   5.346  15.375  0.00  0.00    +0.000 A 
ATOM     14  C   UNL     1       7.245   4.576  14.264  0.00  0.00    +0.000 A 
ATOM     15  C   UNL     1       5.947   4.081  14.109  0.00  0.00    +0.000 A 
ATOM     16  C   UNL     1       4.994   4.371  15.102  0.00  0.00    +0.000 A 
BRANCH  15  17
ATOM     17  C   UNL     1       5.634   3.269  12.916  0.00  0.00    +0.000 C 
ATOM     18  C   UNL     1       4.642   3.576  12.088  0.00  0.00    +0.000 C 
ATOM     19  C   UNL     1       3.739   3.489  11.026  0.00  0.00    +0.000 C 
ATOM     20  C   UNL     1       4.681   2.619  10.984  0.00  0.00    +0.000 C 
ENDBRANCH  15  17
ENDBRANCH   8  11
BRANCH   5  21
ATOM     21  C   UNL     1       2.230   3.027  20.548  0.00  0.00    +0.000 C 
ATOM     22  F   UNL     1       1.532   2.767  21.689  0.00  0.00    +0.000 F 
ATOM     23  F   UNL     1       1.665   2.250  19.584  0.00  0.00    +0.000 F 
ATOM     24  F   UNL     1       3.477   2.523  20.756  0.00  0.00    +0.000 F 
ENDBRANCH   5  21
BRANCH   1  25
ATOM     25  C   UNL     1       0.731   7.767  21.490  0.00  0.00    +0.000 C 
BRANCH  25  27
ATOM     26  C   UNL     1       0.827  10.115  21.495  0.00  0.00    +0.000 C 
ATOM     27  O   UNL     1       1.533   8.913  21.764  0.00  0.00    +0.000 OA
ENDBRANCH  25  27
ENDBRANCH   1  25
TORSDOF 5
ENDMDL
MODEL 2
REMARK VINA RESULT:      -8.2      3.099      7.344
REMARK  Name = 
REMARK  6 active torsions:
REMARK  status: ('A' for Active; 'I' for Inactive)
REMARK    1  A    between atoms: C_1  and  O_2
REMARK    2  A    between atoms: O_2  and  C_3
REMARK    3  A    between atoms: C_3  and  C_4
REMARK    4  A    between atoms: C_8  and  C_9
REMARK    5  A    between atoms: N_15  and  C_16
REMARK    6  A    between atoms: C_20  and  C_21
REMARK                            x       y       z     vdW  Elec       q    Type
REMARK                         _______ _______ _______ _____ _____    ______ ____
ROOT
ATOM      1  C   UNL     1       4.393   5.124  17.611  0.00  0.00    +0.000 A 
ATOM      2  C   UNL     1       3.992   6.438  17.353  0.00  0.00    +0.000 A 
ATOM      3  C   UNL     1       3.066   7.010  18.206  0.00  0.00    +0.000 A 
ATOM      4  C   UNL     1       2.521   6.343  19.299  0.00  0.00    +0.000 A 
ATOM      5  C   UNL     1       2.887   5.029  19.573  0.00  0.00    +0.000 A 
ATOM      6  C   UNL     1       3.835   4.433  18.714  0.00  0.00    +0.000 A 
ATOM      7  C   UNL     1       1.564   7.254  20.001  0.00  0.00    +0.000 C 
ATOM      8  N   UNL     1       1.591   8.469  19.195  0.00  0.00    +0.000 N 
ATOM      9  C   UNL     1       2.481   8.350  18.128  0.00  0.00    +0.000 C 
ATOM     10  O   UNL     1       2.794   9.133  17.247  0.00  0.00    +0.000 OA
ENDROOT
BRANCH   8  11
ATOM     11  C   UNL     1       0.724   9.566  19.446  0.00  0.00    +0.000 A 
ATOM     12  C   UNL     1       0.916  10.411  20.543  0.00  0.00    +0.000 A 
ATOM     13  C   UNL     1       0.102  11.527  20.744  0.00  0.00    +0.000 A 
ATOM     14  C   UNL     1      -0.933  11.808  19.855  0.00  0.00    +0.000 A 
ATOM     15  C   UNL     1      -1.170  10.973  18.758  0.00  0.00    +0.000 A 
ATOM     16  C   UNL     1      -0.337   9.856  18.570  0.00  0.00    +0.000 A 
BRANCH  15  17
ATOM     17  C   UNL     1      -2.278  11.306  17.840  0.00  0.00    +0.000 C 
ATOM     18  C   UNL     1      -2.440  10.694  16.672  0.00  0.00    +0.000 C 
ATOM     19  C   UNL     1      -2.957  10.373  15.415  0.00  0.00    +0.000 C 
ATOM     20  C   UNL     1      -3.673  11.205  16.077  0.00  0.00    +0.000 C 
ENDBRANCH  15  17
ENDBRANCH   8  11
BRANCH   5  21
ATOM     21  C   UNL     1       2.310   4.238  20.716  0.00  0.00    +0.000 C 
ATOM     22  F   UNL     1       0.951   4.144  20.683  0.00  0.00    +0.000 F 
ATOM     23  F   UNL     1       2.768   2.958  20.749  0.00  0.00    +0.000 F 
ATOM     24  F   UNL     1       2.612   4.779  21.928  0.00  0.00    +0.000 F 
ENDBRANCH   5  21
BRANCH   1  25
ATOM     25  C   UNL     1       5.415   4.455  16.727  0.00  0.00    +0.000 C 
BRANCH  25  27
ATOM     26  C   UNL     1       7.500   4.704  17.782  0.00  0.00    +0.000 C 
ATOM     27  O   UNL     1       6.626   5.203  16.780  0.00  0.00    +0.000 OA
ENDBRANCH  25  27
ENDBRANCH   1  25
TORSDOF 5
ENDMDL
MODEL 3
REMARK VINA RESULT:      -8.1      0.586      1.107
REMARK  Name = 
REMARK  6 active torsions:
REMARK  status: ('A' for Active; 'I' for Inactive)
REMARK    1  A    between atoms: C_1  and  O_2
REMARK    2  A    between atoms: O_2  and  C_3
REMARK    3  A    between atoms: C_3  and  C_4
REMARK    4  A    between atoms: C_8  and  C_9
REMARK    5  A    between atoms: N_15  and  C_16
REMARK    6  A    between atoms: C_20  and  C_21
REMARK                            x       y       z     vdW  Elec       q    Type
REMARK                         _______ _______ _______ _____ _____    ______ ____
ROOT
ATOM      1  C   UNL     1       1.484   6.921  20.652  0.00  0.00    +0.000 A 
ATOM      2  C   UNL     1       2.218   7.359  19.547  0.00  0.00    +0.000 A 
ATOM      3  C   UNL     1       2.929   6.416  18.828  0.00  0.00    +0.000 A 
ATOM      4  C   UNL     1       2.946   5.063  19.153  0.00  0.00    +0.000 A 
ATOM      5  C   UNL     1       2.239   4.598  20.257  0.00  0.00    +0.000 A 
ATOM      6  C   UNL     1       1.505   5.549  20.998  0.00  0.00    +0.000 A 
ATOM      7  C   UNL     1       3.807   4.334  18.170  0.00  0.00    +0.000 C 
ATOM      8  N   UNL     1       4.296   5.390  17.291  0.00  0.00    +0.000 N 
ATOM      9  C   UNL     1       3.782   6.633  17.658  0.00  0.00    +0.000 C 
ATOM     10  O   UNL     1       3.938   7.744  17.179  0.00  0.00    +0.000 OA
ENDROOT
BRANCH   8  11
ATOM     11  C   UNL     1       5.254   5.146  16.271  0.00  0.00    +0.000 A 
ATOM     12  C   UNL     1       6.583   5.558  16.406  0.00  0.00    +0.000 A 
ATOM     13  C   UNL     1       7.534   5.254  15.430  0.00  0.00    +0.000 A 
ATOM     14  C   UNL     1       7.165   4.543  14.291  0.00  0.00    +0.000 A 
ATOM     15  C   UNL     1       5.841   4.132  14.110  0.00  0.00    +0.000 A 
ATOM     16  C   UNL     1       4.898   4.444  15.106  0.00  0.00    +0.000 A 
BRANCH  15  17
ATOM     17  C   UNL     1       5.491   3.380  12.888  0.00  0.00    +0.000 C 
ATOM     18  C   UNL     1       6.392   2.691  12.196  0.00  0.00    +0.000 C 
ATOM     19  C   UNL     1       6.962   1.910  11.188  0.00  0.00    +0.000 C 
ATOM     20  C   UNL     1       5.685   2.008  11.115  0.00  0.00    +0.000 C 
ENDBRANCH  15  17
ENDBRANCH   8  11
BRANCH   5  21
ATOM     21  C   UNL     1       2.244   3.155  20.686  0.00  0.00    +0.000 C 
ATOM     22  F   UNL     1       1.728   2.307  19.753  0.00  0.00    +0.000 F 
ATOM     23  F   UNL     1       3.496   2.693  20.952  0.00  0.00    +0.000 F 
ATOM     24  F   UNL     1       1.517   2.946  21.817  0.00  0.00    +0.000 F 
ENDBRANCH   5  21
BRANCH   1  25
ATOM     25  C   UNL     1       0.673   7.902  21.462  0.00  0.00    +0.000 C 
BRANCH  25  27
ATOM     26  C   UNL     1       0.928  10.233  21.607  0.00  0.00    +0.000 C 
ATOM     27  O   UNL     1       1.523   8.971  21.870  0.00  0.00    +0.000 OA
ENDBRANCH  25  27
ENDBRANCH   1  25
TORSDOF 5
ENDMDL
MODEL 4
REMARK VINA RESULT:      -8.0      3.333      5.354
REMARK  Name = 
REMARK  6 active torsions:
REMARK  status: ('A' for Active; 'I' for Inactive)
REMARK    1  A    between atoms: C_1  and  O_2
REMARK    2  A    between atoms: O_2  and  C_3
REMARK    3  A    between atoms: C_3  and  C_4
REMARK    4  A    between atoms: C_8  and  C_9
REMARK    5  A    between atoms: N_15  and  C_16
REMARK    6  A    between atoms: C_20  and  C_21
REMARK                            x       y       z     vdW  Elec       q    Type
REMARK                         _______ _______ _______ _____ _____    ______ ____
ROOT
ATOM      1  C   UNL     1      -0.086  11.867  19.557  0.00  0.00    +0.000 A 
ATOM      2  C   UNL     1       0.642  11.076  18.664  0.00  0.00    +0.000 A 
ATOM      3  C   UNL     1       1.075   9.838  19.101  0.00  0.00    +0.000 A 
ATOM      4  C   UNL     1       0.822   9.349  20.378  0.00  0.00    +0.000 A 
ATOM      5  C   UNL     1       0.115  10.117  21.297  0.00  0.00    +0.000 A 
ATOM      6  C   UNL     1      -0.339  11.382  20.864  0.00  0.00    +0.000 A 
ATOM      7  C   UNL     1       1.428   7.987  20.510  0.00  0.00    +0.000 C 
ATOM      8  N   UNL     1       2.068   7.768  19.219  0.00  0.00    +0.000 N 
ATOM      9  C   UNL     1       1.867   8.851  18.363  0.00  0.00    +0.000 C 
ATOM     10  O   UNL     1       2.224   9.049  17.214  0.00  0.00    +0.000 OA
ENDROOT
BRANCH   8  11
ATOM     11  C   UNL     1       2.873   6.628  18.953  0.00  0.00    +0.000 A 
ATOM     12  C   UNL     1       2.718   5.442  19.676  0.00  0.00    +0.000 A 
ATOM     13  C   UNL     1       3.464   4.305  19.363  0.00  0.00    +0.000 A 
ATOM     14  C   UNL     1       4.394   4.341  18.326  0.00  0.00    +0.000 A 
ATOM     15  C   UNL     1       4.592   5.515  17.594  0.00  0.00    +0.000 A 
ATOM     16  C   UNL     1       3.828   6.649  17.921  0.00  0.00    +0.000 A 
BRANCH  15  17
ATOM     17  C   UNL     1       5.587   5.511  16.503  0.00  0.00    +0.000 C 
ATOM     18  C   UNL     1       5.570   4.608  15.528  0.00  0.00    +0.000 C 
ATOM     19  C   UNL     1       5.949   3.890  14.392  0.00  0.00    +0.000 C 
ATOM     20  C   UNL     1       6.631   4.959  14.587  0.00  0.00    +0.000 C 
ENDBRANCH  15  17
ENDBRANCH   8  11
BRANCH   5  21
ATOM     21  C   UNL     1      -0.163   9.664  22.705  0.00  0.00    +0.000 C 
ATOM     22  F   UNL     1       0.963   9.368  23.414  0.00  0.00    +0.000 F 
ATOM     23  F   UNL     1      -0.824  10.603  23.436  0.00  0.00    +0.000 F 
ATOM     24  F   UNL     1      -0.931   8.542  22.749  0.00  0.00    +0.000 F 
ENDBRANCH   5  21
BRANCH   1  25
ATOM     25  C   UNL     1      -0.602  13.217  19.130  0.00  0.00    +0.000 C 
BRANCH  25  27
ATOM     26  C   UNL     1      -1.141  15.110  20.414  0.00  0.00    +0.000 C 
ATOM     27  O   UNL     1      -0.116  14.201  20.040  0.00  0.00    +0.000 OA
ENDBRANCH  25  27
ENDBRANCH   1  25
TORSDOF 5
ENDMDL
MODEL 5
REMARK VINA RESULT:      -8.0      2.338      7.466
REMARK  Name = 
REMARK  6 active torsions:
REMARK  status: ('A' for Active; 'I' for Inactive)
REMARK    1  A    between atoms: C_1  and  O_2
REMARK    2  A    between atoms: O_2  and  C_3
REMARK    3  A    between atoms: C_3  and  C_4
REMARK    4  A    between atoms: C_8  and  C_9
REMARK    5  A    between atoms: N_15  and  C_16
REMARK    6  A    between atoms: C_20  and  C_21
REMARK                            x       y       z     vdW  Elec       q    Type
REMARK                         _______ _______ _______ _____ _____    ______ ____
ROOT
ATOM      1  C   UNL     1       5.265   4.360  15.953  0.00  0.00    +0.000 A 
ATOM      2  C   UNL     1       4.939   5.675  16.296  0.00  0.00    +0.000 A 
ATOM      3  C   UNL     1       4.056   5.870  17.342  0.00  0.00    +0.000 A 
ATOM      4  C   UNL     1       3.483   4.827  18.062  0.00  0.00    +0.000 A 
ATOM      5  C   UNL     1       3.774   3.506  17.735  0.00  0.00    +0.000 A 
ATOM      6  C   UNL     1       4.678   3.291  16.672  0.00  0.00    +0.000 A 
ATOM      7  C   UNL     1       2.586   5.393  19.117  0.00  0.00    +0.000 C 
ATOM      8  N   UNL     1       2.677   6.834  18.909  0.00  0.00    +0.000 N 
ATOM      9  C   UNL     1       3.549   7.141  17.864  0.00  0.00    +0.000 C 
ATOM     10  O   UNL     1       3.899   8.210  17.394  0.00  0.00    +0.000 OA
ENDROOT
BRANCH   8  11
ATOM     11  C   UNL     1       1.878   7.758  19.633  0.00  0.00    +0.000 A 
ATOM     12  C   UNL     1       1.787   7.708  21.027  0.00  0.00    +0.000 A 
ATOM     13  C   UNL     1       1.055   8.661  21.737  0.00  0.00    +0.000 A 
ATOM     14  C   UNL     1       0.385   9.676  21.058  0.00  0.00    +0.000 A 
ATOM     15  C   UNL     1       0.433   9.747  19.663  0.00  0.00    +0.000 A 
ATOM     16  C   UNL     1       1.180   8.780  18.965  0.00  0.00    +0.000 A 
BRANCH  15  17
ATOM     17  C   UNL     1      -0.292  10.839  18.982  0.00  0.00    +0.000 C 
ATOM     18  C   UNL     1      -1.372  10.620  18.241  0.00  0.00    +0.000 C 
ATOM     19  C   UNL     1      -2.452  10.854  17.387  0.00  0.00    +0.000 C 
ATOM     20  C   UNL     1      -1.873  11.920  17.802  0.00  0.00    +0.000 C 
ENDBRANCH  15  17
ENDBRANCH   8  11
BRANCH   5  21
ATOM     21  C   UNL     1       3.162   2.330  18.448  0.00  0.00    +0.000 C 
ATOM     22  F   UNL     1       3.668   1.129  18.052  0.00  0.00    +0.000 F 
ATOM     23  F   UNL     1       3.345   2.383  19.795  0.00  0.00    +0.000 F 
ATOM     24  F   UNL     1       1.818   2.246  18.253  0.00  0.00    +0.000 F 
ENDBRANCH   5  21
BRANCH   1  25
ATOM     25  C   UNL     1       6.238   4.086  14.835  0.00  0.00    +0.000 C 
BRANCH  25  27
ATOM     26  C   UNL     1       6.362   3.589  12.541  0.00  0.00    +0.000 C 
ATOM     27  O   UNL     1       5.509   3.949  13.618  0.00  0.00    +0.000 OA
ENDBRANCH  25  27
ENDBRANCH   1  25
TORSDOF 5
ENDMDL
MODEL 6
REMARK VINA RESULT:      -8.0      2.358      7.313
REMARK  Name = 
REMARK  6 active torsions:
REMARK  status: ('A' for Active; 'I' for Inactive)
REMARK    1  A    between atoms: C_1  and  O_2
REMARK    2  A    between atoms: O_2  and  C_3
REMARK    3  A    between atoms: C_3  and  C_4
REMARK    4  A    between atoms: C_8  and  C_9
REMARK    5  A    between atoms: N_15  and  C_16
REMARK    6  A    between atoms: C_20  and  C_21
REMARK                            x       y       z     vdW  Elec       q    Type
REMARK                         _______ _______ _______ _____ _____    ______ ____
ROOT
ATOM      1  C   UNL     1       4.907   4.259  16.770  0.00  0.00    +0.000 A 
ATOM      2  C   UNL     1       4.563   5.603  16.937  0.00  0.00    +0.000 A 
ATOM      3  C   UNL     1       3.692   5.925  17.962  0.00  0.00    +0.000 A 
ATOM      4  C   UNL     1       3.148   4.980  18.826  0.00  0.00    +0.000 A 
ATOM      5  C   UNL     1       3.459   3.632  18.677  0.00  0.00    +0.000 A 
ATOM      6  C   UNL     1       4.350   3.288  17.637  0.00  0.00    +0.000 A 
ATOM      7  C   UNL     1       2.258   5.670  19.810  0.00  0.00    +0.000 C 
ATOM      8  N   UNL     1       2.320   7.070  19.407  0.00  0.00    +0.000 N 
ATOM      9  C   UNL     1       3.170   7.246  18.316  0.00  0.00    +0.000 C 
ATOM     10  O   UNL     1       3.494   8.247  17.699  0.00  0.00    +0.000 OA
ENDROOT
BRANCH   8  11
ATOM     11  C   UNL     1       1.515   8.071  20.014  0.00  0.00    +0.000 A 
ATOM     12  C   UNL     1       1.523   8.275  21.397  0.00  0.00    +0.000 A 
ATOM     13  C   UNL     1       0.782   9.306  21.978  0.00  0.00    +0.000 A 
ATOM     14  C   UNL     1       0.004  10.143  21.182  0.00  0.00    +0.000 A 
ATOM     15  C   UNL     1      -0.046   9.958  19.797  0.00  0.00    +0.000 A 
ATOM     16  C   UNL     1       0.710   8.917  19.229  0.00  0.00    +0.000 A 
BRANCH  15  17
ATOM     17  C   UNL     1      -0.883  10.868  18.989  0.00  0.00    +0.000 C 
ATOM     18  C   UNL     1      -1.547  10.457  17.914  0.00  0.00    +0.000 C 
ATOM     19  C   UNL     1      -2.340  10.487  16.765  0.00  0.00    +0.000 C 
ATOM     20  C   UNL     1      -2.331  11.588  17.424  0.00  0.00    +0.000 C 
ENDBRANCH  15  17
ENDBRANCH   8  11
BRANCH   5  21
ATOM     21  C   UNL     1       2.878   2.554  19.553  0.00  0.00    +0.000 C 
ATOM     22  F   UNL     1       3.416   2.520  20.804  0.00  0.00    +0.000 F 
ATOM     23  F   UNL     1       1.537   2.692  19.731  0.00  0.00    +0.000 F 
ATOM     24  F   UNL     1       3.065   1.308  19.038  0.00  0.00    +0.000 F 
ENDBRANCH   5  21
BRANCH   1  25
ATOM     25  C   UNL     1       5.868   3.851  15.682  0.00  0.00    +0.000 C 
BRANCH  25  27
ATOM     26  C   UNL     1       5.966   3.801  13.335  0.00  0.00    +0.000 C 
ATOM     27  O   UNL     1       5.495   4.507  14.473  0.00  0.00    +0.000 OA
ENDBRANCH  25  27
ENDBRANCH   1  25
TORSDOF 5
ENDMDL
MODEL 7
REMARK VINA RESULT:      -7.8      3.324      8.010
REMARK  Name = 
REMARK  6 active torsions:
REMARK  status: ('A' for Active; 'I' for Inactive)
REMARK    1  A    between atoms: C_1  and  O_2
REMARK    2  A    between atoms: O_2  and  C_3
REMARK    3  A    between atoms: C_3  and  C_4
REMARK    4  A    between atoms: C_8  and  C_9
REMARK    5  A    between atoms: N_15  and  C_16
REMARK    6  A    between atoms: C_20  and  C_21
REMARK                            x       y       z     vdW  Elec       q    Type
REMARK                         _______ _______ _______ _____ _____    ______ ____
ROOT
ATOM      1  C   UNL     1       4.376   6.137  17.512  0.00  0.00    +0.000 A 
ATOM      2  C   UNL     1       3.828   7.411  17.340  0.00  0.00    +0.000 A 
ATOM      3  C   UNL     1       2.820   7.803  18.202  0.00  0.00    +0.000 A 
ATOM      4  C   UNL     1       2.331   6.994  19.222  0.00  0.00    +0.000 A 
ATOM      5  C   UNL     1       2.843   5.714  19.409  0.00  0.00    +0.000 A 
ATOM      6  C   UNL     1       3.877   5.301  18.540  0.00  0.00    +0.000 A 
ATOM      7  C   UNL     1       1.254   7.728  19.957  0.00  0.00    +0.000 C 
ATOM      8  N   UNL     1       1.157   8.998  19.247  0.00  0.00    +0.000 N 
ATOM      9  C   UNL     1       2.081   9.067  18.205  0.00  0.00    +0.000 C 
ATOM     10  O   UNL     1       2.321   9.949  17.396  0.00  0.00    +0.000 OA
ENDROOT
BRANCH   8  11
ATOM     11  C   UNL     1       0.160   9.963  19.550  0.00  0.00    +0.000 A 
ATOM     12  C   UNL     1       0.188  10.691  20.743  0.00  0.00    +0.000 A 
ATOM     13  C   UNL     1      -0.756  11.686  21.002  0.00  0.00    +0.000 A 
ATOM     14  C   UNL     1      -1.758  11.960  20.074  0.00  0.00    +0.000 A 
ATOM     15  C   UNL     1      -1.832  11.239  18.878  0.00  0.00    +0.000 A 
ATOM     16  C   UNL     1      -0.869  10.243  18.633  0.00  0.00    +0.000 A 
BRANCH  15  17
ATOM     17  C   UNL     1      -2.909  11.560  17.921  0.00  0.00    +0.000 C 
ATOM     18  C   UNL     1      -4.185  11.287  18.170  0.00  0.00    +0.000 C 
ATOM     19  C   UNL     1      -5.565  11.164  17.990  0.00  0.00    +0.000 C 
ATOM     20  C   UNL     1      -4.972  11.818  17.059  0.00  0.00    +0.000 C 
ENDBRANCH  15  17
ENDBRANCH   8  11
BRANCH   5  21
ATOM     21  C   UNL     1       2.335   4.774  20.470  0.00  0.00    +0.000 C 
ATOM     22  F   UNL     1       2.468   5.257  21.736  0.00  0.00    +0.000 F 
ATOM     23  F   UNL     1       1.015   4.483  20.321  0.00  0.00    +0.000 F 
ATOM     24  F   UNL     1       2.988   3.579  20.461  0.00  0.00    +0.000 F 
ENDBRANCH   5  21
BRANCH   1  25
ATOM     25  C   UNL     1       5.491   5.663  16.616  0.00  0.00    +0.000 C 
BRANCH  25  27
ATOM     26  C   UNL     1       7.371   6.759  17.504  0.00  0.00    +0.000 C 
ATOM     27  O   UNL     1       6.425   6.726  16.445  0.00  0.00    +0.000 OA
ENDBRANCH  25  27
ENDBRANCH   1  25
TORSDOF 5
ENDMDL
MODEL 8
REMARK VINA RESULT:      -7.8      3.201      5.183
REMARK  Name = 
REMARK  6 active torsions:
REMARK  status: ('A' for Active; 'I' for Inactive)
REMARK    1  A    between atoms: C_1  and  O_2
REMARK    2  A    between atoms: O_2  and  C_3
REMARK    3  A    between atoms: C_3  and  C_4
REMARK    4  A    between atoms: C_8  and  C_9
REMARK    5  A    between atoms: N_15  and  C_16
REMARK    6  A    between atoms: C_20  and  C_21
REMARK                            x       y       z     vdW  Elec       q    Type
REMARK                         _______ _______ _______ _____ _____    ______ ____
ROOT
ATOM      1  C   UNL     1       0.635  11.560  19.392  0.00  0.00    +0.000 A 
ATOM      2  C   UNL     1       1.296  10.637  18.576  0.00  0.00    +0.000 A 
ATOM      3  C   UNL     1       1.515   9.369  19.081  0.00  0.00    +0.000 A 
ATOM      4  C   UNL     1       1.111   8.973  20.353  0.00  0.00    +0.000 A 
ATOM      5  C   UNL     1       0.466   9.873  21.196  0.00  0.00    +0.000 A 
ATOM      6  C   UNL     1       0.231  11.171  20.692  0.00  0.00    +0.000 A 
ATOM      7  C   UNL     1       1.502   7.545  20.569  0.00  0.00    +0.000 C 
ATOM      8  N   UNL     1       2.185   7.184  19.332  0.00  0.00    +0.000 N 
ATOM      9  C   UNL     1       2.199   8.249  18.432  0.00  0.00    +0.000 C 
ATOM     10  O   UNL     1       2.655   8.346  17.304  0.00  0.00    +0.000 OA
ENDROOT
BRANCH   8  11
ATOM     11  C   UNL     1       2.829   5.930  19.159  0.00  0.00    +0.000 A 
ATOM     12  C   UNL     1       2.844   4.971  20.175  0.00  0.00    +0.000 A 
ATOM     13  C   UNL     1       3.419   3.715  19.973  0.00  0.00    +0.000 A 
ATOM     14  C   UNL     1       4.006   3.403  18.749  0.00  0.00    +0.000 A 
ATOM     15  C   UNL     1       4.030   4.344  17.715  0.00  0.00    +0.000 A 
ATOM     16  C   UNL     1       3.442   5.602  17.936  0.00  0.00    +0.000 A 
BRANCH  15  17
ATOM     17  C   UNL     1       4.662   3.973  16.433  0.00  0.00    +0.000 C 
ATOM     18  C   UNL     1       5.745   4.589  15.971  0.00  0.00    +0.000 C 
ATOM     19  C   UNL     1       6.792   4.949  15.120  0.00  0.00    +0.000 C 
ATOM     20  C   UNL     1       6.142   3.910  14.739  0.00  0.00    +0.000 C 
ENDBRANCH  15  17
ENDBRANCH   8  11
BRANCH   5  21
ATOM     21  C   UNL     1       0.036   9.522  22.595  0.00  0.00    +0.000 C 
ATOM     22  F   UNL     1      -0.596  10.541  23.242  0.00  0.00    +0.000 F 
ATOM     23  F   UNL     1      -0.828   8.471  22.628  0.00  0.00    +0.000 F 
ATOM     24  F   UNL     1       1.084   9.174  23.389  0.00  0.00    +0.000 F 
ENDBRANCH   5  21
BRANCH   1  25
ATOM     25  C   UNL     1       0.351  12.952  18.888  0.00  0.00    +0.000 C 
BRANCH  25  27
ATOM     26  C   UNL     1      -1.658  12.197  17.932  0.00  0.00    +0.000 C 
ATOM     27  O   UNL     1      -1.061  13.133  18.816  0.00  0.00    +0.000 OA
ENDBRANCH  25  27
ENDBRANCH   1  25
TORSDOF 5
ENDMDL
MODEL 9
REMARK VINA RESULT:      -7.8      2.311      7.454
REMARK  Name = 
REMARK  6 active torsions:
REMARK  status: ('A' for Active; 'I' for Inactive)
REMARK    1  A    between atoms: C_1  and  O_2
REMARK    2  A    between atoms: O_2  and  C_3
REMARK    3  A    between atoms: C_3  and  C_4
REMARK    4  A    between atoms: C_8  and  C_9
REMARK    5  A    between atoms: N_15  and  C_16
REMARK    6  A    between atoms: C_20  and  C_21
REMARK                            x       y       z     vdW  Elec       q    Type
REMARK                         _______ _______ _______ _____ _____    ______ ____
ROOT
ATOM      1  C   UNL     1       4.561   4.480  17.086  0.00  0.00    +0.000 A 
ATOM      2  C   UNL     1       4.123   5.805  17.167  0.00  0.00    +0.000 A 
ATOM      3  C   UNL     1       3.363   6.169  18.263  0.00  0.00    +0.000 A 
ATOM      4  C   UNL     1       3.017   5.284  19.280  0.00  0.00    +0.000 A 
ATOM      5  C   UNL     1       3.423   3.954  19.221  0.00  0.00    +0.000 A 
ATOM      6  C   UNL     1       4.204   3.569  18.110  0.00  0.00    +0.000 A 
ATOM      7  C   UNL     1       2.200   6.008  20.303  0.00  0.00    +0.000 C 
ATOM      8  N   UNL     1       2.087   7.357  19.761  0.00  0.00    +0.000 N 
ATOM      9  C   UNL     1       2.776   7.478  18.555  0.00  0.00    +0.000 C 
ATOM     10  O   UNL     1       2.931   8.428  17.805  0.00  0.00    +0.000 OA
ENDROOT
BRANCH   8  11
ATOM     11  C   UNL     1       1.281   8.355  20.370  0.00  0.00    +0.000 A 
ATOM     12  C   UNL     1       1.350   8.612  21.742  0.00  0.00    +0.000 A 
ATOM     13  C   UNL     1       0.605   9.641  22.322  0.00  0.00    +0.000 A 
ATOM     14  C   UNL     1      -0.239  10.422  21.536  0.00  0.00    +0.000 A 
ATOM     15  C   UNL     1      -0.352  10.182  20.163  0.00  0.00    +0.000 A 
ATOM     16  C   UNL     1       0.410   9.144  19.597  0.00  0.00    +0.000 A 
BRANCH  15  17
ATOM     17  C   UNL     1      -1.258  11.033  19.366  0.00  0.00    +0.000 C 
ATOM     18  C   UNL     1      -1.845  10.600  18.255  0.00  0.00    +0.000 C 
ATOM     19  C   UNL     1      -2.606  10.596  17.084  0.00  0.00    +0.000 C 
ATOM     20  C   UNL     1      -2.730  11.663  17.785  0.00  0.00    +0.000 C 
ENDBRANCH  15  17
ENDBRANCH   8  11
BRANCH   5  21
ATOM     21  C   UNL     1       3.054   2.937  20.267  0.00  0.00    +0.000 C 
ATOM     22  F   UNL     1       2.242   1.947  19.802  0.00  0.00    +0.000 F 
ATOM     23  F   UNL     1       4.140   2.308  20.791  0.00  0.00    +0.000 F 
ATOM     24  F   UNL     1       2.393   3.490  21.320  0.00  0.00    +0.000 F 
ENDBRANCH   5  21
BRANCH   1  25
ATOM     25  C   UNL     1       5.409   4.030  15.924  0.00  0.00    +0.000 C 
BRANCH  25  27
ATOM     26  C   UNL     1       6.900   4.832  14.295  0.00  0.00    +0.000 C 
ATOM     27  O   UNL     1       5.910   5.182  15.250  0.00  0.00    +0.000 OA
ENDBRANCH  25  27
ENDBRANCH   1  25
TORSDOF 5
ENDMDL
