MODEL 1
REMARK VINA RESULT:      -8.1      0.000      0.000
REMARK  Name = 
REMARK  4 active torsions:
REMARK  status: ('A' for Active; 'I' for Inactive)
REMARK    1  A    between atoms: C_5  and  N_6
REMARK    2  A    between atoms: N_6  and  C_7
REMARK    3  A    between atoms: N_10  and  C_11
REMARK    4  A    between atoms: C_11  and  C_12
REMARK                            x       y       z     vdW  Elec       q    Type
REMARK                         _______ _______ _______ _____ _____    ______ ____
ROOT
ATOM      1  O   UNL     1       0.211  10.439  18.363  0.00  0.00    +0.000 OA
ATOM      2  C   UNL     1       0.555   9.695  19.282  0.00  0.00    +0.000 A 
ATOM      3  C   UNL     1       1.627   8.667  19.020  0.00  0.00    +0.000 A 
ATOM      4 CL   UNL     1       2.502   8.881  17.540  0.00  0.00    +0.000 Cl
ATOM      5  C   UNL     1       1.994   7.727  19.906  0.00  0.00    +0.000 A 
ATOM      6  C   UNL     1       1.284   7.896  21.213  0.00  0.00    +0.000 A 
ATOM      7  N   UNL     1       0.435   8.809  21.559  0.00  0.00    +0.000 NA
ATOM      8  N   UNL     1       0.072   9.725  20.594  0.00  0.00    +0.000 N 
ATOM      9  C   UNL     1      -0.815  10.736  20.990  0.00  0.00    +0.000 A 
ATOM     10  N   UNL     1      -1.431  11.654  20.279  0.00  0.00    +0.000 NA
ATOM     11  C   UNL     1      -2.134  12.440  21.165  0.00  0.00    +0.000 A 
ATOM     12  C   UNL     1      -2.966  13.553  20.941  0.00  0.00    +0.000 A 
ATOM     13  C   UNL     1      -3.534  14.210  22.042  0.00  0.00    +0.000 A 
ATOM     14  C   UNL     1      -3.275  13.774  23.341  0.00  0.00    +0.000 A 
ATOM     15  C   UNL     1      -2.471  12.652  23.586  0.00  0.00    +0.000 A 
ATOM     16  C   UNL     1      -1.930  12.006  22.468  0.00  0.00    +0.000 A 
ATOM     17  N   UNL     1      -1.141  10.894  22.323  0.00  0.00    +0.000 N 
ATOM     18  H   UNL     1      -0.793  10.297  23.055  0.00  0.00    +0.000 HD
ENDROOT
BRANCH   5  19
ATOM     19  N   UNL     1       3.049   6.801  19.864  0.00  0.00    +0.000 N 
ATOM     20  H   UNL     1       3.339   6.548  20.811  0.00  0.00    +0.000 HD
BRANCH  19  21
ATOM     21  C   UNL     1       3.276   5.632  18.974  0.00  0.00    +0.000 C 
ATOM     22  C   UNL     1       4.344   4.644  19.449  0.00  0.00    +0.000 C 
ATOM     23  C   UNL     1       5.648   4.600  18.644  0.00  0.00    +0.000 C 
ATOM     24  N   UNL     1       5.477   4.754  17.191  0.00  0.00    +0.000 NA
ATOM     25  C   UNL     1       4.719   5.982  16.902  0.00  0.00    +0.000 C 
ATOM     26  C   UNL     1       3.311   5.926  17.482  0.00  0.00    +0.000 C 
BRANCH  24  27
ATOM     27  C   UNL     1       6.801   4.839  16.513  0.00  0.00    +0.000 C 
BRANCH  27  28
ATOM     28  C   UNL     1       6.764   4.624  15.011  0.00  0.00    +0.000 A 
ATOM     29  C   UNL     1       5.839   3.746  14.430  0.00  0.00    +0.000 A 
ATOM     30  C   UNL     1       5.855   3.506  13.053  0.00  0.00    +0.000 A 
ATOM     31  C   UNL     1       6.784   4.154  12.239  0.00  0.00    +0.000 A 
ATOM     32  C   UNL     1       7.680   5.063  12.797  0.00  0.00    +0.000 A 
ATOM     33  C   UNL     1       7.668   5.301  14.174  0.00  0.00    +0.000 A 
ENDBRANCH  27  28
ENDBRANCH  24  27
ENDBRANCH  19  21
ENDBRANCH   5  19
TORSDOF 4
ENDMDL
MODEL 2
REMARK VINA RESULT:      -8.1      1.063      1.540
REMARK  Name = 
REMARK  4 active torsions:
REMARK  status: ('A' for Active; 'I' for Inactive)
REMARK    1  A    between atoms: C_5  and  N_6
REMARK    2  A    between atoms: N_6  and  C_7
REMARK    3  A    between atoms: N_10  and  C_11
REMARK    4  A    between atoms: C_11  and  C_12
REMARK                            x       y       z     vdW  Elec       q    Type
REMARK                         _______ _______ _______ _____ _____    ______ ____
ROOT
ATOM      1  O   UNL     1      -0.394  11.383  19.053  0.00  0.00    +0.000 OA
ATOM      2  C   UNL     1      -0.133  10.551  19.923  0.00  0.00    +0.000 A 
ATOM      3  C   UNL     1       0.897   9.489  19.624  0.00  0.00    +0.000 A 
ATOM      4 CL   UNL     1       1.849   9.770  18.205  0.00  0.00    +0.000 Cl
ATOM      5  C   UNL     1       1.174   8.465  20.447  0.00  0.00    +0.000 A 
ATOM      6  C   UNL     1       0.413   8.569  21.731  0.00  0.00    +0.000 A 
ATOM      7  N   UNL     1      -0.403   9.497  22.114  0.00  0.00    +0.000 NA
ATOM      8  N   UNL     1      -0.673  10.505  21.212  0.00  0.00    +0.000 N 
ATOM      9  C   UNL     1      -1.526  11.528  21.650  0.00  0.00    +0.000 A 
ATOM     10  N   UNL     1      -2.059  12.532  20.990  0.00  0.00    +0.000 NA
ATOM     11  C   UNL     1      -2.762  13.284  21.906  0.00  0.00    +0.000 A 
ATOM     12  C   UNL     1      -3.524  14.454  21.737  0.00  0.00    +0.000 A 
ATOM     13  C   UNL     1      -4.109  15.053  22.862  0.00  0.00    +0.000 A 
ATOM     14  C   UNL     1      -3.934  14.503  24.131  0.00  0.00    +0.000 A 
ATOM     15  C   UNL     1      -3.200  13.324  24.319  0.00  0.00    +0.000 A 
ATOM     16  C   UNL     1      -2.641  12.738  23.177  0.00  0.00    +0.000 A 
ATOM     17  N   UNL     1      -1.905  11.599  22.976  0.00  0.00    +0.000 N 
ATOM     18  H   UNL     1      -1.622  10.929  23.672  0.00  0.00    +0.000 HD
ENDROOT
BRANCH   5  19
ATOM     19  N   UNL     1       2.181   7.489  20.375  0.00  0.00    +0.000 N 
ATOM     20  H   UNL     1       2.497   7.234  21.312  0.00  0.00    +0.000 HD
BRANCH  19  21
ATOM     21  C   UNL     1       2.315   6.299  19.493  0.00  0.00    +0.000 C 
ATOM     22  C   UNL     1       3.035   5.100  20.115  0.00  0.00    +0.000 C 
ATOM     23  C   UNL     1       4.428   4.772  19.562  0.00  0.00    +0.000 C 
ATOM     24  N   UNL     1       4.571   4.961  18.110  0.00  0.00    +0.000 NA
ATOM     25  C   UNL     1       4.163   6.326  17.738  0.00  0.00    +0.000 C 
ATOM     26  C   UNL     1       2.693   6.579  18.047  0.00  0.00    +0.000 C 
BRANCH  24  27
ATOM     27  C   UNL     1       5.986   4.754  17.691  0.00  0.00    +0.000 C 
BRANCH  27  28
ATOM     28  C   UNL     1       6.191   4.586  16.197  0.00  0.00    +0.000 A 
ATOM     29  C   UNL     1       7.311   5.134  15.556  0.00  0.00    +0.000 A 
ATOM     30  C   UNL     1       7.459   5.029  14.170  0.00  0.00    +0.000 A 
ATOM     31  C   UNL     1       6.499   4.360  13.412  0.00  0.00    +0.000 A 
ATOM     32  C   UNL     1       5.405   3.771  14.041  0.00  0.00    +0.000 A 
ATOM     33  C   UNL     1       5.253   3.879  15.426  0.00  0.00    +0.000 A 
ENDBRANCH  27  28
ENDBRANCH  24  27
ENDBRANCH  19  21
ENDBRANCH   5  19
TORSDOF 4
ENDMDL
MODEL 3
REMARK VINA RESULT:      -8.1      1.338      1.917
REMARK  Name = 
REMARK  4 active torsions:
REMARK  status: ('A' for Active; 'I' for Inactive)
REMARK    1  A    between atoms: C_5  and  N_6
REMARK    2  A    between atoms: N_6  and  C_7
REMARK    3  A    between atoms: N_10  and  C_11
REMARK    4  A    between atoms: C_11  and  C_12
REMARK                            x       y       z     vdW  Elec       q    Type
REMARK                         _______ _______ _______ _____ _____    ______ ____
ROOT
ATOM      1  O   UNL     1      -0.395  11.847  19.173  0.00  0.00    +0.000 OA
ATOM      2  C   UNL     1      -0.152  11.024  20.056  0.00  0.00    +0.000 A 
ATOM      3  C   UNL     1       0.767   9.871  19.740  0.00  0.00    +0.000 A 
ATOM      4 CL   UNL     1       1.654  10.025  18.260  0.00  0.00    +0.000 Cl
ATOM      5  C   UNL     1       1.006   8.853  20.582  0.00  0.00    +0.000 A 
ATOM      6  C   UNL     1       0.333   9.062  21.902  0.00  0.00    +0.000 A 
ATOM      7  N   UNL     1      -0.380  10.067  22.296  0.00  0.00    +0.000 NA
ATOM      8  N   UNL     1      -0.618  11.065  21.374  0.00  0.00    +0.000 N 
ATOM      9  C   UNL     1      -1.356  12.170  21.821  0.00  0.00    +0.000 A 
ATOM     10  N   UNL     1      -1.843  13.194  21.156  0.00  0.00    +0.000 NA
ATOM     11  C   UNL     1      -2.426  14.031  22.082  0.00  0.00    +0.000 A 
ATOM     12  C   UNL     1      -3.098  15.256  21.913  0.00  0.00    +0.000 A 
ATOM     13  C   UNL     1      -3.564  15.936  23.048  0.00  0.00    +0.000 A 
ATOM     14  C   UNL     1      -3.361  15.414  24.324  0.00  0.00    +0.000 A 
ATOM     15  C   UNL     1      -2.717  14.183  24.513  0.00  0.00    +0.000 A 
ATOM     16  C   UNL     1      -2.277  13.517  23.363  0.00  0.00    +0.000 A 
ATOM     17  N   UNL     1      -1.650  12.315  23.163  0.00  0.00    +0.000 N 
ATOM     18  H   UNL     1      -1.383  11.645  23.866  0.00  0.00    +0.000 HD
ENDROOT
BRANCH   5  19
ATOM     19  N   UNL     1       1.923   7.793  20.490  0.00  0.00    +0.000 N 
ATOM     20  H   UNL     1       2.303   7.570  21.411  0.00  0.00    +0.000 HD
BRANCH  19  21
ATOM     21  C   UNL     1       1.882   6.546  19.682  0.00  0.00    +0.000 C 
ATOM     22  C   UNL     1       2.268   5.267  20.430  0.00  0.00    +0.000 C 
ATOM     23  C   UNL     1       3.604   4.621  20.045  0.00  0.00    +0.000 C 
ATOM     24  N   UNL     1       3.921   4.678  18.609  0.00  0.00    +0.000 NA
ATOM     25  C   UNL     1       3.852   6.070  18.135  0.00  0.00    +0.000 C 
ATOM     26  C   UNL     1       2.447   6.644  18.273  0.00  0.00    +0.000 C 
BRANCH  24  27
ATOM     27  C   UNL     1       5.293   4.154  18.354  0.00  0.00    +0.000 C 
BRANCH  27  28
ATOM     28  C   UNL     1       5.801   4.360  16.939  0.00  0.00    +0.000 A 
ATOM     29  C   UNL     1       5.029   3.980  15.832  0.00  0.00    +0.000 A 
ATOM     30  C   UNL     1       5.533   4.114  14.535  0.00  0.00    +0.000 A 
ATOM     31  C   UNL     1       6.806   4.645  14.329  0.00  0.00    +0.000 A 
ATOM     32  C   UNL     1       7.565   5.068  15.417  0.00  0.00    +0.000 A 
ATOM     33  C   UNL     1       7.065   4.931  16.714  0.00  0.00    +0.000 A 
ENDBRANCH  27  28
ENDBRANCH  24  27
ENDBRANCH  19  21
ENDBRANCH   5  19
TORSDOF 4
ENDMDL
MODEL 4
REMARK VINA RESULT:      -8.0      0.538      1.019
REMARK  Name = 
REMARK  4 active torsions:
REMARK  status: ('A' for Active; 'I' for Inactive)
REMARK    1  A    between atoms: C_5  and  N_6
REMARK    2  A    between atoms: N_6  and  C_7
REMARK    3  A    between atoms: N_10  and  C_11
REMARK    4  A    between atoms: C_11  and  C_12
REMARK                            x       y       z     vdW  Elec       q    Type
REMARK                         _______ _______ _______ _____ _____    ______ ____
ROOT
ATOM      1  O   UNL     1       0.898  10.153  18.223  0.00  0.00    +0.000 OA
ATOM      2  C   UNL     1       1.072   9.362  19.151  0.00  0.00    +0.000 A 
ATOM      3  C   UNL     1       2.078   8.252  18.977  0.00  0.00    +0.000 A 
ATOM      4 CL   UNL     1       3.129   8.421  17.610  0.00  0.00    +0.000 Cl
ATOM      5  C   UNL     1       2.264   7.265  19.869  0.00  0.00    +0.000 A 
ATOM      6  C   UNL     1       1.427   7.467  21.094  0.00  0.00    +0.000 A 
ATOM      7  N   UNL     1       0.623   8.441  21.372  0.00  0.00    +0.000 NA
ATOM      8  N   UNL     1       0.449   9.406  20.402  0.00  0.00    +0.000 N 
ATOM      9  C   UNL     1      -0.390  10.481  20.728  0.00  0.00    +0.000 A 
ATOM     10  N   UNL     1      -0.843  11.464  19.982  0.00  0.00    +0.000 NA
ATOM     11  C   UNL     1      -1.574  12.289  20.809  0.00  0.00    +0.000 A 
ATOM     12  C   UNL     1      -2.279  13.474  20.528  0.00  0.00    +0.000 A 
ATOM     13  C   UNL     1      -2.912  14.153  21.580  0.00  0.00    +0.000 A 
ATOM     14  C   UNL     1      -2.838  13.669  22.885  0.00  0.00    +0.000 A 
ATOM     15  C   UNL     1      -2.163  12.477  23.183  0.00  0.00    +0.000 A 
ATOM     16  C   UNL     1      -1.554  11.810  22.112  0.00  0.00    +0.000 A 
ATOM     17  N   UNL     1      -0.850  10.638  22.021  0.00  0.00    +0.000 N 
ATOM     18  H   UNL     1      -0.637   9.998  22.769  0.00  0.00    +0.000 HD
ENDROOT
BRANCH   5  19
ATOM     19  N   UNL     1       3.235   6.253  19.916  0.00  0.00    +0.000 N 
ATOM     20  H   UNL     1       3.302   5.867  20.859  0.00  0.00    +0.000 HD
BRANCH  19  21
ATOM     21  C   UNL     1       3.560   5.177  18.942  0.00  0.00    +0.000 C 
ATOM     22  C   UNL     1       4.801   4.345  19.274  0.00  0.00    +0.000 C 
ATOM     23  C   UNL     1       6.024   4.543  18.369  0.00  0.00    +0.000 C 
ATOM     24  N   UNL     1       5.708   4.737  16.946  0.00  0.00    +0.000 NA
ATOM     25  C   UNL     1       4.751   5.845  16.790  0.00  0.00    +0.000 C 
ATOM     26  C   UNL     1       3.422   5.543  17.472  0.00  0.00    +0.000 C 
BRANCH  24  27
ATOM     27  C   UNL     1       6.941   5.059  16.174  0.00  0.00    +0.000 C 
BRANCH  27  28
ATOM     28  C   UNL     1       6.889   4.689  14.704  0.00  0.00    +0.000 A 
ATOM     29  C   UNL     1       7.759   5.284  13.778  0.00  0.00    +0.000 A 
ATOM     30  C   UNL     1       7.661   4.985  12.416  0.00  0.00    +0.000 A 
ATOM     31  C   UNL     1       6.704   4.075  11.966  0.00  0.00    +0.000 A 
ATOM     32  C   UNL     1       5.864   3.443  12.880  0.00  0.00    +0.000 A 
ATOM     33  C   UNL     1       5.958   3.744  14.241  0.00  0.00    +0.000 A 
ENDBRANCH  27  28
ENDBRANCH  24  27
ENDBRANCH  19  21
ENDBRANCH   5  19
TORSDOF 4
ENDMDL
MODEL 5
REMARK VINA RESULT:      -8.0      2.163     11.275
REMARK  Name = 
REMARK  4 active torsions:
REMARK  status: ('A' for Active; 'I' for Inactive)
REMARK    1  A    between atoms: C_5  and  N_6
REMARK    2  A    between atoms: N_6  and  C_7
REMARK    3  A    between atoms: N_10  and  C_11
REMARK    4  A    between atoms: C_11  and  C_12
REMARK                            x       y       z     vdW  Elec       q    Type
REMARK                         _______ _______ _______ _____ _____    ______ ____
ROOT
ATOM      1  O   UNL     1       2.078   9.775  17.376  0.00  0.00    +0.000 OA
ATOM      2  C   UNL     1       1.750   9.307  18.467  0.00  0.00    +0.000 A 
ATOM      3  C   UNL     1       0.702  10.028  19.279  0.00  0.00    +0.000 A 
ATOM      4 CL   UNL     1      -0.173  11.254  18.424  0.00  0.00    +0.000 Cl
ATOM      5  C   UNL     1       0.355   9.680  20.529  0.00  0.00    +0.000 A 
ATOM      6  C   UNL     1       1.058   8.433  20.968  0.00  0.00    +0.000 A 
ATOM      7  N   UNL     1       1.884   7.694  20.301  0.00  0.00    +0.000 NA
ATOM      8  N   UNL     1       2.228   8.122  19.036  0.00  0.00    +0.000 N 
ATOM      9  C   UNL     1       3.090   7.294  18.305  0.00  0.00    +0.000 A 
ATOM     10  N   UNL     1       3.686   7.493  17.150  0.00  0.00    +0.000 NA
ATOM     11  C   UNL     1       4.368   6.335  16.848  0.00  0.00    +0.000 A 
ATOM     12  C   UNL     1       5.174   6.010  15.741  0.00  0.00    +0.000 A 
ATOM     13  C   UNL     1       5.724   4.722  15.655  0.00  0.00    +0.000 A 
ATOM     14  C   UNL     1       5.472   3.775  16.646  0.00  0.00    +0.000 A 
ATOM     15  C   UNL     1       4.694   4.085  17.770  0.00  0.00    +0.000 A 
ATOM     16  C   UNL     1       4.171   5.382  17.838  0.00  0.00    +0.000 A 
ATOM     17  N   UNL     1       3.409   6.034  18.773  0.00  0.00    +0.000 N 
ATOM     18  H   UNL     1       3.073   5.664  19.647  0.00  0.00    +0.000 HD
ENDROOT
BRANCH   5  19
ATOM     19  N   UNL     1      -0.677  10.158  21.352  0.00  0.00    +0.000 N 
ATOM     20  H   UNL     1      -1.087   9.392  21.890  0.00  0.00    +0.000 HD
BRANCH  19  21
ATOM     21  C   UNL     1      -0.775  11.404  22.156  0.00  0.00    +0.000 C 
ATOM     22  C   UNL     1      -1.782  11.364  23.308  0.00  0.00    +0.000 C 
ATOM     23  C   UNL     1      -3.045  12.220  23.149  0.00  0.00    +0.000 C 
ATOM     24  N   UNL     1      -2.825  13.521  22.497  0.00  0.00    +0.000 NA
ATOM     25  C   UNL     1      -2.152  13.326  21.202  0.00  0.00    +0.000 C 
ATOM     26  C   UNL     1      -0.770  12.707  21.371  0.00  0.00    +0.000 C 
BRANCH  24  27
ATOM     27  C   UNL     1      -4.122  14.216  22.262  0.00  0.00    +0.000 C 
BRANCH  27  28
ATOM     28  C   UNL     1      -5.300  13.297  21.998  0.00  0.00    +0.000 A 
ATOM     29  C   UNL     1      -5.371  12.534  20.823  0.00  0.00    +0.000 A 
ATOM     30  C   UNL     1      -6.491  11.740  20.559  0.00  0.00    +0.000 A 
ATOM     31  C   UNL     1      -7.543  11.686  21.473  0.00  0.00    +0.000 A 
ATOM     32  C   UNL     1      -7.465  12.403  22.664  0.00  0.00    +0.000 A 
ATOM     33  C   UNL     1      -6.349  13.201  22.928  0.00  0.00    +0.000 A 
ENDBRANCH  27  28
ENDBRANCH  24  27
ENDBRANCH  19  21
ENDBRANCH   5  19
TORSDOF 4
ENDMDL
MODEL 6
REMARK VINA RESULT:      -8.0      1.765      2.804
REMARK  Name = 
REMARK  4 active torsions:
REMARK  status: ('A' for Active; 'I' for Inactive)
REMARK    1  A    between atoms: C_5  and  N_6
REMARK    2  A    between atoms: N_6  and  C_7
REMARK    3  A    between atoms: N_10  and  C_11
REMARK    4  A    between atoms: C_11  and  C_12
REMARK                            x       y       z     vdW  Elec       q    Type
REMARK                         _______ _______ _______ _____ _____    ______ ____
ROOT
ATOM      1  O   UNL     1       2.572   8.922  17.071  0.00  0.00    +0.000 OA
ATOM      2  C   UNL     1       2.679   8.147  18.022  0.00  0.00    +0.000 A 
ATOM      3  C   UNL     1       3.749   7.085  17.975  0.00  0.00    +0.000 A 
ATOM      4 CL   UNL     1       4.937   7.295  16.731  0.00  0.00    +0.000 Cl
ATOM      5  C   UNL     1       3.880   6.114  18.893  0.00  0.00    +0.000 A 
ATOM      6  C   UNL     1       2.904   6.284  20.015  0.00  0.00    +0.000 A 
ATOM      7  N   UNL     1       2.029   7.220  20.191  0.00  0.00    +0.000 NA
ATOM      8  N   UNL     1       1.919   8.169  19.196  0.00  0.00    +0.000 N 
ATOM      9  C   UNL     1       0.999   9.204  19.414  0.00  0.00    +0.000 A 
ATOM     10  N   UNL     1       0.586  10.159  18.611  0.00  0.00    +0.000 NA
ATOM     11  C   UNL     1      -0.270  10.954  19.341  0.00  0.00    +0.000 A 
ATOM     12  C   UNL     1      -0.995  12.101  18.970  0.00  0.00    +0.000 A 
ATOM     13  C   UNL     1      -1.772  12.756  19.937  0.00  0.00    +0.000 A 
ATOM     14  C   UNL     1      -1.822  12.285  21.247  0.00  0.00    +0.000 A 
ATOM     15  C   UNL     1      -1.128  11.129  21.632  0.00  0.00    +0.000 A 
ATOM     16  C   UNL     1      -0.374  10.485  20.644  0.00  0.00    +0.000 A 
ATOM     17  N   UNL     1       0.391   9.348  20.645  0.00  0.00    +0.000 N 
ATOM     18  H   UNL     1       0.549   8.723  21.420  0.00  0.00    +0.000 HD
ENDROOT
BRANCH   5  19
ATOM     19  N   UNL     1       4.887   5.150  19.060  0.00  0.00    +0.000 N 
ATOM     20  H   UNL     1       4.836   4.740  19.994  0.00  0.00    +0.000 HD
BRANCH  19  21
ATOM     21  C   UNL     1       5.407   4.122  18.121  0.00  0.00    +0.000 C 
ATOM     22  C   UNL     1       6.851   4.327  17.657  0.00  0.00    +0.000 C 
ATOM     23  C   UNL     1       7.053   4.732  16.192  0.00  0.00    +0.000 C 
ATOM     24  N   UNL     1       6.131   4.086  15.245  0.00  0.00    +0.000 NA
ATOM     25  C   UNL     1       4.739   4.309  15.668  0.00  0.00    +0.000 C 
ATOM     26  C   UNL     1       4.452   3.675  17.024  0.00  0.00    +0.000 C 
BRANCH  24  27
ATOM     27  C   UNL     1       6.310   4.644  13.875  0.00  0.00    +0.000 C 
BRANCH  27  28
ATOM     28  C   UNL     1       6.227   3.625  12.754  0.00  0.00    +0.000 A 
ATOM     29  C   UNL     1       4.988   3.219  12.238  0.00  0.00    +0.000 A 
ATOM     30  C   UNL     1       4.920   2.232  11.250  0.00  0.00    +0.000 A 
ATOM     31  C   UNL     1       6.088   1.654  10.755  0.00  0.00    +0.000 A 
ATOM     32  C   UNL     1       7.327   2.080  11.227  0.00  0.00    +0.000 A 
ATOM     33  C   UNL     1       7.397   3.063  12.217  0.00  0.00    +0.000 A 
ENDBRANCH  27  28
ENDBRANCH  24  27
ENDBRANCH  19  21
ENDBRANCH   5  19
TORSDOF 4
ENDMDL
MODEL 7
REMARK VINA RESULT:      -7.9      1.430      2.155
REMARK  Name = 
REMARK  4 active torsions:
REMARK  status: ('A' for Active; 'I' for Inactive)
REMARK    1  A    between atoms: C_5  and  N_6
REMARK    2  A    between atoms: N_6  and  C_7
REMARK    3  A    between atoms: N_10  and  C_11
REMARK    4  A    between atoms: C_11  and  C_12
REMARK                            x       y       z     vdW  Elec       q    Type
REMARK                         _______ _______ _______ _____ _____    ______ ____
ROOT
ATOM      1  O   UNL     1       0.475   8.501  22.189  0.00  0.00    +0.000 OA
ATOM      2  C   UNL     1       0.763   8.808  21.031  0.00  0.00    +0.000 A 
ATOM      3  C   UNL     1       1.592   7.851  20.212  0.00  0.00    +0.000 A 
ATOM      4 CL   UNL     1       1.759   6.264  20.885  0.00  0.00    +0.000 Cl
ATOM      5  C   UNL     1       2.065   8.132  18.987  0.00  0.00    +0.000 A 
ATOM      6  C   UNL     1       1.579   9.462  18.502  0.00  0.00    +0.000 A 
ATOM      7  N   UNL     1       0.782  10.295  19.089  0.00  0.00    +0.000 NA
ATOM      8  N   UNL     1       0.357   9.966  20.359  0.00  0.00    +0.000 N 
ATOM      9  C   UNL     1      -0.539  10.853  20.972  0.00  0.00    +0.000 A 
ATOM     10  N   UNL     1      -1.007  10.877  22.200  0.00  0.00    +0.000 NA
ATOM     11  C   UNL     1      -1.909  11.917  22.263  0.00  0.00    +0.000 A 
ATOM     12  C   UNL     1      -2.688  12.389  23.336  0.00  0.00    +0.000 A 
ATOM     13  C   UNL     1      -3.574  13.454  23.115  0.00  0.00    +0.000 A 
ATOM     14  C   UNL     1      -3.688  14.033  21.852  0.00  0.00    +0.000 A 
ATOM     15  C   UNL     1      -2.903  13.596  20.777  0.00  0.00    +0.000 A 
ATOM     16  C   UNL     1      -2.016  12.543  21.028  0.00  0.00    +0.000 A 
ATOM     17  N   UNL     1      -1.097  11.889  20.249  0.00  0.00    +0.000 N 
ATOM     18  H   UNL     1      -0.880  12.073  19.283  0.00  0.00    +0.000 HD
ENDROOT
BRANCH   5  19
ATOM     19  N   UNL     1       2.725   7.313  18.058  0.00  0.00    +0.000 N 
ATOM     20  H   UNL     1       2.393   7.507  17.112  0.00  0.00    +0.000 HD
BRANCH  19  21
ATOM     21  C   UNL     1       4.149   6.891  17.980  0.00  0.00    +0.000 C 
ATOM     22  C   UNL     1       4.845   7.177  16.646  0.00  0.00    +0.000 C 
ATOM     23  C   UNL     1       5.185   5.962  15.773  0.00  0.00    +0.000 C 
ATOM     24  N   UNL     1       5.630   4.776  16.521  0.00  0.00    +0.000 NA
ATOM     25  C   UNL     1       4.634   4.426  17.548  0.00  0.00    +0.000 C 
ATOM     26  C   UNL     1       4.478   5.534  18.582  0.00  0.00    +0.000 C 
BRANCH  24  27
ATOM     27  C   UNL     1       5.800   3.613  15.605  0.00  0.00    +0.000 C 
BRANCH  27  28
ATOM     28  C   UNL     1       6.318   3.959  14.222  0.00  0.00    +0.000 A 
ATOM     29  C   UNL     1       5.764   3.372  13.076  0.00  0.00    +0.000 A 
ATOM     30  C   UNL     1       6.290   3.649  11.810  0.00  0.00    +0.000 A 
ATOM     31  C   UNL     1       7.363   4.528  11.675  0.00  0.00    +0.000 A 
ATOM     32  C   UNL     1       7.894   5.154  12.801  0.00  0.00    +0.000 A 
ATOM     33  C   UNL     1       7.372   4.875  14.066  0.00  0.00    +0.000 A 
ENDBRANCH  27  28
ENDBRANCH  24  27
ENDBRANCH  19  21
ENDBRANCH   5  19
TORSDOF 4
ENDMDL
MODEL 8
REMARK VINA RESULT:      -7.9      3.275     11.028
REMARK  Name = 
REMARK  4 active torsions:
REMARK  status: ('A' for Active; 'I' for Inactive)
REMARK    1  A    between atoms: C_5  and  N_6
REMARK    2  A    between atoms: N_6  and  C_7
REMARK    3  A    between atoms: N_10  and  C_11
REMARK    4  A    between atoms: C_11  and  C_12
REMARK                            x       y       z     vdW  Elec       q    Type
REMARK                         _______ _______ _______ _____ _____    ______ ____
ROOT
ATOM      1  O   UNL     1       0.812   8.080  21.414  0.00  0.00    +0.000 OA
ATOM      2  C   UNL     1       1.161   8.579  20.343  0.00  0.00    +0.000 A 
ATOM      3  C   UNL     1       0.879  10.040  20.098  0.00  0.00    +0.000 A 
ATOM      4 CL   UNL     1       0.397  10.939  21.498  0.00  0.00    +0.000 Cl
ATOM      5  C   UNL     1       1.104  10.658  18.927  0.00  0.00    +0.000 A 
ATOM      6  C   UNL     1       1.764   9.745  17.941  0.00  0.00    +0.000 A 
ATOM      7  N   UNL     1       2.139   8.518  18.101  0.00  0.00    +0.000 NA
ATOM      8  N   UNL     1       1.849   7.928  19.314  0.00  0.00    +0.000 N 
ATOM      9  C   UNL     1       2.296   6.611  19.495  0.00  0.00    +0.000 A 
ATOM     10  N   UNL     1       2.064   5.760  20.469  0.00  0.00    +0.000 NA
ATOM     11  C   UNL     1       2.798   4.627  20.193  0.00  0.00    +0.000 A 
ATOM     12  C   UNL     1       2.910   3.414  20.899  0.00  0.00    +0.000 A 
ATOM     13  C   UNL     1       3.776   2.424  20.413  0.00  0.00    +0.000 A 
ATOM     14  C   UNL     1       4.523   2.637  19.255  0.00  0.00    +0.000 A 
ATOM     15  C   UNL     1       4.407   3.827  18.524  0.00  0.00    +0.000 A 
ATOM     16  C   UNL     1       3.523   4.792  19.021  0.00  0.00    +0.000 A 
ATOM     17  N   UNL     1       3.142   6.030  18.571  0.00  0.00    +0.000 N 
ATOM     18  H   UNL     1       3.452   6.493  17.732  0.00  0.00    +0.000 HD
ENDROOT
BRANCH   5  19
ATOM     19  N   UNL     1       1.022  12.018  18.587  0.00  0.00    +0.000 N 
ATOM     20  H   UNL     1       1.644  12.228  17.804  0.00  0.00    +0.000 HD
BRANCH  19  21
ATOM     21  C   UNL     1      -0.152  12.927  18.511  0.00  0.00    +0.000 C 
ATOM     22  C   UNL     1      -0.220  14.001  19.599  0.00  0.00    +0.000 C 
ATOM     23  C   UNL     1      -1.319  13.841  20.657  0.00  0.00    +0.000 C 
ATOM     24  N   UNL     1      -2.598  13.330  20.140  0.00  0.00    +0.000 NA
ATOM     25  C   UNL     1      -2.377  12.069  19.412  0.00  0.00    +0.000 C 
ATOM     26  C   UNL     1      -1.487  12.270  18.192  0.00  0.00    +0.000 C 
BRANCH  24  27
ATOM     27  C   UNL     1      -3.552  13.076  21.256  0.00  0.00    +0.000 C 
BRANCH  27  28
ATOM     28  C   UNL     1      -5.011  13.310  20.914  0.00  0.00    +0.000 A 
ATOM     29  C   UNL     1      -5.999  12.394  21.304  0.00  0.00    +0.000 A 
ATOM     30  C   UNL     1      -7.333  12.585  20.930  0.00  0.00    +0.000 A 
ATOM     31  C   UNL     1      -7.696  13.701  20.176  0.00  0.00    +0.000 A 
ATOM     32  C   UNL     1      -6.732  14.641  19.820  0.00  0.00    +0.000 A 
ATOM     33  C   UNL     1      -5.399  14.450  20.190  0.00  0.00    +0.000 A 
ENDBRANCH  27  28
ENDBRANCH  24  27
ENDBRANCH  19  21
ENDBRANCH   5  19
TORSDOF 4
ENDMDL
MODEL 9
REMARK VINA RESULT:      -7.9      4.494      9.478
REMARK  Name = 
REMARK  4 active torsions:
REMARK  status: ('A' for Active; 'I' for Inactive)
REMARK    1  A    between atoms: C_5  and  N_6
REMARK    2  A    between atoms: N_6  and  C_7
REMARK    3  A    between atoms: N_10  and  C_11
REMARK    4  A    between atoms: C_11  and  C_12
REMARK                            x       y       z     vdW  Elec       q    Type
REMARK                         _______ _______ _______ _____ _____    ______ ____
ROOT
ATOM      1  O   UNL     1       1.400   7.336  21.217  0.00  0.00    +0.000 OA
ATOM      2  C   UNL     1       1.283   8.356  20.536  0.00  0.00    +0.000 A 
ATOM      3  C   UNL     1       0.572   9.546  21.130  0.00  0.00    +0.000 A 
ATOM      4 CL   UNL     1       0.299   9.461  22.839  0.00  0.00    +0.000 Cl
ATOM      5  C   UNL     1       0.280  10.662  20.443  0.00  0.00    +0.000 A 
ATOM      6  C   UNL     1       0.840  10.615  19.055  0.00  0.00    +0.000 A 
ATOM      7  N   UNL     1       1.550   9.687  18.501  0.00  0.00    +0.000 NA
ATOM      8  N   UNL     1       1.788   8.551  19.247  0.00  0.00    +0.000 N 
ATOM      9  C   UNL     1       2.594   7.568  18.655  0.00  0.00    +0.000 A 
ATOM     10  N   UNL     1       2.883   6.350  19.056  0.00  0.00    +0.000 NA
ATOM     11  C   UNL     1       3.774   5.831  18.143  0.00  0.00    +0.000 A 
ATOM     12  C   UNL     1       4.396   4.569  18.086  0.00  0.00    +0.000 A 
ATOM     13  C   UNL     1       5.311   4.309  17.056  0.00  0.00    +0.000 A 
ATOM     14  C   UNL     1       5.608   5.284  16.106  0.00  0.00    +0.000 A 
ATOM     15  C   UNL     1       4.981   6.537  16.128  0.00  0.00    +0.000 A 
ATOM     16  C   UNL     1       4.060   6.766  17.157  0.00  0.00    +0.000 A 
ATOM     17  N   UNL     1       3.257   7.831  17.473  0.00  0.00    +0.000 N 
ATOM     18  H   UNL     1       3.180   8.702  16.973  0.00  0.00    +0.000 HD
ENDROOT
BRANCH   5  19
ATOM     19  N   UNL     1      -0.248  11.887  20.880  0.00  0.00    +0.000 N 
ATOM     20  H   UNL     1      -0.739  11.768  21.768  0.00  0.00    +0.000 HD
BRANCH  19  21
ATOM     21  C   UNL     1       0.327  13.258  20.842  0.00  0.00    +0.000 C 
ATOM     22  C   UNL     1      -0.200  14.159  19.722  0.00  0.00    +0.000 C 
ATOM     23  C   UNL     1       0.779  14.493  18.589  0.00  0.00    +0.000 C 
ATOM     24  N   UNL     1       2.168  14.707  19.023  0.00  0.00    +0.000 NA
ATOM     25  C   UNL     1       2.636  13.547  19.800  0.00  0.00    +0.000 C 
ATOM     26  C   UNL     1       1.826  13.360  21.078  0.00  0.00    +0.000 C 
BRANCH  24  27
ATOM     27  C   UNL     1       3.064  14.885  17.846  0.00  0.00    +0.000 C 
BRANCH  27  28
ATOM     28  C   UNL     1       4.453  15.401  18.172  0.00  0.00    +0.000 A 
ATOM     29  C   UNL     1       4.633  16.640  18.803  0.00  0.00    +0.000 A 
ATOM     30  C   UNL     1       5.918  17.136  19.042  0.00  0.00    +0.000 A 
ATOM     31  C   UNL     1       7.037  16.391  18.669  0.00  0.00    +0.000 A 
ATOM     32  C   UNL     1       6.872  15.139  18.083  0.00  0.00    +0.000 A 
ATOM     33  C   UNL     1       5.589  14.644  17.839  0.00  0.00    +0.000 A 
ENDBRANCH  27  28
ENDBRANCH  24  27
ENDBRANCH  19  21
ENDBRANCH   5  19
TORSDOF 4
ENDMDL
