MODEL 1
REMARK VINA RESULT:      -8.5      0.000      0.000
REMARK  Name = 
REMARK  7 active torsions:
REMARK  status: ('A' for Active; 'I' for Inactive)
REMARK    1  A    between atoms: C_1  and  C_2
REMARK    2  A    between atoms: C_2  and  C_3
REMARK    3  A    between atoms: C_2  and  N_4
REMARK    4  A    between atoms: C_8  and  C_9
REMARK    5  A    between atoms: C_14  and  N_15
REMARK    6  A    between atoms: N_18  and  C_19
REMARK    7  A    between atoms: C_27  and  O_28
REMARK                            x       y       z     vdW  Elec       q    Type
REMARK                         _______ _______ _______ _____ _____    ______ ____
ROOT
ATOM      1  N   UNL     1       1.832   9.383  18.938  0.00  0.00    +0.000 N 
ATOM      2  C   UNL     1       2.385   8.346  18.202  0.00  0.00    +0.000 C 
ATOM      3  O   UNL     1       2.774   8.503  17.052  0.00  0.00    +0.000 OA
ATOM      4  N   UNL     1       2.547   7.172  18.885  0.00  0.00    +0.000 N 
ATOM      5  H   UNL     1       2.204  10.292  18.669  0.00  0.00    +0.000 HD
ATOM      6  H   UNL     1       2.096   7.211  19.776  0.00  0.00    +0.000 HD
ENDROOT
BRANCH   4   7
ATOM      7  C   UNL     1       2.483   5.883  18.246  0.00  0.00    +0.000 C 
ATOM      8  C   UNL     1       2.259   4.773  19.247  0.00  0.00    +0.000 A 
ATOM      9  C   UNL     1       1.824   4.834  20.563  0.00  0.00    +0.000 A 
ATOM     10  C   UNL     1       1.410   3.660  21.176  0.00  0.00    +0.000 A 
ATOM     11  C   UNL     1       1.449   2.451  20.471  0.00  0.00    +0.000 A 
ATOM     12  C   UNL     1       2.030   2.378  19.200  0.00  0.00    +0.000 A 
ATOM     13  C   UNL     1       2.498   3.546  18.625  0.00  0.00    +0.000 A 
ATOM     14  C   UNL     1       3.261   3.757  17.339  0.00  0.00    +0.000 C 
ATOM     15  C   UNL     1       3.667   5.267  17.450  0.00  0.00    +0.000 C 
BRANCH  15  16
ATOM     16  O   UNL     1       4.937   5.366  18.116  0.00  0.00    +0.000 OA
ATOM     17  H   UNL     1       5.632   5.352  17.435  0.00  0.00    +0.000 HD
ENDBRANCH  15  16
ENDBRANCH   4   7
BRANCH   1  23
ATOM     18  C   UNL     1       0.101  10.404  20.398  0.00  0.00    +0.000 A 
ATOM     19  C   UNL     1      -0.492  10.405  21.678  0.00  0.00    +0.000 A 
ATOM     20  C   UNL     1      -0.336   9.353  22.579  0.00  0.00    +0.000 A 
ATOM     21  C   UNL     1       0.395   8.249  22.197  0.00  0.00    +0.000 A 
ATOM     22  C   UNL     1       1.038   8.231  20.961  0.00  0.00    +0.000 A 
ATOM     23  C   UNL     1       0.997   9.344  20.094  0.00  0.00    +0.000 A 
BRANCH  18  28
ATOM     24  N   UNL     1      -1.215  11.618  18.538  0.00  0.00    +0.000 N 
ATOM     25  N   UNL     1      -1.117  12.793  17.889  0.00  0.00    +0.000 NA
ATOM     26  N   UNL     1      -0.007  13.355  18.330  0.00  0.00    +0.000 NA
ATOM     27  N   UNL     1       0.595  12.571  19.276  0.00  0.00    +0.000 NA
ATOM     28  C   UNL     1      -0.171  11.504  19.452  0.00  0.00    +0.000 A 
BRANCH  24  30
ATOM     29  C   UNL     1      -3.651  11.452  18.182  0.00  0.00    +0.000 C 
ATOM     30  C   UNL     1      -2.307  10.715  18.206  0.00  0.00    +0.000 C 
ATOM     31  C   UNL     1      -2.119   9.967  16.878  0.00  0.00    +0.000 C 
ENDBRANCH  24  30
ENDBRANCH  18  28
ENDBRANCH   1  23
TORSDOF 5
ENDMDL
MODEL 2
REMARK VINA RESULT:      -8.5      2.557      7.570
REMARK  Name = 
REMARK  7 active torsions:
REMARK  status: ('A' for Active; 'I' for Inactive)
REMARK    1  A    between atoms: C_1  and  C_2
REMARK    2  A    between atoms: C_2  and  C_3
REMARK    3  A    between atoms: C_2  and  N_4
REMARK    4  A    between atoms: C_8  and  C_9
REMARK    5  A    between atoms: C_14  and  N_15
REMARK    6  A    between atoms: N_18  and  C_19
REMARK    7  A    between atoms: C_27  and  O_28
REMARK                            x       y       z     vdW  Elec       q    Type
REMARK                         _______ _______ _______ _____ _____    ______ ____
ROOT
ATOM      1  N   UNL     1       2.971   6.904  17.862  0.00  0.00    +0.000 N 
ATOM      2  C   UNL     1       2.498   8.208  17.883  0.00  0.00    +0.000 C 
ATOM      3  O   UNL     1       2.858   9.042  17.063  0.00  0.00    +0.000 OA
ATOM      4  N   UNL     1       1.535   8.460  18.822  0.00  0.00    +0.000 N 
ATOM      5  H   UNL     1       3.210   6.592  16.923  0.00  0.00    +0.000 HD
ATOM      6  H   UNL     1       1.436   7.688  19.449  0.00  0.00    +0.000 HD
ENDROOT
BRANCH   4   7
ATOM      7  C   UNL     1       1.370   9.749  19.442  0.00  0.00    +0.000 C 
ATOM      8  C   UNL     1       0.457   9.679  20.644  0.00  0.00    +0.000 A 
ATOM      9  C   UNL     1       0.030   8.581  21.377  0.00  0.00    +0.000 A 
ATOM     10  C   UNL     1      -0.558   8.802  22.613  0.00  0.00    +0.000 A 
ATOM     11  C   UNL     1      -0.721  10.109  23.088  0.00  0.00    +0.000 A 
ATOM     12  C   UNL     1      -0.427  11.211  22.276  0.00  0.00    +0.000 A 
ATOM     13  C   UNL     1       0.101  10.976  21.019  0.00  0.00    +0.000 A 
ATOM     14  C   UNL     1       0.405  11.941  19.898  0.00  0.00    +0.000 C 
ATOM     15  C   UNL     1       0.736  10.968  18.716  0.00  0.00    +0.000 C 
BRANCH  15  16
ATOM     16  O   UNL     1      -0.475  10.662  18.004  0.00  0.00    +0.000 OA
ATOM     17  H   UNL     1      -1.201  10.632  18.651  0.00  0.00    +0.000 HD
ENDBRANCH  15  16
ENDBRANCH   4   7
BRANCH   1  23
ATOM     18  C   UNL     1       3.785   4.745  18.783  0.00  0.00    +0.000 A 
ATOM     19  C   UNL     1       3.553   3.715  19.718  0.00  0.00    +0.000 A 
ATOM     20  C   UNL     1       2.688   3.864  20.800  0.00  0.00    +0.000 A 
ATOM     21  C   UNL     1       2.061   5.076  20.992  0.00  0.00    +0.000 A 
ATOM     22  C   UNL     1       2.225   6.102  20.063  0.00  0.00    +0.000 A 
ATOM     23  C   UNL     1       2.992   5.919  18.893  0.00  0.00    +0.000 A 
BRANCH  18  28
ATOM     24  N   UNL     1       6.011   5.190  17.553  0.00  0.00    +0.000 N 
ATOM     25  N   UNL     1       6.623   4.716  16.453  0.00  0.00    +0.000 NA
ATOM     26  N   UNL     1       5.768   3.877  15.899  0.00  0.00    +0.000 NA
ATOM     27  N   UNL     1       4.624   3.784  16.645  0.00  0.00    +0.000 NA
ATOM     28  C   UNL     1       4.779   4.562  17.706  0.00  0.00    +0.000 A 
BRANCH  24  30
ATOM     29  C   UNL     1       7.712   5.595  19.294  0.00  0.00    +0.000 C 
ATOM     30  C   UNL     1       6.676   6.213  18.348  0.00  0.00    +0.000 C 
ATOM     31  C   UNL     1       7.347   7.314  17.515  0.00  0.00    +0.000 C 
ENDBRANCH  24  30
ENDBRANCH  18  28
ENDBRANCH   1  23
TORSDOF 5
ENDMDL
MODEL 3
REMARK VINA RESULT:      -8.5      2.549      7.460
REMARK  Name = 
REMARK  7 active torsions:
REMARK  status: ('A' for Active; 'I' for Inactive)
REMARK    1  A    between atoms: C_1  and  C_2
REMARK    2  A    between atoms: C_2  and  C_3
REMARK    3  A    between atoms: C_2  and  N_4
REMARK    4  A    between atoms: C_8  and  C_9
REMARK    5  A    between atoms: C_14  and  N_15
REMARK    6  A    between atoms: N_18  and  C_19
REMARK    7  A    between atoms: C_27  and  O_28
REMARK                            x       y       z     vdW  Elec       q    Type
REMARK                         _______ _______ _______ _____ _____    ______ ____
ROOT
ATOM      1  N   UNL     1       3.070   6.597  18.128  0.00  0.00    +0.000 N 
ATOM      2  C   UNL     1       2.670   7.922  18.043  0.00  0.00    +0.000 C 
ATOM      3  O   UNL     1       3.175   8.702  17.245  0.00  0.00    +0.000 OA
ATOM      4  N   UNL     1       1.614   8.261  18.843  0.00  0.00    +0.000 N 
ATOM      5  H   UNL     1       3.406   6.234  17.237  0.00  0.00    +0.000 HD
ATOM      6  H   UNL     1       1.396   7.522  19.480  0.00  0.00    +0.000 HD
ENDROOT
BRANCH   4   7
ATOM      7  C   UNL     1       1.445   9.582  19.392  0.00  0.00    +0.000 C 
ATOM      8  C   UNL     1       0.527   9.576  20.592  0.00  0.00    +0.000 A 
ATOM      9  C   UNL     1       0.099   8.519  21.382  0.00  0.00    +0.000 A 
ATOM     10  C   UNL     1      -0.495   8.806  22.602  0.00  0.00    +0.000 A 
ATOM     11  C   UNL     1      -0.662  10.136  23.004  0.00  0.00    +0.000 A 
ATOM     12  C   UNL     1      -0.366  11.193  22.135  0.00  0.00    +0.000 A 
ATOM     13  C   UNL     1       0.167  10.891  20.894  0.00  0.00    +0.000 A 
ATOM     14  C   UNL     1       0.475  11.795  19.725  0.00  0.00    +0.000 C 
ATOM     15  C   UNL     1       0.812  10.759  18.598  0.00  0.00    +0.000 C 
BRANCH  15  16
ATOM     16  O   UNL     1      -0.395  10.413  17.899  0.00  0.00    +0.000 OA
ATOM     17  H   UNL     1      -0.221   9.607  17.383  0.00  0.00    +0.000 HD
ENDBRANCH  15  16
ENDBRANCH   4   7
BRANCH   1  23
ATOM     18  C   UNL     1       3.954   4.767  19.556  0.00  0.00    +0.000 A 
ATOM     19  C   UNL     1       3.628   3.709  20.431  0.00  0.00    +0.000 A 
ATOM     20  C   UNL     1       2.377   3.592  21.034  0.00  0.00    +0.000 A 
ATOM     21  C   UNL     1       1.430   4.566  20.802  0.00  0.00    +0.000 A 
ATOM     22  C   UNL     1       1.696   5.599  19.906  0.00  0.00    +0.000 A 
ATOM     23  C   UNL     1       2.909   5.656  19.187  0.00  0.00    +0.000 A 
BRANCH  18  28
ATOM     24  N   UNL     1       5.760   4.656  17.714  0.00  0.00    +0.000 N 
ATOM     25  N   UNL     1       7.078   4.915  17.631  0.00  0.00    +0.000 NA
ATOM     26  N   UNL     1       7.461   5.224  18.855  0.00  0.00    +0.000 NA
ATOM     27  N   UNL     1       6.402   5.197  19.720  0.00  0.00    +0.000 NA
ATOM     28  C   UNL     1       5.323   4.889  19.015  0.00  0.00    +0.000 A 
BRANCH  24  30
ATOM     29  C   UNL     1       6.027   3.811  15.411  0.00  0.00    +0.000 C 
ATOM     30  C   UNL     1       5.050   4.202  16.527  0.00  0.00    +0.000 C 
ATOM     31  C   UNL     1       4.086   3.035  16.783  0.00  0.00    +0.000 C 
ENDBRANCH  24  30
ENDBRANCH  18  28
ENDBRANCH   1  23
TORSDOF 5
ENDMDL
MODEL 4
REMARK VINA RESULT:      -8.4      1.050      1.750
REMARK  Name = 
REMARK  7 active torsions:
REMARK  status: ('A' for Active; 'I' for Inactive)
REMARK    1  A    between atoms: C_1  and  C_2
REMARK    2  A    between atoms: C_2  and  C_3
REMARK    3  A    between atoms: C_2  and  N_4
REMARK    4  A    between atoms: C_8  and  C_9
REMARK    5  A    between atoms: C_14  and  N_15
REMARK    6  A    between atoms: N_18  and  C_19
REMARK    7  A    between atoms: C_27  and  O_28
REMARK                            x       y       z     vdW  Elec       q    Type
REMARK                         _______ _______ _______ _____ _____    ______ ____
ROOT
ATOM      1  N   UNL     1       1.733   9.425  18.936  0.00  0.00    +0.000 N 
ATOM      2  C   UNL     1       2.281   8.403  18.175  0.00  0.00    +0.000 C 
ATOM      3  O   UNL     1       2.586   8.561  17.000  0.00  0.00    +0.000 OA
ATOM      4  N   UNL     1       2.539   7.246  18.858  0.00  0.00    +0.000 N 
ATOM      5  H   UNL     1       2.047  10.345  18.634  0.00  0.00    +0.000 HD
ATOM      6  H   UNL     1       2.145   7.277  19.776  0.00  0.00    +0.000 HD
ENDROOT
BRANCH   4   7
ATOM      7  C   UNL     1       2.488   5.947  18.238  0.00  0.00    +0.000 C 
ATOM      8  C   UNL     1       2.269   4.850  19.254  0.00  0.00    +0.000 A 
ATOM      9  C   UNL     1       1.827   4.926  20.567  0.00  0.00    +0.000 A 
ATOM     10  C   UNL     1       1.420   3.758  21.194  0.00  0.00    +0.000 A 
ATOM     11  C   UNL     1       1.473   2.539  20.508  0.00  0.00    +0.000 A 
ATOM     12  C   UNL     1       2.061   2.452  19.240  0.00  0.00    +0.000 A 
ATOM     13  C   UNL     1       2.522   3.617  18.651  0.00  0.00    +0.000 A 
ATOM     14  C   UNL     1       3.289   3.815  17.366  0.00  0.00    +0.000 C 
ATOM     15  C   UNL     1       3.681   5.330  17.456  0.00  0.00    +0.000 C 
BRANCH  15  16
ATOM     16  O   UNL     1       4.947   5.450  18.126  0.00  0.00    +0.000 OA
ATOM     17  H   UNL     1       5.173   6.395  18.168  0.00  0.00    +0.000 HD
ENDBRANCH  15  16
ENDBRANCH   4   7
BRANCH   1  23
ATOM     18  C   UNL     1      -0.269  10.034  20.274  0.00  0.00    +0.000 A 
ATOM     19  C   UNL     1      -0.819  10.136  21.569  0.00  0.00    +0.000 A 
ATOM     20  C   UNL     1      -0.258   9.499  22.675  0.00  0.00    +0.000 A 
ATOM     21  C   UNL     1       0.855   8.707  22.497  0.00  0.00    +0.000 A 
ATOM     22  C   UNL     1       1.457   8.621  21.243  0.00  0.00    +0.000 A 
ATOM     23  C   UNL     1       0.978   9.365  20.144  0.00  0.00    +0.000 A 
BRANCH  18  28
ATOM     24  N   UNL     1      -1.157  12.010  18.871  0.00  0.00    +0.000 N 
ATOM     25  N   UNL     1      -1.798  12.156  17.697  0.00  0.00    +0.000 NA
ATOM     26  N   UNL     1      -2.052  10.933  17.272  0.00  0.00    +0.000 NA
ATOM     27  N   UNL     1      -1.557  10.001  18.143  0.00  0.00    +0.000 NA
ATOM     28  C   UNL     1      -0.955  10.657  19.124  0.00  0.00    +0.000 A 
BRANCH  24  30
ATOM     29  C   UNL     1      -0.244  14.299  18.736  0.00  0.00    +0.000 C 
ATOM     30  C   UNL     1      -0.808  13.197  19.640  0.00  0.00    +0.000 C 
ATOM     31  C   UNL     1      -1.968  13.769  20.468  0.00  0.00    +0.000 C 
ENDBRANCH  24  30
ENDBRANCH  18  28
ENDBRANCH   1  23
TORSDOF 5
ENDMDL
MODEL 5
REMARK VINA RESULT:      -8.3      2.671      7.493
REMARK  Name = 
REMARK  7 active torsions:
REMARK  status: ('A' for Active; 'I' for Inactive)
REMARK    1  A    between atoms: C_1  and  C_2
REMARK    2  A    between atoms: C_2  and  C_3
REMARK    3  A    between atoms: C_2  and  N_4
REMARK    4  A    between atoms: C_8  and  C_9
REMARK    5  A    between atoms: C_14  and  N_15
REMARK    6  A    between atoms: N_18  and  C_19
REMARK    7  A    between atoms: C_27  and  O_28
REMARK                            x       y       z     vdW  Elec       q    Type
REMARK                         _______ _______ _______ _____ _____    ______ ____
ROOT
ATOM      1  N   UNL     1       2.896   8.020  17.640  0.00  0.00    +0.000 N 
ATOM      2  C   UNL     1       2.277   9.247  17.829  0.00  0.00    +0.000 C 
ATOM      3  O   UNL     1       2.541  10.221  17.135  0.00  0.00    +0.000 OA
ATOM      4  N   UNL     1       1.291   9.259  18.777  0.00  0.00    +0.000 N 
ATOM      5  H   UNL     1       3.170   7.869  16.671  0.00  0.00    +0.000 HD
ATOM      6  H   UNL     1       1.279   8.403  19.292  0.00  0.00    +0.000 HD
ENDROOT
BRANCH   4   7
ATOM      7  C   UNL     1       0.979  10.425  19.563  0.00  0.00    +0.000 C 
ATOM      8  C   UNL     1       0.189  10.069  20.801  0.00  0.00    +0.000 A 
ATOM      9  C   UNL     1      -0.001   8.840  21.415  0.00  0.00    +0.000 A 
ATOM     10  C   UNL     1      -0.513   8.820  22.705  0.00  0.00    +0.000 A 
ATOM     11  C   UNL     1      -0.838  10.020  23.348  0.00  0.00    +0.000 A 
ATOM     12  C   UNL     1      -0.785  11.240  22.665  0.00  0.00    +0.000 A 
ATOM     13  C   UNL     1      -0.332  11.239  21.357  0.00  0.00    +0.000 A 
ATOM     14  C   UNL     1      -0.274  12.363  20.350  0.00  0.00    +0.000 C 
ATOM     15  C   UNL     1       0.106  11.598  19.036  0.00  0.00    +0.000 C 
BRANCH  15  16
ATOM     16  O   UNL     1      -1.097  11.181  18.369  0.00  0.00    +0.000 OA
ATOM     17  H   UNL     1      -1.038  11.468  17.441  0.00  0.00    +0.000 HD
ENDBRANCH  15  16
ENDBRANCH   4   7
BRANCH   1  23
ATOM     18  C   UNL     1       3.930   5.849  18.259  0.00  0.00    +0.000 A 
ATOM     19  C   UNL     1       3.813   4.684  19.047  0.00  0.00    +0.000 A 
ATOM     20  C   UNL     1       2.952   4.600  20.140  0.00  0.00    +0.000 A 
ATOM     21  C   UNL     1       2.212   5.707  20.494  0.00  0.00    +0.000 A 
ATOM     22  C   UNL     1       2.262   6.859  19.713  0.00  0.00    +0.000 A 
ATOM     23  C   UNL     1       3.027   6.913  18.528  0.00  0.00    +0.000 A 
BRANCH  18  28
ATOM     24  N   UNL     1       6.253   6.312  17.233  0.00  0.00    +0.000 N 
ATOM     25  N   UNL     1       6.819   6.189  16.018  0.00  0.00    +0.000 NA
ATOM     26  N   UNL     1       5.852   5.798  15.209  0.00  0.00    +0.000 NA
ATOM     27  N   UNL     1       4.678   5.639  15.894  0.00  0.00    +0.000 NA
ATOM     28  C   UNL     1       4.922   5.911  17.167  0.00  0.00    +0.000 A 
BRANCH  24  30
ATOM     29  C   UNL     1       7.854   5.684  19.003  0.00  0.00    +0.000 C 
ATOM     30  C   UNL     1       7.054   6.812  18.340  0.00  0.00    +0.000 C 
ATOM     31  C   UNL     1       8.012   7.949  17.956  0.00  0.00    +0.000 C 
ENDBRANCH  24  30
ENDBRANCH  18  28
ENDBRANCH   1  23
TORSDOF 5
ENDMDL
MODEL 6
REMARK VINA RESULT:      -8.3      2.717      4.195
REMARK  Name = 
REMARK  7 active torsions:
REMARK  status: ('A' for Active; 'I' for Inactive)
REMARK    1  A    between atoms: C_1  and  C_2
REMARK    2  A    between atoms: C_2  and  C_3
REMARK    3  A    between atoms: C_2  and  N_4
REMARK    4  A    between atoms: C_8  and  C_9
REMARK    5  A    between atoms: C_14  and  N_15
REMARK    6  A    between atoms: N_18  and  C_19
REMARK    7  A    between atoms: C_27  and  O_28
REMARK                            x       y       z     vdW  Elec       q    Type
REMARK                         _______ _______ _______ _____ _____    ______ ____
ROOT
ATOM      1  N   UNL     1       1.579   7.069  20.745  0.00  0.00    +0.000 N 
ATOM      2  C   UNL     1       2.011   5.764  20.564  0.00  0.00    +0.000 C 
ATOM      3  O   UNL     1       2.193   5.004  21.506  0.00  0.00    +0.000 OA
ATOM      4  N   UNL     1       2.125   5.368  19.259  0.00  0.00    +0.000 N 
ATOM      5  H   UNL     1       0.998   7.174  21.575  0.00  0.00    +0.000 HD
ATOM      6  H   UNL     1       2.020   6.144  18.639  0.00  0.00    +0.000 HD
ENDROOT
BRANCH   4   7
ATOM      7  C   UNL     1       3.089   4.390  18.824  0.00  0.00    +0.000 C 
ATOM      8  C   UNL     1       3.883   4.879  17.634  0.00  0.00    +0.000 A 
ATOM      9  C   UNL     1       4.029   6.161  17.126  0.00  0.00    +0.000 A 
ATOM     10  C   UNL     1       5.047   6.397  16.213  0.00  0.00    +0.000 A 
ATOM     11  C   UNL     1       5.888   5.350  15.817  0.00  0.00    +0.000 A 
ATOM     12  C   UNL     1       5.636   4.033  16.218  0.00  0.00    +0.000 A 
ATOM     13  C   UNL     1       4.577   3.802  17.079  0.00  0.00    +0.000 A 
ATOM     14  C   UNL     1       4.004   2.500  17.584  0.00  0.00    +0.000 C 
ATOM     15  C   UNL     1       2.696   2.981  18.301  0.00  0.00    +0.000 C 
BRANCH  15  16
ATOM     16  O   UNL     1       1.615   2.987  17.354  0.00  0.00    +0.000 OA
ATOM     17  H   UNL     1       0.781   3.024  17.854  0.00  0.00    +0.000 HD
ENDBRANCH  15  16
ENDBRANCH   4   7
BRANCH   1  23
ATOM     18  C   UNL     1       1.154   9.466  20.248  0.00  0.00    +0.000 A 
ATOM     19  C   UNL     1       1.055  10.448  19.240  0.00  0.00    +0.000 A 
ATOM     20  C   UNL     1       1.560  10.258  17.955  0.00  0.00    +0.000 A 
ATOM     21  C   UNL     1       2.217   9.083  17.662  0.00  0.00    +0.000 A 
ATOM     22  C   UNL     1       2.291   8.068  18.614  0.00  0.00    +0.000 A 
ATOM     23  C   UNL     1       1.669   8.196  19.874  0.00  0.00    +0.000 A 
BRANCH  18  28
ATOM     24  N   UNL     1      -0.198  10.751  22.033  0.00  0.00    +0.000 N 
ATOM     25  N   UNL     1      -0.395  10.650  23.360  0.00  0.00    +0.000 NA
ATOM     26  N   UNL     1       0.393   9.672  23.766  0.00  0.00    +0.000 NA
ATOM     27  N   UNL     1       1.071   9.123  22.713  0.00  0.00    +0.000 NA
ATOM     28  C   UNL     1       0.679   9.755  21.616  0.00  0.00    +0.000 A 
BRANCH  24  30
ATOM     29  C   UNL     1      -2.258  12.103  21.886  0.00  0.00    +0.000 C 
ATOM     30  C   UNL     1      -0.874  11.809  21.295  0.00  0.00    +0.000 C 
ATOM     31  C   UNL     1      -0.076  13.118  21.206  0.00  0.00    +0.000 C 
ENDBRANCH  24  30
ENDBRANCH  18  28
ENDBRANCH   1  23
TORSDOF 5
ENDMDL
MODEL 7
REMARK VINA RESULT:      -8.2      6.156      8.800
REMARK  Name = 
REMARK  7 active torsions:
REMARK  status: ('A' for Active; 'I' for Inactive)
REMARK    1  A    between atoms: C_1  and  C_2
REMARK    2  A    between atoms: C_2  and  C_3
REMARK    3  A    between atoms: C_2  and  N_4
REMARK    4  A    between atoms: C_8  and  C_9
REMARK    5  A    between atoms: C_14  and  N_15
REMARK    6  A    between atoms: N_18  and  C_19
REMARK    7  A    between atoms: C_27  and  O_28
REMARK                            x       y       z     vdW  Elec       q    Type
REMARK                         _______ _______ _______ _____ _____    ______ ____
ROOT
ATOM      1  N   UNL     1      -7.283  11.830  19.427  0.00  0.00    +0.000 N 
ATOM      2  C   UNL     1      -6.479  10.830  18.901  0.00  0.00    +0.000 C 
ATOM      3  O   UNL     1      -6.672   9.646  19.146  0.00  0.00    +0.000 OA
ATOM      4  N   UNL     1      -5.523  11.258  18.022  0.00  0.00    +0.000 N 
ATOM      5  H   UNL     1      -8.237  11.516  19.590  0.00  0.00    +0.000 HD
ATOM      6  H   UNL     1      -5.462  12.256  18.016  0.00  0.00    +0.000 HD
ENDROOT
BRANCH   4   7
ATOM      7  C   UNL     1      -4.257  10.589  17.859  0.00  0.00    +0.000 C 
ATOM      8  C   UNL     1      -3.142  11.322  18.568  0.00  0.00    +0.000 A 
ATOM      9  C   UNL     1      -3.201  12.305  19.545  0.00  0.00    +0.000 A 
ATOM     10  C   UNL     1      -2.045  12.603  20.252  0.00  0.00    +0.000 A 
ATOM     11  C   UNL     1      -0.854  11.925  19.963  0.00  0.00    +0.000 A 
ATOM     12  C   UNL     1      -0.771  11.047  18.877  0.00  0.00    +0.000 A 
ATOM     13  C   UNL     1      -1.917  10.807  18.139  0.00  0.00    +0.000 A 
ATOM     14  C   UNL     1      -2.105  10.013  16.869  0.00  0.00    +0.000 C 
ATOM     15  C   UNL     1      -3.578  10.375  16.478  0.00  0.00    +0.000 C 
BRANCH  15  16
ATOM     16  O   UNL     1      -3.570  11.543  15.640  0.00  0.00    +0.000 OA
ATOM     17  H   UNL     1      -4.388  12.041  15.815  0.00  0.00    +0.000 HD
ENDBRANCH  15  16
ENDBRANCH   4   7
BRANCH   1  23
ATOM     18  C   UNL     1      -6.942  13.819  20.877  0.00  0.00    +0.000 A 
ATOM     19  C   UNL     1      -6.943  15.228  20.941  0.00  0.00    +0.000 A 
ATOM     20  C   UNL     1      -6.887  16.032  19.804  0.00  0.00    +0.000 A 
ATOM     21  C   UNL     1      -6.789  15.434  18.567  0.00  0.00    +0.000 A 
ATOM     22  C   UNL     1      -6.837  14.045  18.457  0.00  0.00    +0.000 A 
ATOM     23  C   UNL     1      -7.026  13.224  19.589  0.00  0.00    +0.000 A 
BRANCH  18  28
ATOM     24  N   UNL     1      -5.875  12.883  23.033  0.00  0.00    +0.000 N 
ATOM     25  N   UNL     1      -6.268  12.086  24.043  0.00  0.00    +0.000 NA
ATOM     26  N   UNL     1      -7.482  11.678  23.727  0.00  0.00    +0.000 NA
ATOM     27  N   UNL     1      -7.888  12.226  22.541  0.00  0.00    +0.000 NA
ATOM     28  C   UNL     1      -6.914  13.018  22.116  0.00  0.00    +0.000 A 
BRANCH  24  30
ATOM     29  C   UNL     1      -4.452  14.701  23.906  0.00  0.00    +0.000 C 
ATOM     30  C   UNL     1      -4.527  13.432  23.047  0.00  0.00    +0.000 C 
ATOM     31  C   UNL     1      -3.452  12.442  23.519  0.00  0.00    +0.000 C 
ENDBRANCH  24  30
ENDBRANCH  18  28
ENDBRANCH   1  23
TORSDOF 5
ENDMDL
MODEL 8
REMARK VINA RESULT:      -7.9      1.256      2.251
REMARK  Name = 
REMARK  7 active torsions:
REMARK  status: ('A' for Active; 'I' for Inactive)
REMARK    1  A    between atoms: C_1  and  C_2
REMARK    2  A    between atoms: C_2  and  C_3
REMARK    3  A    between atoms: C_2  and  N_4
REMARK    4  A    between atoms: C_8  and  C_9
REMARK    5  A    between atoms: C_14  and  N_15
REMARK    6  A    between atoms: N_18  and  C_19
REMARK    7  A    between atoms: C_27  and  O_28
REMARK                            x       y       z     vdW  Elec       q    Type
REMARK                         _______ _______ _______ _____ _____    ______ ____
ROOT
ATOM      1  N   UNL     1       1.671   9.558  18.980  0.00  0.00    +0.000 N 
ATOM      2  C   UNL     1       2.250   8.538  18.240  0.00  0.00    +0.000 C 
ATOM      3  O   UNL     1       2.617   8.703  17.084  0.00  0.00    +0.000 OA
ATOM      4  N   UNL     1       2.464   7.374  18.926  0.00  0.00    +0.000 N 
ATOM      5  H   UNL     1       2.006  10.478  18.702  0.00  0.00    +0.000 HD
ATOM      6  H   UNL     1       2.024   7.401  19.823  0.00  0.00    +0.000 HD
ENDROOT
BRANCH   4   7
ATOM      7  C   UNL     1       2.437   6.080  18.294  0.00  0.00    +0.000 C 
ATOM      8  C   UNL     1       2.270   4.968  19.303  0.00  0.00    +0.000 A 
ATOM      9  C   UNL     1       1.854   5.019  20.626  0.00  0.00    +0.000 A 
ATOM     10  C   UNL     1       1.493   3.833  21.249  0.00  0.00    +0.000 A 
ATOM     11  C   UNL     1       1.565   2.624  20.549  0.00  0.00    +0.000 A 
ATOM     12  C   UNL     1       2.128   2.565  19.269  0.00  0.00    +0.000 A 
ATOM     13  C   UNL     1       2.544   3.748  18.682  0.00  0.00    +0.000 A 
ATOM     14  C   UNL     1       3.278   3.981  17.383  0.00  0.00    +0.000 C 
ATOM     15  C   UNL     1       3.630   5.505  17.481  0.00  0.00    +0.000 C 
BRANCH  15  16
ATOM     16  O   UNL     1       4.905   5.654  18.126  0.00  0.00    +0.000 OA
ATOM     17  H   UNL     1       4.744   5.914  19.049  0.00  0.00    +0.000 HD
ENDBRANCH  15  16
ENDBRANCH   4   7
BRANCH   1  23
ATOM     18  C   UNL     1       0.065  10.602  20.563  0.00  0.00    +0.000 A 
ATOM     19  C   UNL     1      -0.505  10.545  21.852  0.00  0.00    +0.000 A 
ATOM     20  C   UNL     1      -0.433   9.408  22.655  0.00  0.00    +0.000 A 
ATOM     21  C   UNL     1       0.185   8.279  22.162  0.00  0.00    +0.000 A 
ATOM     22  C   UNL     1       0.805   8.311  20.915  0.00  0.00    +0.000 A 
ATOM     23  C   UNL     1       0.854   9.495  20.148  0.00  0.00    +0.000 A 
BRANCH  18  28
ATOM     24  N   UNL     1       0.272  13.110  19.988  0.00  0.00    +0.000 N 
ATOM     25  N   UNL     1      -0.053  13.896  18.946  0.00  0.00    +0.000 NA
ATOM     26  N   UNL     1      -0.692  13.117  18.094  0.00  0.00    +0.000 NA
ATOM     27  N   UNL     1      -0.756  11.833  18.560  0.00  0.00    +0.000 NA
ATOM     28  C   UNL     1      -0.118  11.801  19.721  0.00  0.00    +0.000 A 
BRANCH  24  30
ATOM     29  C   UNL     1       1.860  14.845  20.734  0.00  0.00    +0.000 C 
ATOM     30  C   UNL     1       0.925  13.703  21.146  0.00  0.00    +0.000 C 
ATOM     31  C   UNL     1      -0.048  14.211  22.220  0.00  0.00    +0.000 C 
ENDBRANCH  24  30
ENDBRANCH  18  28
ENDBRANCH   1  23
TORSDOF 5
ENDMDL
MODEL 9
REMARK VINA RESULT:      -7.9      2.576      7.704
REMARK  Name = 
REMARK  7 active torsions:
REMARK  status: ('A' for Active; 'I' for Inactive)
REMARK    1  A    between atoms: C_1  and  C_2
REMARK    2  A    between atoms: C_2  and  C_3
REMARK    3  A    between atoms: C_2  and  N_4
REMARK    4  A    between atoms: C_8  and  C_9
REMARK    5  A    between atoms: C_14  and  N_15
REMARK    6  A    between atoms: N_18  and  C_19
REMARK    7  A    between atoms: C_27  and  O_28
REMARK                            x       y       z     vdW  Elec       q    Type
REMARK                         _______ _______ _______ _____ _____    ______ ____
ROOT
ATOM      1  N   UNL     1       1.442   7.542  21.018  0.00  0.00    +0.000 N 
ATOM      2  C   UNL     1       0.671   8.611  21.448  0.00  0.00    +0.000 C 
ATOM      3  O   UNL     1      -0.097   8.517  22.397  0.00  0.00    +0.000 OA
ATOM      4  N   UNL     1       0.903   9.791  20.797  0.00  0.00    +0.000 N 
ATOM      5  H   UNL     1       1.680   6.904  21.775  0.00  0.00    +0.000 HD
ATOM      6  H   UNL     1       1.493   9.652  20.003  0.00  0.00    +0.000 HD
ENDROOT
BRANCH   4   7
ATOM      7  C   UNL     1      -0.118  10.789  20.605  0.00  0.00    +0.000 C 
ATOM      8  C   UNL     1      -0.701  10.732  19.212  0.00  0.00    +0.000 A 
ATOM      9  C   UNL     1      -0.627   9.730  18.255  0.00  0.00    +0.000 A 
ATOM     10  C   UNL     1      -1.495   9.786  17.174  0.00  0.00    +0.000 A 
ATOM     11  C   UNL     1      -2.408  10.841  17.062  0.00  0.00    +0.000 A 
ATOM     12  C   UNL     1      -2.370  11.922  17.950  0.00  0.00    +0.000 A 
ATOM     13  C   UNL     1      -1.455  11.886  18.988  0.00  0.00    +0.000 A 
ATOM     14  C   UNL     1      -1.111  12.937  20.016  0.00  0.00    +0.000 C 
ATOM     15  C   UNL     1       0.155  12.316  20.700  0.00  0.00    +0.000 C 
BRANCH  15  16
ATOM     16  O   UNL     1       1.331  12.747  19.995  0.00  0.00    +0.000 OA
ATOM     17  H   UNL     1       1.288  12.383  19.094  0.00  0.00    +0.000 HD
ENDBRANCH  15  16
ENDBRANCH   4   7
BRANCH   1  23
ATOM     18  C   UNL     1       2.633   6.051  19.427  0.00  0.00    +0.000 A 
ATOM     19  C   UNL     1       3.461   5.987  18.286  0.00  0.00    +0.000 A 
ATOM     20  C   UNL     1       3.637   7.068  17.424  0.00  0.00    +0.000 A 
ATOM     21  C   UNL     1       2.948   8.237  17.669  0.00  0.00    +0.000 A 
ATOM     22  C   UNL     1       2.161   8.357  18.812  0.00  0.00    +0.000 A 
ATOM     23  C   UNL     1       2.080   7.316  19.762  0.00  0.00    +0.000 A 
BRANCH  18  28
ATOM     24  N   UNL     1       2.037   3.574  19.844  0.00  0.00    +0.000 N 
ATOM     25  N   UNL     1       1.981   2.756  20.910  0.00  0.00    +0.000 NA
ATOM     26  N   UNL     1       2.240   3.515  21.959  0.00  0.00    +0.000 NA
ATOM     27  N   UNL     1       2.492   4.804  21.578  0.00  0.00    +0.000 NA
ATOM     28  C   UNL     1       2.415   4.849  20.255  0.00  0.00    +0.000 A 
BRANCH  24  30
ATOM     29  C   UNL     1       2.926   2.355  17.891  0.00  0.00    +0.000 C 
ATOM     30  C   UNL     1       1.713   3.045  18.527  0.00  0.00    +0.000 C 
ATOM     31  C   UNL     1       0.521   2.077  18.517  0.00  0.00    +0.000 C 
ENDBRANCH  24  30
ENDBRANCH  18  28
ENDBRANCH   1  23
TORSDOF 5
ENDMDL
