MODEL 1
REMARK VINA RESULT:      -8.4      0.000      0.000
REMARK  Name = 
REMARK  5 active torsions:
REMARK  status: ('A' for Active; 'I' for Inactive)
REMARK    1  A    between atoms: C_2  and  C_19
REMARK    2  A    between atoms: N_3  and  C_4
REMARK    3  A    between atoms: C_4  and  C_5
REMARK    4  A    between atoms: C_8  and  O_9
REMARK    5  A    between atoms: O_9  and  C_10
REMARK                            x       y       z     vdW  Elec       q    Type
REMARK                         _______ _______ _______ _____ _____    ______ ____
ROOT
ATOM      1  C   UNL     1       7.266   6.352  16.548  0.00  0.00    +0.000 C 
ENDROOT
BRANCH   1   2
ATOM      2  C   UNL     1       5.851   6.044  16.935  0.00  0.00    +0.000 A 
ATOM      3  C   UNL     1       5.358   4.736  16.995  0.00  0.00    +0.000 A 
ATOM      4  C   UNL     1       4.021   4.504  17.332  0.00  0.00    +0.000 A 
ATOM      5  C   UNL     1       3.221   5.599  17.622  0.00  0.00    +0.000 A 
ATOM      6  N   UNL     1       3.661   6.875  17.539  0.00  0.00    +0.000 NA
ATOM      7  C   UNL     1       4.958   7.069  17.222  0.00  0.00    +0.000 A 
BRANCH   5   8
ATOM      8  O   UNL     1       1.915   5.362  18.054  0.00  0.00    +0.000 OA
BRANCH   8   9
ATOM      9  C   UNL     1       1.769   4.493  19.121  0.00  0.00    +0.000 A 
ATOM     10  C   UNL     1       2.244   4.897  20.374  0.00  0.00    +0.000 A 
ATOM     11  C   UNL     1       2.163   4.017  21.464  0.00  0.00    +0.000 A 
ATOM     12  C   UNL     1       1.602   2.755  21.289  0.00  0.00    +0.000 A 
ATOM     13  F   UNL     1       1.560   1.900  22.319  0.00  0.00    +0.000 F 
ATOM     14  C   UNL     1       1.084   2.364  20.063  0.00  0.00    +0.000 A 
ATOM     15  C   UNL     1       1.140   3.246  18.988  0.00  0.00    +0.000 A 
ENDBRANCH   8   9
ENDBRANCH   5   8
ENDBRANCH   1   2
BRANCH   1  18
ATOM     16  O   UNL     1       8.388   7.037  18.993  0.00  0.00    +0.000 OA
ATOM     17  C   UNL     1       8.222   7.935  18.165  0.00  0.00    +0.000 C 
ATOM     18  N   UNL     1       7.686   7.680  16.916  0.00  0.00    +0.000 N 
ATOM     19  H   UNL     1       7.576   8.464  16.280  0.00  0.00    +0.000 HD
BRANCH  17  20
ATOM     20  C   UNL     1       8.557   9.318  18.410  0.00  0.00    +0.000 A 
ATOM     21  C   UNL     1       9.277   9.912  19.431  0.00  0.00    +0.000 A 
ATOM     22  C   UNL     1       9.276  11.311  19.182  0.00  0.00    +0.000 A 
ATOM     23  C   UNL     1       9.802  12.449  19.819  0.00  0.00    +0.000 A 
ATOM     24  C   UNL     1       9.570  13.708  19.246  0.00  0.00    +0.000 A 
ATOM     25  C   UNL     1       8.833  13.839  18.066  0.00  0.00    +0.000 A 
ATOM     26  C   UNL     1       8.305  12.718  17.416  0.00  0.00    +0.000 A 
ATOM     27  C   UNL     1       8.551  11.481  18.010  0.00  0.00    +0.000 A 
ATOM     28  O   UNL     1       8.118  10.280  17.534  0.00  0.00    +0.000 OA
ENDBRANCH  17  20
ENDBRANCH   1  18
TORSDOF 5
ENDMDL
MODEL 2
REMARK VINA RESULT:      -8.4      7.083      9.406
REMARK  Name = 
REMARK  5 active torsions:
REMARK  status: ('A' for Active; 'I' for Inactive)
REMARK    1  A    between atoms: C_2  and  C_19
REMARK    2  A    between atoms: N_3  and  C_4
REMARK    3  A    between atoms: C_4  and  C_5
REMARK    4  A    between atoms: C_8  and  O_9
REMARK    5  A    between atoms: O_9  and  C_10
REMARK                            x       y       z     vdW  Elec       q    Type
REMARK                         _______ _______ _______ _____ _____    ______ ____
ROOT
ATOM      1  C   UNL     1       0.172  11.198  18.869  0.00  0.00    +0.000 C 
ENDROOT
BRANCH   1   2
ATOM      2  C   UNL     1       0.942   9.919  19.000  0.00  0.00    +0.000 A 
ATOM      3  C   UNL     1       1.624   9.341  17.922  0.00  0.00    +0.000 A 
ATOM      4  C   UNL     1       2.302   8.130  18.088  0.00  0.00    +0.000 A 
ATOM      5  C   UNL     1       2.295   7.544  19.344  0.00  0.00    +0.000 A 
ATOM      6  N   UNL     1       1.617   8.062  20.394  0.00  0.00    +0.000 NA
ATOM      7  C   UNL     1       0.980   9.236  20.208  0.00  0.00    +0.000 A 
BRANCH   5   8
ATOM      8  O   UNL     1       3.054   6.388  19.535  0.00  0.00    +0.000 OA
BRANCH   8   9
ATOM      9  C   UNL     1       2.400   5.185  19.338  0.00  0.00    +0.000 A 
ATOM     10  C   UNL     1       2.512   4.567  18.086  0.00  0.00    +0.000 A 
ATOM     11  C   UNL     1       1.816   3.376  17.835  0.00  0.00    +0.000 A 
ATOM     12  C   UNL     1       1.028   2.815  18.837  0.00  0.00    +0.000 A 
ATOM     13  F   UNL     1       0.332   1.698  18.586  0.00  0.00    +0.000 F 
ATOM     14  C   UNL     1       0.951   3.392  20.096  0.00  0.00    +0.000 A 
ATOM     15  C   UNL     1       1.662   4.560  20.354  0.00  0.00    +0.000 A 
ENDBRANCH   8   9
ENDBRANCH   5   8
ENDBRANCH   1   2
BRANCH   1  18
ATOM     16  O   UNL     1      -1.119  13.587  19.446  0.00  0.00    +0.000 OA
ATOM     17  C   UNL     1      -1.427  12.593  20.107  0.00  0.00    +0.000 C 
ATOM     18  N   UNL     1      -0.848  11.359  19.875  0.00  0.00    +0.000 N 
ATOM     19  H   UNL     1      -1.146  10.580  20.455  0.00  0.00    +0.000 HD
BRANCH  17  20
ATOM     20  C   UNL     1      -2.401  12.615  21.174  0.00  0.00    +0.000 A 
ATOM     21  C   UNL     1      -2.261  12.422  22.536  0.00  0.00    +0.000 A 
ATOM     22  C   UNL     1      -3.556  12.533  23.108  0.00  0.00    +0.000 A 
ATOM     23  C   UNL     1      -4.099  12.439  24.402  0.00  0.00    +0.000 A 
ATOM     24  C   UNL     1      -5.482  12.607  24.565  0.00  0.00    +0.000 A 
ATOM     25  C   UNL     1      -6.311  12.865  23.471  0.00  0.00    +0.000 A 
ATOM     26  C   UNL     1      -5.789  12.967  22.176  0.00  0.00    +0.000 A 
ATOM     27  C   UNL     1      -4.412  12.793  22.046  0.00  0.00    +0.000 A 
ATOM     28  O   UNL     1      -3.720  12.849  20.874  0.00  0.00    +0.000 OA
ENDBRANCH  17  20
ENDBRANCH   1  18
TORSDOF 5
ENDMDL
MODEL 3
REMARK VINA RESULT:      -8.3      5.269      7.697
REMARK  Name = 
REMARK  5 active torsions:
REMARK  status: ('A' for Active; 'I' for Inactive)
REMARK    1  A    between atoms: C_2  and  C_19
REMARK    2  A    between atoms: N_3  and  C_4
REMARK    3  A    between atoms: C_4  and  C_5
REMARK    4  A    between atoms: C_8  and  O_9
REMARK    5  A    between atoms: O_9  and  C_10
REMARK                            x       y       z     vdW  Elec       q    Type
REMARK                         _______ _______ _______ _____ _____    ______ ____
ROOT
ATOM      1  C   UNL     1       3.155   6.127  19.060  0.00  0.00    +0.000 C 
ENDROOT
BRANCH   1   2
ATOM      2  C   UNL     1       2.461   7.451  18.962  0.00  0.00    +0.000 A 
ATOM      3  C   UNL     1       2.554   8.264  17.827  0.00  0.00    +0.000 A 
ATOM      4  C   UNL     1       1.912   9.506  17.797  0.00  0.00    +0.000 A 
ATOM      5  C   UNL     1       1.172   9.885  18.907  0.00  0.00    +0.000 A 
ATOM      6  N   UNL     1       1.092   9.135  20.030  0.00  0.00    +0.000 NA
ATOM      7  C   UNL     1       1.713   7.937  20.027  0.00  0.00    +0.000 A 
BRANCH   5   8
ATOM      8  O   UNL     1       0.451  11.078  18.839  0.00  0.00    +0.000 OA
BRANCH   8   9
ATOM      9  C   UNL     1      -0.891  10.967  18.521  0.00  0.00    +0.000 A 
ATOM     10  C   UNL     1      -1.270  10.013  17.569  0.00  0.00    +0.000 A 
ATOM     11  C   UNL     1      -2.615   9.914  17.182  0.00  0.00    +0.000 A 
ATOM     12  C   UNL     1      -3.560  10.759  17.757  0.00  0.00    +0.000 A 
ATOM     13  F   UNL     1      -4.838  10.692  17.360  0.00  0.00    +0.000 F 
ATOM     14  C   UNL     1      -3.203  11.673  18.737  0.00  0.00    +0.000 A 
ATOM     15  C   UNL     1      -1.873  11.754  19.140  0.00  0.00    +0.000 A 
ENDBRANCH   8   9
ENDBRANCH   5   8
ENDBRANCH   1   2
BRANCH   1  18
ATOM     16  O   UNL     1       5.859   5.955  18.450  0.00  0.00    +0.000 OA
ATOM     17  C   UNL     1       5.051   5.625  17.579  0.00  0.00    +0.000 C 
ATOM     18  N   UNL     1       3.687   5.662  17.803  0.00  0.00    +0.000 N 
ATOM     19  H   UNL     1       3.075   5.377  17.044  0.00  0.00    +0.000 HD
BRANCH  17  20
ATOM     20  C   UNL     1       5.436   5.180  16.260  0.00  0.00    +0.000 A 
ATOM     21  C   UNL     1       4.877   4.234  15.420  0.00  0.00    +0.000 A 
ATOM     22  C   UNL     1       5.682   4.189  14.250  0.00  0.00    +0.000 A 
ATOM     23  C   UNL     1       5.673   3.460  13.048  0.00  0.00    +0.000 A 
ATOM     24  C   UNL     1       6.683   3.704  12.105  0.00  0.00    +0.000 A 
ATOM     25  C   UNL     1       7.680   4.651  12.347  0.00  0.00    +0.000 A 
ATOM     26  C   UNL     1       7.703   5.390  13.535  0.00  0.00    +0.000 A 
ATOM     27  C   UNL     1       6.689   5.124  14.452  0.00  0.00    +0.000 A 
ATOM     28  O   UNL     1       6.544   5.731  15.663  0.00  0.00    +0.000 OA
ENDBRANCH  17  20
ENDBRANCH   1  18
TORSDOF 5
ENDMDL
MODEL 4
REMARK VINA RESULT:      -8.2      7.031      9.292
REMARK  Name = 
REMARK  5 active torsions:
REMARK  status: ('A' for Active; 'I' for Inactive)
REMARK    1  A    between atoms: C_2  and  C_19
REMARK    2  A    between atoms: N_3  and  C_4
REMARK    3  A    between atoms: C_4  and  C_5
REMARK    4  A    between atoms: C_8  and  O_9
REMARK    5  A    between atoms: O_9  and  C_10
REMARK                            x       y       z     vdW  Elec       q    Type
REMARK                         _______ _______ _______ _____ _____    ______ ____
ROOT
ATOM      1  C   UNL     1      -0.004  11.288  18.665  0.00  0.00    +0.000 C 
ENDROOT
BRANCH   1   2
ATOM      2  C   UNL     1       0.772  10.023  18.871  0.00  0.00    +0.000 A 
ATOM      3  C   UNL     1       1.388   9.342  17.814  0.00  0.00    +0.000 A 
ATOM      4  C   UNL     1       2.074   8.147  18.054  0.00  0.00    +0.000 A 
ATOM      5  C   UNL     1       2.142   7.683  19.359  0.00  0.00    +0.000 A 
ATOM      6  N   UNL     1       1.529   8.303  20.393  0.00  0.00    +0.000 NA
ATOM      7  C   UNL     1       0.882   9.458  20.135  0.00  0.00    +0.000 A 
BRANCH   5   8
ATOM      8  O   UNL     1       2.911   6.546  19.612  0.00  0.00    +0.000 OA
BRANCH   8   9
ATOM      9  C   UNL     1       2.306   5.328  19.362  0.00  0.00    +0.000 A 
ATOM     10  C   UNL     1       1.576   4.726  20.395  0.00  0.00    +0.000 A 
ATOM     11  C   UNL     1       0.999   3.463  20.192  0.00  0.00    +0.000 A 
ATOM     12  C   UNL     1       1.149   2.827  18.963  0.00  0.00    +0.000 A 
ATOM     13  F   UNL     1       0.631   1.605  18.781  0.00  0.00    +0.000 F 
ATOM     14  C   UNL     1       1.827   3.437  17.918  0.00  0.00    +0.000 A 
ATOM     15  C   UNL     1       2.378   4.701  18.110  0.00  0.00    +0.000 A 
ENDBRANCH   8   9
ENDBRANCH   5   8
ENDBRANCH   1   2
BRANCH   1  18
ATOM     16  O   UNL     1       0.016  13.207  20.673  0.00  0.00    +0.000 OA
ATOM     17  C   UNL     1      -0.957  12.452  20.609  0.00  0.00    +0.000 C 
ATOM     18  N   UNL     1      -1.057  11.479  19.631  0.00  0.00    +0.000 N 
ATOM     19  H   UNL     1      -1.884  10.890  19.633  0.00  0.00    +0.000 HD
BRANCH  17  20
ATOM     20  C   UNL     1      -2.066  12.498  21.533  0.00  0.00    +0.000 A 
ATOM     21  C   UNL     1      -2.143  12.185  22.877  0.00  0.00    +0.000 A 
ATOM     22  C   UNL     1      -3.489  12.395  23.278  0.00  0.00    +0.000 A 
ATOM     23  C   UNL     1      -4.218  12.261  24.473  0.00  0.00    +0.000 A 
ATOM     24  C   UNL     1      -5.587  12.570  24.464  0.00  0.00    +0.000 A 
ATOM     25  C   UNL     1      -6.220  13.006  23.299  0.00  0.00    +0.000 A 
ATOM     26  C   UNL     1      -5.510  13.150  22.101  0.00  0.00    +0.000 A 
ATOM     27  C   UNL     1      -4.153  12.833  22.140  0.00  0.00    +0.000 A 
ATOM     28  O   UNL     1      -3.298  12.903  21.082  0.00  0.00    +0.000 OA
ENDBRANCH  17  20
ENDBRANCH   1  18
TORSDOF 5
ENDMDL
MODEL 5
REMARK VINA RESULT:      -8.2      5.219      7.695
REMARK  Name = 
REMARK  5 active torsions:
REMARK  status: ('A' for Active; 'I' for Inactive)
REMARK    1  A    between atoms: C_2  and  C_19
REMARK    2  A    between atoms: N_3  and  C_4
REMARK    3  A    between atoms: C_4  and  C_5
REMARK    4  A    between atoms: C_8  and  O_9
REMARK    5  A    between atoms: O_9  and  C_10
REMARK                            x       y       z     vdW  Elec       q    Type
REMARK                         _______ _______ _______ _____ _____    ______ ____
ROOT
ATOM      1  C   UNL     1       3.176   6.005  18.921  0.00  0.00    +0.000 C 
ENDROOT
BRANCH   1   2
ATOM      2  C   UNL     1       2.505   7.343  18.865  0.00  0.00    +0.000 A 
ATOM      3  C   UNL     1       2.626   8.197  17.762  0.00  0.00    +0.000 A 
ATOM      4  C   UNL     1       2.005   9.449  17.771  0.00  0.00    +0.000 A 
ATOM      5  C   UNL     1       1.256   9.799  18.885  0.00  0.00    +0.000 A 
ATOM      6  N   UNL     1       1.149   9.009  19.978  0.00  0.00    +0.000 NA
ATOM      7  C   UNL     1       1.751   7.802  19.937  0.00  0.00    +0.000 A 
BRANCH   5   8
ATOM      8  O   UNL     1       0.556  11.005  18.853  0.00  0.00    +0.000 OA
BRANCH   8   9
ATOM      9  C   UNL     1      -0.790  10.926  18.541  0.00  0.00    +0.000 A 
ATOM     10  C   UNL     1      -1.192   9.996  17.575  0.00  0.00    +0.000 A 
ATOM     11  C   UNL     1      -2.541   9.930  17.194  0.00  0.00    +0.000 A 
ATOM     12  C   UNL     1      -3.466  10.783  17.788  0.00  0.00    +0.000 A 
ATOM     13  F   UNL     1      -4.747  10.748  17.398  0.00  0.00    +0.000 F 
ATOM     14  C   UNL     1      -3.086  11.673  18.782  0.00  0.00    +0.000 A 
ATOM     15  C   UNL     1      -1.753  11.722  19.179  0.00  0.00    +0.000 A 
ENDBRANCH   8   9
ENDBRANCH   5   8
ENDBRANCH   1   2
BRANCH   1  18
ATOM     16  O   UNL     1       5.916   5.697  18.592  0.00  0.00    +0.000 OA
ATOM     17  C   UNL     1       5.195   5.517  17.608  0.00  0.00    +0.000 C 
ATOM     18  N   UNL     1       3.819   5.632  17.686  0.00  0.00    +0.000 N 
ATOM     19  H   UNL     1       3.282   5.471  16.839  0.00  0.00    +0.000 HD
BRANCH  17  20
ATOM     20  C   UNL     1       5.702   5.181  16.298  0.00  0.00    +0.000 A 
ATOM     21  C   UNL     1       6.873   5.540  15.657  0.00  0.00    +0.000 A 
ATOM     22  C   UNL     1       6.844   4.940  14.369  0.00  0.00    +0.000 A 
ATOM     23  C   UNL     1       7.695   4.913  13.250  0.00  0.00    +0.000 A 
ATOM     24  C   UNL     1       7.295   4.187  12.118  0.00  0.00    +0.000 A 
ATOM     25  C   UNL     1       6.080   3.499  12.096  0.00  0.00    +0.000 A 
ATOM     26  C   UNL     1       5.222   3.510  13.202  0.00  0.00    +0.000 A 
ATOM     27  C   UNL     1       5.645   4.242  14.309  0.00  0.00    +0.000 A 
ATOM     28  O   UNL     1       4.951   4.378  15.474  0.00  0.00    +0.000 OA
ENDBRANCH  17  20
ENDBRANCH   1  18
TORSDOF 5
ENDMDL
MODEL 6
REMARK VINA RESULT:      -8.2      6.823      9.141
REMARK  Name = 
REMARK  5 active torsions:
REMARK  status: ('A' for Active; 'I' for Inactive)
REMARK    1  A    between atoms: C_2  and  C_19
REMARK    2  A    between atoms: N_3  and  C_4
REMARK    3  A    between atoms: C_4  and  C_5
REMARK    4  A    between atoms: C_8  and  O_9
REMARK    5  A    between atoms: O_9  and  C_10
REMARK                            x       y       z     vdW  Elec       q    Type
REMARK                         _______ _______ _______ _____ _____    ______ ____
ROOT
ATOM      1  C   UNL     1       0.572  11.062  18.643  0.00  0.00    +0.000 C 
ENDROOT
BRANCH   1   2
ATOM      2  C   UNL     1       1.265   9.752  18.860  0.00  0.00    +0.000 A 
ATOM      3  C   UNL     1       1.998   9.116  17.851  0.00  0.00    +0.000 A 
ATOM      4  C   UNL     1       2.601   7.878  18.095  0.00  0.00    +0.000 A 
ATOM      5  C   UNL     1       2.468   7.324  19.360  0.00  0.00    +0.000 A 
ATOM      6  N   UNL     1       1.738   7.900  20.342  0.00  0.00    +0.000 NA
ATOM      7  C   UNL     1       1.176   9.099  20.082  0.00  0.00    +0.000 A 
BRANCH   5   8
ATOM      8  O   UNL     1       3.151   6.139  19.633  0.00  0.00    +0.000 OA
BRANCH   8   9
ATOM      9  C   UNL     1       2.457   4.963  19.407  0.00  0.00    +0.000 A 
ATOM     10  C   UNL     1       2.515   4.395  18.129  0.00  0.00    +0.000 A 
ATOM     11  C   UNL     1       1.777   3.235  17.851  0.00  0.00    +0.000 A 
ATOM     12  C   UNL     1       1.003   2.655  18.853  0.00  0.00    +0.000 A 
ATOM     13  F   UNL     1       0.267   1.570  18.578  0.00  0.00    +0.000 F 
ATOM     14  C   UNL     1       0.978   3.182  20.135  0.00  0.00    +0.000 A 
ATOM     15  C   UNL     1       1.730   4.319  20.419  0.00  0.00    +0.000 A 
ENDBRANCH   8   9
ENDBRANCH   5   8
ENDBRANCH   1   2
BRANCH   1  18
ATOM     16  O   UNL     1      -1.549  12.802  18.211  0.00  0.00    +0.000 OA
ATOM     17  C   UNL     1      -1.501  12.210  19.292  0.00  0.00    +0.000 C 
ATOM     18  N   UNL     1      -0.490  11.313  19.584  0.00  0.00    +0.000 N 
ATOM     19  H   UNL     1      -0.509  10.859  20.493  0.00  0.00    +0.000 HD
BRANCH  17  20
ATOM     20  C   UNL     1      -2.472  12.394  20.346  0.00  0.00    +0.000 A 
ATOM     21  C   UNL     1      -3.787  12.819  20.306  0.00  0.00    +0.000 A 
ATOM     22  C   UNL     1      -4.261  12.834  21.645  0.00  0.00    +0.000 A 
ATOM     23  C   UNL     1      -5.469  13.164  22.284  0.00  0.00    +0.000 A 
ATOM     24  C   UNL     1      -5.545  13.053  23.681  0.00  0.00    +0.000 A 
ATOM     25  C   UNL     1      -4.447  12.621  24.429  0.00  0.00    +0.000 A 
ATOM     26  C   UNL     1      -3.237  12.284  23.811  0.00  0.00    +0.000 A 
ATOM     27  C   UNL     1      -3.193  12.407  22.424  0.00  0.00    +0.000 A 
ATOM     28  O   UNL     1      -2.110  12.134  21.645  0.00  0.00    +0.000 OA
ENDBRANCH  17  20
ENDBRANCH   1  18
TORSDOF 5
ENDMDL
MODEL 7
REMARK VINA RESULT:      -8.0      6.840      9.423
REMARK  Name = 
REMARK  5 active torsions:
REMARK  status: ('A' for Active; 'I' for Inactive)
REMARK    1  A    between atoms: C_2  and  C_19
REMARK    2  A    between atoms: N_3  and  C_4
REMARK    3  A    between atoms: C_4  and  C_5
REMARK    4  A    between atoms: C_8  and  O_9
REMARK    5  A    between atoms: O_9  and  C_10
REMARK                            x       y       z     vdW  Elec       q    Type
REMARK                         _______ _______ _______ _____ _____    ______ ____
ROOT
ATOM      1  C   UNL     1       0.839  11.072  18.402  0.00  0.00    +0.000 C 
ENDROOT
BRANCH   1   2
ATOM      2  C   UNL     1       1.434   9.732  18.712  0.00  0.00    +0.000 A 
ATOM      3  C   UNL     1       2.167   9.002  17.769  0.00  0.00    +0.000 A 
ATOM      4  C   UNL     1       2.675   7.741  18.098  0.00  0.00    +0.000 A 
ATOM      5  C   UNL     1       2.450   7.259  19.378  0.00  0.00    +0.000 A 
ATOM      6  N   UNL     1       1.717   7.928  20.298  0.00  0.00    +0.000 NA
ATOM      7  C   UNL     1       1.248   9.146  19.957  0.00  0.00    +0.000 A 
BRANCH   5   8
ATOM      8  O   UNL     1       3.041   6.048  19.738  0.00  0.00    +0.000 OA
BRANCH   8   9
ATOM      9  C   UNL     1       2.343   4.901  19.403  0.00  0.00    +0.000 A 
ATOM     10  C   UNL     1       1.452   4.369  20.343  0.00  0.00    +0.000 A 
ATOM     11  C   UNL     1       0.772   3.176  20.058  0.00  0.00    +0.000 A 
ATOM     12  C   UNL     1       0.983   2.538  18.838  0.00  0.00    +0.000 A 
ATOM     13  F   UNL     1       0.364   1.378  18.581  0.00  0.00    +0.000 F 
ATOM     14  C   UNL     1       1.825   3.083  17.880  0.00  0.00    +0.000 A 
ATOM     15  C   UNL     1       2.481   4.281  18.152  0.00  0.00    +0.000 A 
ENDBRANCH   8   9
ENDBRANCH   5   8
ENDBRANCH   1   2
BRANCH   1  18
ATOM     16  O   UNL     1      -0.718  13.287  19.017  0.00  0.00    +0.000 OA
ATOM     17  C   UNL     1      -1.299  12.229  18.764  0.00  0.00    +0.000 C 
ATOM     18  N   UNL     1      -0.602  11.081  18.432  0.00  0.00    +0.000 N 
ATOM     19  H   UNL     1      -1.140  10.242  18.235  0.00  0.00    +0.000 HD
BRANCH  17  20
ATOM     20  C   UNL     1      -2.735  12.078  18.796  0.00  0.00    +0.000 A 
ATOM     21  C   UNL     1      -3.609  11.502  17.894  0.00  0.00    +0.000 A 
ATOM     22  C   UNL     1      -4.917  11.655  18.424  0.00  0.00    +0.000 A 
ATOM     23  C   UNL     1      -6.218  11.310  18.016  0.00  0.00    +0.000 A 
ATOM     24  C   UNL     1      -7.297  11.655  18.843  0.00  0.00    +0.000 A 
ATOM     25  C   UNL     1      -7.093  12.326  20.051  0.00  0.00    +0.000 A 
ATOM     26  C   UNL     1      -5.805  12.674  20.477  0.00  0.00    +0.000 A 
ATOM     27  C   UNL     1      -4.755  12.320  19.633  0.00  0.00    +0.000 A 
ATOM     28  O   UNL     1      -3.437  12.574  19.867  0.00  0.00    +0.000 OA
ENDBRANCH  17  20
ENDBRANCH   1  18
TORSDOF 5
ENDMDL
MODEL 8
REMARK VINA RESULT:      -7.9      7.007      9.388
REMARK  Name = 
REMARK  5 active torsions:
REMARK  status: ('A' for Active; 'I' for Inactive)
REMARK    1  A    between atoms: C_2  and  C_19
REMARK    2  A    between atoms: N_3  and  C_4
REMARK    3  A    between atoms: C_4  and  C_5
REMARK    4  A    between atoms: C_8  and  O_9
REMARK    5  A    between atoms: O_9  and  C_10
REMARK                            x       y       z     vdW  Elec       q    Type
REMARK                         _______ _______ _______ _____ _____    ______ ____
ROOT
ATOM      1  C   UNL     1       0.549  11.160  18.387  0.00  0.00    +0.000 C 
ENDROOT
BRANCH   1   2
ATOM      2  C   UNL     1       1.203   9.857  18.735  0.00  0.00    +0.000 A 
ATOM      3  C   UNL     1       1.965   9.131  17.812  0.00  0.00    +0.000 A 
ATOM      4  C   UNL     1       2.529   7.905  18.177  0.00  0.00    +0.000 A 
ATOM      5  C   UNL     1       2.328   7.453  19.473  0.00  0.00    +0.000 A 
ATOM      6  N   UNL     1       1.569   8.117  20.375  0.00  0.00    +0.000 NA
ATOM      7  C   UNL     1       1.046   9.303  19.999  0.00  0.00    +0.000 A 
BRANCH   5   8
ATOM      8  O   UNL     1       2.973   6.280  19.867  0.00  0.00    +0.000 OA
BRANCH   8   9
ATOM      9  C   UNL     1       2.323   5.094  19.574  0.00  0.00    +0.000 A 
ATOM     10  C   UNL     1       2.572   4.490  18.336  0.00  0.00    +0.000 A 
ATOM     11  C   UNL     1       1.886   3.318  17.984  0.00  0.00    +0.000 A 
ATOM     12  C   UNL     1       0.972   2.762  18.875  0.00  0.00    +0.000 A 
ATOM     13  F   UNL     1       0.288   1.665  18.525  0.00  0.00    +0.000 F 
ATOM     14  C   UNL     1       0.756   3.324  20.125  0.00  0.00    +0.000 A 
ATOM     15  C   UNL     1       1.455   4.473  20.484  0.00  0.00    +0.000 A 
ENDBRANCH   8   9
ENDBRANCH   5   8
ENDBRANCH   1   2
BRANCH   1  18
ATOM     16  O   UNL     1      -0.739  13.600  18.697  0.00  0.00    +0.000 OA
ATOM     17  C   UNL     1      -1.305  12.593  19.127  0.00  0.00    +0.000 C 
ATOM     18  N   UNL     1      -0.744  11.335  19.000  0.00  0.00    +0.000 N 
ATOM     19  H   UNL     1      -1.262  10.546  19.375  0.00  0.00    +0.000 HD
BRANCH  17  20
ATOM     20  C   UNL     1      -2.583  12.621  19.800  0.00  0.00    +0.000 A 
ATOM     21  C   UNL     1      -2.932  13.042  21.069  0.00  0.00    +0.000 A 
ATOM     22  C   UNL     1      -4.328  12.823  21.212  0.00  0.00    +0.000 A 
ATOM     23  C   UNL     1      -5.281  13.019  22.227  0.00  0.00    +0.000 A 
ATOM     24  C   UNL     1      -6.613  12.653  21.979  0.00  0.00    +0.000 A 
ATOM     25  C   UNL     1      -6.994  12.107  20.751  0.00  0.00    +0.000 A 
ATOM     26  C   UNL     1      -6.060  11.909  19.727  0.00  0.00    +0.000 A 
ATOM     27  C   UNL     1      -4.746  12.279  20.004  0.00  0.00    +0.000 A 
ATOM     28  O   UNL     1      -3.697  12.159  19.143  0.00  0.00    +0.000 OA
ENDBRANCH  17  20
ENDBRANCH   1  18
TORSDOF 5
ENDMDL
MODEL 9
REMARK VINA RESULT:      -7.9      6.212      8.690
REMARK  Name = 
REMARK  5 active torsions:
REMARK  status: ('A' for Active; 'I' for Inactive)
REMARK    1  A    between atoms: C_2  and  C_19
REMARK    2  A    between atoms: N_3  and  C_4
REMARK    3  A    between atoms: C_4  and  C_5
REMARK    4  A    between atoms: C_8  and  O_9
REMARK    5  A    between atoms: O_9  and  C_10
REMARK                            x       y       z     vdW  Elec       q    Type
REMARK                         _______ _______ _______ _____ _____    ______ ____
ROOT
ATOM      1  C   UNL     1       1.376   7.686  21.230  0.00  0.00    +0.000 C 
ENDROOT
BRANCH   1   2
ATOM      2  C   UNL     1       0.679   8.937  20.789  0.00  0.00    +0.000 A 
ATOM      3  C   UNL     1       0.885   9.503  19.525  0.00  0.00    +0.000 A 
ATOM      4  C   UNL     1       0.234  10.689  19.172  0.00  0.00    +0.000 A 
ATOM      5  C   UNL     1      -0.627  11.262  20.096  0.00  0.00    +0.000 A 
ATOM      6  N   UNL     1      -0.819  10.756  21.336  0.00  0.00    +0.000 NA
ATOM      7  C   UNL     1      -0.186   9.605  21.646  0.00  0.00    +0.000 A 
BRANCH   5   8
ATOM      8  O   UNL     1      -1.352  12.389  19.708  0.00  0.00    +0.000 OA
BRANCH   8   9
ATOM      9  C   UNL     1      -2.658  12.172  19.309  0.00  0.00    +0.000 A 
ATOM     10  C   UNL     1      -2.879  11.537  18.081  0.00  0.00    +0.000 A 
ATOM     11  C   UNL     1      -4.192  11.353  17.620  0.00  0.00    +0.000 A 
ATOM     12  C   UNL     1      -5.261  11.795  18.394  0.00  0.00    +0.000 A 
ATOM     13  F   UNL     1      -6.513  11.655  17.938  0.00  0.00    +0.000 F 
ATOM     14  C   UNL     1      -5.055  12.380  19.635  0.00  0.00    +0.000 A 
ATOM     15  C   UNL     1      -3.754  12.540  20.104  0.00  0.00    +0.000 A 
ENDBRANCH   8   9
ENDBRANCH   5   8
ENDBRANCH   1   2
BRANCH   1  18
ATOM     16  O   UNL     1       1.486   5.029  20.435  0.00  0.00    +0.000 OA
ATOM     17  C   UNL     1       2.285   5.816  19.922  0.00  0.00    +0.000 C 
ATOM     18  N   UNL     1       2.289   7.160  20.247  0.00  0.00    +0.000 N 
ATOM     19  H   UNL     1       2.972   7.755  19.788  0.00  0.00    +0.000 HD
BRANCH  17  20
ATOM     20  C   UNL     1       3.283   5.423  18.955  0.00  0.00    +0.000 A 
ATOM     21  C   UNL     1       3.158   4.903  17.680  0.00  0.00    +0.000 A 
ATOM     22  C   UNL     1       4.473   4.680  17.190  0.00  0.00    +0.000 A 
ATOM     23  C   UNL     1       5.035   4.177  16.003  0.00  0.00    +0.000 A 
ATOM     24  C   UNL     1       6.432   4.103  15.899  0.00  0.00    +0.000 A 
ATOM     25  C   UNL     1       7.256   4.521  16.946  0.00  0.00    +0.000 A 
ATOM     26  C   UNL     1       6.715   5.029  18.133  0.00  0.00    +0.000 A 
ATOM     27  C   UNL     1       5.325   5.087  18.208  0.00  0.00    +0.000 A 
ATOM     28  O   UNL     1       4.613   5.543  19.276  0.00  0.00    +0.000 OA
ENDBRANCH  17  20
ENDBRANCH   1  18
TORSDOF 5
ENDMDL
