MODEL 1
REMARK VINA RESULT:      -8.6      0.000      0.000
REMARK  Name = 
REMARK  4 active torsions:
REMARK  status: ('A' for Active; 'I' for Inactive)
REMARK    1  A    between atoms: C_1  and  C_2
REMARK    2  A    between atoms: C_2  and  C_3
REMARK    3  A    between atoms: C_13  and  C_15
REMARK    4  A    between atoms: C_15  and  C_16
REMARK                            x       y       z     vdW  Elec       q    Type
REMARK                         _______ _______ _______ _____ _____    ______ ____
ROOT
ATOM      1  C   UNL     1      -0.216  13.538  19.737  0.00  0.00    +0.000 C 
ATOM      2  C   UNL     1      -0.413  12.028  19.478  0.00  0.00    +0.000 C 
ATOM      3  C   UNL     1       0.720  11.532  18.530  0.00  0.00    +0.000 C 
ATOM      4  C   UNL     1       0.731  10.008  18.369  0.00  0.00    +0.000 C 
ATOM      5  N   UNL     1       0.823   9.349  19.670  0.00  0.00    +0.000 N 
ATOM      6  C   UNL     1       1.613   8.240  19.963  0.00  0.00    +0.000 C 
ATOM      7  O   UNL     1       1.694   7.794  21.107  0.00  0.00    +0.000 OA
ATOM      8  C   UNL     1      -0.167   9.767  20.658  0.00  0.00    +0.000 C 
ATOM      9  C   UNL     1      -0.188  11.282  20.826  0.00  0.00    +0.000 C 
ENDROOT
BRANCH   2  10
ATOM     10  C   UNL     1      -1.832  11.861  18.890  0.00  0.00    +0.000 A 
ATOM     11  C   UNL     1      -2.982  12.193  19.632  0.00  0.00    +0.000 A 
ATOM     12  C   UNL     1      -4.267  12.080  19.088  0.00  0.00    +0.000 A 
ATOM     13  C   UNL     1      -4.436  11.645  17.778  0.00  0.00    +0.000 A 
ATOM     14  C   UNL     1      -3.317  11.336  17.016  0.00  0.00    +0.000 A 
ATOM     15 CL   UNL     1      -3.512  10.820  15.385  0.00  0.00    +0.000 Cl
ATOM     16  C   UNL     1      -2.031  11.449  17.557  0.00  0.00    +0.000 A 
ENDBRANCH   2  10
BRANCH   6  17
ATOM     17  C   UNL     1       2.370   7.605  18.813  0.00  0.00    +0.000 C 
BRANCH  17  18
ATOM     18  C   UNL     1       3.415   6.589  19.305  0.00  0.00    +0.000 C 
ATOM     19  O   UNL     1       2.822   5.667  20.222  0.00  0.00    +0.000 OA
ATOM     20  C   UNL     1       2.228   4.581  19.645  0.00  0.00    +0.000 A 
ATOM     21  C   UNL     1       1.330   3.870  20.435  0.00  0.00    +0.000 A 
ATOM     22  C   UNL     1       0.703   2.736  19.919  0.00  0.00    +0.000 A 
ATOM     23  C   UNL     1       0.982   2.315  18.617  0.00  0.00    +0.000 A 
ATOM     24  C   UNL     1       1.899   3.017  17.831  0.00  0.00    +0.000 A 
ATOM     25  C   UNL     1       2.525   4.148  18.352  0.00  0.00    +0.000 A 
ATOM     26  N   UNL     1       3.490   4.824  17.603  0.00  0.00    +0.000 N 
ATOM     27  C   UNL     1       4.093   5.960  18.080  0.00  0.00    +0.000 C 
ATOM     28  O   UNL     1       5.037   6.478  17.486  0.00  0.00    +0.000 OA
ATOM     29  H   UNL     1       3.846   4.437  16.739  0.00  0.00    +0.000 HD
ENDBRANCH  17  18
ENDBRANCH   6  17
TORSDOF 3
ENDMDL
MODEL 2
REMARK VINA RESULT:      -8.5      3.275      8.741
REMARK  Name = 
REMARK  4 active torsions:
REMARK  status: ('A' for Active; 'I' for Inactive)
REMARK    1  A    between atoms: C_1  and  C_2
REMARK    2  A    between atoms: C_2  and  C_3
REMARK    3  A    between atoms: C_13  and  C_15
REMARK    4  A    between atoms: C_15  and  C_16
REMARK                            x       y       z     vdW  Elec       q    Type
REMARK                         _______ _______ _______ _____ _____    ______ ____
ROOT
ATOM      1  C   UNL     1       2.279   3.805  17.582  0.00  0.00    +0.000 C 
ATOM      2  C   UNL     1       2.774   5.105  18.254  0.00  0.00    +0.000 C 
ATOM      3  C   UNL     1       2.081   6.319  17.566  0.00  0.00    +0.000 C 
ATOM      4  C   UNL     1       2.353   7.642  18.287  0.00  0.00    +0.000 C 
ATOM      5  N   UNL     1       1.963   7.557  19.693  0.00  0.00    +0.000 N 
ATOM      6  C   UNL     1       1.300   8.548  20.412  0.00  0.00    +0.000 C 
ATOM      7  O   UNL     1       0.939   8.365  21.574  0.00  0.00    +0.000 OA
ATOM      8  C   UNL     1       2.523   6.429  20.433  0.00  0.00    +0.000 C 
ATOM      9  C   UNL     1       2.259   5.106  19.723  0.00  0.00    +0.000 C 
ENDROOT
BRANCH   2  10
ATOM     10  C   UNL     1       4.314   5.113  18.122  0.00  0.00    +0.000 A 
ATOM     11  C   UNL     1       5.150   5.262  19.245  0.00  0.00    +0.000 A 
ATOM     12  C   UNL     1       6.546   5.230  19.133  0.00  0.00    +0.000 A 
ATOM     13  C   UNL     1       7.143   5.032  17.894  0.00  0.00    +0.000 A 
ATOM     14  C   UNL     1       6.341   4.857  16.774  0.00  0.00    +0.000 A 
ATOM     15 CL   UNL     1       7.070   4.588  15.237  0.00  0.00    +0.000 Cl
ATOM     16  C   UNL     1       4.946   4.887  16.883  0.00  0.00    +0.000 A 
ENDBRANCH   2  10
BRANCH   6  17
ATOM     17  C   UNL     1       1.044   9.863  19.705  0.00  0.00    +0.000 C 
BRANCH  17  18
ATOM     18  C   UNL     1      -0.445  10.248  19.731  0.00  0.00    +0.000 C 
ATOM     19  O   UNL     1      -0.694  11.214  20.756  0.00  0.00    +0.000 OA
ATOM     20  C   UNL     1      -0.498  12.513  20.384  0.00  0.00    +0.000 A 
ATOM     21  C   UNL     1      -0.356  13.439  21.413  0.00  0.00    +0.000 A 
ATOM     22  C   UNL     1      -0.176  14.788  21.109  0.00  0.00    +0.000 A 
ATOM     23  C   UNL     1      -0.144  15.205  19.776  0.00  0.00    +0.000 A 
ATOM     24  C   UNL     1      -0.307  14.277  18.743  0.00  0.00    +0.000 A 
ATOM     25  C   UNL     1      -0.489  12.931  19.053  0.00  0.00    +0.000 A 
ATOM     26  N   UNL     1      -0.716  12.001  18.037  0.00  0.00    +0.000 N 
ATOM     27  C   UNL     1      -0.862  10.666  18.314  0.00  0.00    +0.000 C 
ATOM     28  O   UNL     1      -1.197   9.867  17.442  0.00  0.00    +0.000 OA
ATOM     29  H   UNL     1      -0.884  12.300  17.085  0.00  0.00    +0.000 HD
ENDBRANCH  17  18
ENDBRANCH   6  17
TORSDOF 3
ENDMDL
MODEL 3
REMARK VINA RESULT:      -8.4      3.310      8.841
REMARK  Name = 
REMARK  4 active torsions:
REMARK  status: ('A' for Active; 'I' for Inactive)
REMARK    1  A    between atoms: C_1  and  C_2
REMARK    2  A    between atoms: C_2  and  C_3
REMARK    3  A    between atoms: C_13  and  C_15
REMARK    4  A    between atoms: C_15  and  C_16
REMARK                            x       y       z     vdW  Elec       q    Type
REMARK                         _______ _______ _______ _____ _____    ______ ____
ROOT
ATOM      1  C   UNL     1       2.321   3.129  18.012  0.00  0.00    +0.000 C 
ATOM      2  C   UNL     1       2.862   4.538  18.338  0.00  0.00    +0.000 C 
ATOM      3  C   UNL     1       1.998   5.592  17.583  0.00  0.00    +0.000 C 
ATOM      4  C   UNL     1       2.327   7.031  17.994  0.00  0.00    +0.000 C 
ATOM      5  N   UNL     1       2.198   7.201  19.440  0.00  0.00    +0.000 N 
ATOM      6  C   UNL     1       1.625   8.296  20.079  0.00  0.00    +0.000 C 
ATOM      7  O   UNL     1       1.485   8.325  21.301  0.00  0.00    +0.000 OA
ATOM      8  C   UNL     1       2.936   6.239  20.253  0.00  0.00    +0.000 C 
ATOM      9  C   UNL     1       2.617   4.803  19.852  0.00  0.00    +0.000 C 
ENDROOT
BRANCH   2  10
ATOM     10  C   UNL     1       4.351   4.547  17.926  0.00  0.00    +0.000 A 
ATOM     11  C   UNL     1       4.765   4.127  16.647  0.00  0.00    +0.000 A 
ATOM     12  C   UNL     1       6.109   4.171  16.257  0.00  0.00    +0.000 A 
ATOM     13  C   UNL     1       7.076   4.652  17.132  0.00  0.00    +0.000 A 
ATOM     14  C   UNL     1       6.691   5.097  18.390  0.00  0.00    +0.000 A 
ATOM     15 CL   UNL     1       7.876   5.718  19.474  0.00  0.00    +0.000 Cl
ATOM     16  C   UNL     1       5.348   5.055  18.782  0.00  0.00    +0.000 A 
ENDBRANCH   2  10
BRANCH   6  17
ATOM     17  C   UNL     1       1.182   9.454  19.207  0.00  0.00    +0.000 C 
BRANCH  17  18
ATOM     18  C   UNL     1      -0.252   9.905  19.537  0.00  0.00    +0.000 C 
ATOM     19  O   UNL     1      -0.243  10.856  20.605  0.00  0.00    +0.000 OA
ATOM     20  C   UNL     1      -0.062  12.153  20.220  0.00  0.00    +0.000 A 
ATOM     21  C   UNL     1       0.327  13.048  21.213  0.00  0.00    +0.000 A 
ATOM     22  C   UNL     1       0.509  14.393  20.898  0.00  0.00    +0.000 A 
ATOM     23  C   UNL     1       0.294  14.840  19.593  0.00  0.00    +0.000 A 
ATOM     24  C   UNL     1      -0.116  13.946  18.600  0.00  0.00    +0.000 A 
ATOM     25  C   UNL     1      -0.299  12.603  18.920  0.00  0.00    +0.000 A 
ATOM     26  N   UNL     1      -0.769  11.709  17.956  0.00  0.00    +0.000 N 
ATOM     27  C   UNL     1      -0.922  10.375  18.238  0.00  0.00    +0.000 C 
ATOM     28  O   UNL     1      -1.462   9.613  17.439  0.00  0.00    +0.000 OA
ATOM     29  H   UNL     1      -1.109  12.037  17.062  0.00  0.00    +0.000 HD
ENDBRANCH  17  18
ENDBRANCH   6  17
TORSDOF 3
ENDMDL
MODEL 4
REMARK VINA RESULT:      -8.4      2.525      3.789
REMARK  Name = 
REMARK  4 active torsions:
REMARK  status: ('A' for Active; 'I' for Inactive)
REMARK    1  A    between atoms: C_1  and  C_2
REMARK    2  A    between atoms: C_2  and  C_3
REMARK    3  A    between atoms: C_13  and  C_15
REMARK    4  A    between atoms: C_15  and  C_16
REMARK                            x       y       z     vdW  Elec       q    Type
REMARK                         _______ _______ _______ _____ _____    ______ ____
ROOT
ATOM      1  C   UNL     1       1.197  12.084  19.793  0.00  0.00    +0.000 C 
ATOM      2  C   UNL     1       0.945  10.655  19.264  0.00  0.00    +0.000 C 
ATOM      3  C   UNL     1       2.076  10.289  18.257  0.00  0.00    +0.000 C 
ATOM      4  C   UNL     1       2.029   8.820  17.824  0.00  0.00    +0.000 C 
ATOM      5  N   UNL     1       2.068   7.934  18.986  0.00  0.00    +0.000 N 
ATOM      6  C   UNL     1       2.807   6.758  19.085  0.00  0.00    +0.000 C 
ATOM      7  O   UNL     1       2.846   6.110  20.130  0.00  0.00    +0.000 OA
ATOM      8  C   UNL     1       1.075   8.211  20.021  0.00  0.00    +0.000 C 
ATOM      9  C   UNL     1       1.112   9.671  20.458  0.00  0.00    +0.000 C 
ENDROOT
BRANCH   2  10
ATOM     10  C   UNL     1      -0.467  10.658  18.637  0.00  0.00    +0.000 A 
ATOM     11  C   UNL     1      -0.779   9.862  17.518  0.00  0.00    +0.000 A 
ATOM     12  C   UNL     1      -2.068   9.832  16.972  0.00  0.00    +0.000 A 
ATOM     13  C   UNL     1      -3.086  10.588  17.541  0.00  0.00    +0.000 A 
ATOM     14  C   UNL     1      -2.812  11.361  18.661  0.00  0.00    +0.000 A 
ATOM     15 CL   UNL     1      -4.070  12.283  19.390  0.00  0.00    +0.000 Cl
ATOM     16  C   UNL     1      -1.524  11.392  19.210  0.00  0.00    +0.000 A 
ENDBRANCH   2  10
BRANCH   6  17
ATOM     17  C   UNL     1       3.560   6.307  17.849  0.00  0.00    +0.000 C 
BRANCH  17  18
ATOM     18  C   UNL     1       4.273   4.962  18.071  0.00  0.00    +0.000 C 
ATOM     19  O   UNL     1       4.182   4.150  16.898  0.00  0.00    +0.000 OA
ATOM     20  C   UNL     1       5.159   4.367  15.969  0.00  0.00    +0.000 A 
ATOM     21  C   UNL     1       4.910   3.895  14.683  0.00  0.00    +0.000 A 
ATOM     22  C   UNL     1       5.873   4.061  13.688  0.00  0.00    +0.000 A 
ATOM     23  C   UNL     1       7.082   4.692  13.985  0.00  0.00    +0.000 A 
ATOM     24  C   UNL     1       7.340   5.148  15.281  0.00  0.00    +0.000 A 
ATOM     25  C   UNL     1       6.376   4.977  16.272  0.00  0.00    +0.000 A 
ATOM     26  N   UNL     1       6.643   5.369  17.586  0.00  0.00    +0.000 N 
ATOM     27  C   UNL     1       5.697   5.245  18.570  0.00  0.00    +0.000 C 
ATOM     28  O   UNL     1       5.972   5.460  19.749  0.00  0.00    +0.000 OA
ATOM     29  H   UNL     1       7.572   5.655  17.866  0.00  0.00    +0.000 HD
ENDBRANCH  17  18
ENDBRANCH   6  17
TORSDOF 3
ENDMDL
MODEL 5
REMARK VINA RESULT:      -8.3      1.555      2.705
REMARK  Name = 
REMARK  4 active torsions:
REMARK  status: ('A' for Active; 'I' for Inactive)
REMARK    1  A    between atoms: C_1  and  C_2
REMARK    2  A    between atoms: C_2  and  C_3
REMARK    3  A    between atoms: C_13  and  C_15
REMARK    4  A    between atoms: C_15  and  C_16
REMARK                            x       y       z     vdW  Elec       q    Type
REMARK                         _______ _______ _______ _____ _____    ______ ____
ROOT
ATOM      1  C   UNL     1      -0.877  13.438  19.527  0.00  0.00    +0.000 C 
ATOM      2  C   UNL     1      -0.833  11.909  19.308  0.00  0.00    +0.000 C 
ATOM      3  C   UNL     1       0.535  11.536  18.662  0.00  0.00    +0.000 C 
ATOM      4  C   UNL     1       0.759  10.023  18.585  0.00  0.00    +0.000 C 
ATOM      5  N   UNL     1       0.630   9.410  19.906  0.00  0.00    +0.000 N 
ATOM      6  C   UNL     1       1.456   8.416  20.423  0.00  0.00    +0.000 C 
ATOM      7  O   UNL     1       1.326   8.009  21.577  0.00  0.00    +0.000 OA
ATOM      8  C   UNL     1      -0.601   9.724  20.626  0.00  0.00    +0.000 C 
ATOM      9  C   UNL     1      -0.835  11.229  20.708  0.00  0.00    +0.000 C 
ENDROOT
BRANCH   2  10
ATOM     10  C   UNL     1      -2.052  11.553  18.428  0.00  0.00    +0.000 A 
ATOM     11  C   UNL     1      -3.371  11.787  18.865  0.00  0.00    +0.000 A 
ATOM     12  C   UNL     1      -4.476  11.501  18.054  0.00  0.00    +0.000 A 
ATOM     13  C   UNL     1      -4.291  10.989  16.775  0.00  0.00    +0.000 A 
ATOM     14  C   UNL     1      -3.001  10.774  16.310  0.00  0.00    +0.000 A 
ATOM     15 CL   UNL     1      -2.758  10.162  14.719  0.00  0.00    +0.000 Cl
ATOM     16  C   UNL     1      -1.894  11.059  17.118  0.00  0.00    +0.000 A 
ENDBRANCH   2  10
BRANCH   6  17
ATOM     17  C   UNL     1       2.522   7.853  19.504  0.00  0.00    +0.000 C 
BRANCH  17  18
ATOM     18  C   UNL     1       2.146   6.458  18.976  0.00  0.00    +0.000 C 
ATOM     19  O   UNL     1       2.688   6.256  17.669  0.00  0.00    +0.000 OA
ATOM     20  C   UNL     1       3.967   5.779  17.642  0.00  0.00    +0.000 A 
ATOM     21  C   UNL     1       4.659   5.923  16.443  0.00  0.00    +0.000 A 
ATOM     22  C   UNL     1       5.962   5.439  16.335  0.00  0.00    +0.000 A 
ATOM     23  C   UNL     1       6.565   4.808  17.425  0.00  0.00    +0.000 A 
ATOM     24  C   UNL     1       5.863   4.646  18.623  0.00  0.00    +0.000 A 
ATOM     25  C   UNL     1       4.560   5.129  18.725  0.00  0.00    +0.000 A 
ATOM     26  N   UNL     1       3.823   4.919  19.891  0.00  0.00    +0.000 N 
ATOM     27  C   UNL     1       2.552   5.416  20.028  0.00  0.00    +0.000 C 
ATOM     28  O   UNL     1       1.852   5.119  20.995  0.00  0.00    +0.000 OA
ATOM     29  H   UNL     1       4.164   4.307  20.621  0.00  0.00    +0.000 HD
ENDBRANCH  17  18
ENDBRANCH   6  17
TORSDOF 3
ENDMDL
MODEL 6
REMARK VINA RESULT:      -8.2      3.334      8.819
REMARK  Name = 
REMARK  4 active torsions:
REMARK  status: ('A' for Active; 'I' for Inactive)
REMARK    1  A    between atoms: C_1  and  C_2
REMARK    2  A    between atoms: C_2  and  C_3
REMARK    3  A    between atoms: C_13  and  C_15
REMARK    4  A    between atoms: C_15  and  C_16
REMARK                            x       y       z     vdW  Elec       q    Type
REMARK                         _______ _______ _______ _____ _____    ______ ____
ROOT
ATOM      1  C   UNL     1       2.048   3.895  17.743  0.00  0.00    +0.000 C 
ATOM      2  C   UNL     1       2.594   5.199  18.365  0.00  0.00    +0.000 C 
ATOM      3  C   UNL     1       1.931   6.412  17.645  0.00  0.00    +0.000 C 
ATOM      4  C   UNL     1       2.256   7.748  18.320  0.00  0.00    +0.000 C 
ATOM      5  N   UNL     1       1.883   7.722  19.733  0.00  0.00    +0.000 N 
ATOM      6  C   UNL     1       1.263   8.757  20.427  0.00  0.00    +0.000 C 
ATOM      7  O   UNL     1       0.912   8.624  21.599  0.00  0.00    +0.000 OA
ATOM      8  C   UNL     1       2.417   6.601  20.502  0.00  0.00    +0.000 C 
ATOM      9  C   UNL     1       2.100   5.265  19.839  0.00  0.00    +0.000 C 
ENDROOT
BRANCH   2  10
ATOM     10  C   UNL     1       4.131   5.152  18.212  0.00  0.00    +0.000 A 
ATOM     11  C   UNL     1       4.988   5.335  19.315  0.00  0.00    +0.000 A 
ATOM     12  C   UNL     1       6.380   5.254  19.187  0.00  0.00    +0.000 A 
ATOM     13  C   UNL     1       6.954   4.972  17.953  0.00  0.00    +0.000 A 
ATOM     14  C   UNL     1       6.130   4.762  16.854  0.00  0.00    +0.000 A 
ATOM     15 CL   UNL     1       6.828   4.389  15.325  0.00  0.00    +0.000 Cl
ATOM     16  C   UNL     1       4.738   4.841  16.979  0.00  0.00    +0.000 A 
ENDBRANCH   2  10
BRANCH   6  17
ATOM     17  C   UNL     1       1.039  10.057  19.680  0.00  0.00    +0.000 C 
BRANCH  17  18
ATOM     18  C   UNL     1       0.344  11.111  20.558  0.00  0.00    +0.000 C 
ATOM     19  O   UNL     1       1.312  11.956  21.185  0.00  0.00    +0.000 OA
ATOM     20  C   UNL     1       1.711  13.028  20.440  0.00  0.00    +0.000 A 
ATOM     21  C   UNL     1       2.895  13.649  20.827  0.00  0.00    +0.000 A 
ATOM     22  C   UNL     1       3.352  14.764  20.126  0.00  0.00    +0.000 A 
ATOM     23  C   UNL     1       2.620  15.257  19.044  0.00  0.00    +0.000 A 
ATOM     24  C   UNL     1       1.421  14.646  18.667  0.00  0.00    +0.000 A 
ATOM     25  C   UNL     1       0.967  13.533  19.373  0.00  0.00    +0.000 A 
ATOM     26  N   UNL     1      -0.259  12.950  19.050  0.00  0.00    +0.000 N 
ATOM     27  C   UNL     1      -0.710  11.833  19.706  0.00  0.00    +0.000 C 
ATOM     28  O   UNL     1      -1.845  11.398  19.520  0.00  0.00    +0.000 OA
ATOM     29  H   UNL     1      -0.894  13.395  18.400  0.00  0.00    +0.000 HD
ENDBRANCH  17  18
ENDBRANCH   6  17
TORSDOF 3
ENDMDL
MODEL 7
REMARK VINA RESULT:      -8.2      1.671      3.007
REMARK  Name = 
REMARK  4 active torsions:
REMARK  status: ('A' for Active; 'I' for Inactive)
REMARK    1  A    between atoms: C_1  and  C_2
REMARK    2  A    between atoms: C_2  and  C_3
REMARK    3  A    between atoms: C_13  and  C_15
REMARK    4  A    between atoms: C_15  and  C_16
REMARK                            x       y       z     vdW  Elec       q    Type
REMARK                         _______ _______ _______ _____ _____    ______ ____
ROOT
ATOM      1  C   UNL     1      -0.603  13.108  19.386  0.00  0.00    +0.000 C 
ATOM      2  C   UNL     1      -0.548  11.581  19.163  0.00  0.00    +0.000 C 
ATOM      3  C   UNL     1       0.862  11.207  18.614  0.00  0.00    +0.000 C 
ATOM      4  C   UNL     1       1.087   9.693  18.545  0.00  0.00    +0.000 C 
ATOM      5  N   UNL     1       0.862   9.074  19.850  0.00  0.00    +0.000 N 
ATOM      6  C   UNL     1       1.646   8.075  20.420  0.00  0.00    +0.000 C 
ATOM      7  O   UNL     1       1.432   7.663  21.559  0.00  0.00    +0.000 OA
ATOM      8  C   UNL     1      -0.417   9.389  20.482  0.00  0.00    +0.000 C 
ATOM      9  C   UNL     1      -0.652  10.893  20.555  0.00  0.00    +0.000 C 
ENDROOT
BRANCH   2  10
ATOM     10  C   UNL     1      -1.701  11.233  18.195  0.00  0.00    +0.000 A 
ATOM     11  C   UNL     1      -1.531  10.308  17.147  0.00  0.00    +0.000 A 
ATOM     12  C   UNL     1      -2.586   9.961  16.293  0.00  0.00    +0.000 A 
ATOM     13  C   UNL     1      -3.846  10.520  16.475  0.00  0.00    +0.000 A 
ATOM     14  C   UNL     1      -4.047  11.415  17.517  0.00  0.00    +0.000 A 
ATOM     15 CL   UNL     1      -5.608  12.096  17.768  0.00  0.00    +0.000 Cl
ATOM     16  C   UNL     1      -2.995  11.763  18.373  0.00  0.00    +0.000 A 
ENDBRANCH   2  10
BRANCH   6  17
ATOM     17  C   UNL     1       2.774   7.514  19.577  0.00  0.00    +0.000 C 
BRANCH  17  18
ATOM     18  C   UNL     1       2.436   6.120  19.021  0.00  0.00    +0.000 C 
ATOM     19  O   UNL     1       2.881   6.000  17.668  0.00  0.00    +0.000 OA
ATOM     20  C   UNL     1       4.179   5.602  17.521  0.00  0.00    +0.000 A 
ATOM     21  C   UNL     1       4.764   5.831  16.279  0.00  0.00    +0.000 A 
ATOM     22  C   UNL     1       6.079   5.430  16.049  0.00  0.00    +0.000 A 
ATOM     23  C   UNL     1       6.802   4.795  17.061  0.00  0.00    +0.000 A 
ATOM     24  C   UNL     1       6.209   4.546  18.302  0.00  0.00    +0.000 A 
ATOM     25  C   UNL     1       4.893   4.947  18.526  0.00  0.00    +0.000 A 
ATOM     26  N   UNL     1       4.265   4.650  19.737  0.00  0.00    +0.000 N 
ATOM     27  C   UNL     1       2.984   5.065  19.993  0.00  0.00    +0.000 C 
ATOM     28  O   UNL     1       2.381   4.691  20.998  0.00  0.00    +0.000 OA
ATOM     29  H   UNL     1       4.698   4.033  20.411  0.00  0.00    +0.000 HD
ENDBRANCH  17  18
ENDBRANCH   6  17
TORSDOF 3
ENDMDL
MODEL 8
REMARK VINA RESULT:      -8.2      1.908      2.258
REMARK  Name = 
REMARK  4 active torsions:
REMARK  status: ('A' for Active; 'I' for Inactive)
REMARK    1  A    between atoms: C_1  and  C_2
REMARK    2  A    between atoms: C_2  and  C_3
REMARK    3  A    between atoms: C_13  and  C_15
REMARK    4  A    between atoms: C_15  and  C_16
REMARK                            x       y       z     vdW  Elec       q    Type
REMARK                         _______ _______ _______ _____ _____    ______ ____
ROOT
ATOM      1  C   UNL     1      -0.262  13.406  18.400  0.00  0.00    +0.000 C 
ATOM      2  C   UNL     1      -0.691  12.214  19.284  0.00  0.00    +0.000 C 
ATOM      3  C   UNL     1      -0.287  10.890  18.569  0.00  0.00    +0.000 C 
ATOM      4  C   UNL     1      -0.490   9.655  19.452  0.00  0.00    +0.000 C 
ATOM      5  N   UNL     1       0.228   9.796  20.717  0.00  0.00    +0.000 N 
ATOM      6  C   UNL     1       0.957   8.795  21.352  0.00  0.00    +0.000 C 
ATOM      7  O   UNL     1       1.599   9.020  22.378  0.00  0.00    +0.000 OA
ATOM      8  C   UNL     1      -0.042  11.025  21.459  0.00  0.00    +0.000 C 
ATOM      9  C   UNL     1       0.156  12.261  20.589  0.00  0.00    +0.000 C 
ENDROOT
BRANCH   2  10
ATOM     10  C   UNL     1      -2.213  12.356  19.511  0.00  0.00    +0.000 A 
ATOM     11  C   UNL     1      -3.147  11.788  18.623  0.00  0.00    +0.000 A 
ATOM     12  C   UNL     1      -4.527  11.881  18.846  0.00  0.00    +0.000 A 
ATOM     13  C   UNL     1      -5.009  12.534  19.975  0.00  0.00    +0.000 A 
ATOM     14  C   UNL     1      -4.109  13.080  20.880  0.00  0.00    +0.000 A 
ATOM     15 CL   UNL     1      -4.694  13.870  22.294  0.00  0.00    +0.000 Cl
ATOM     16  C   UNL     1      -2.730  12.987  20.660  0.00  0.00    +0.000 A 
ENDBRANCH   2  10
BRANCH   6  17
ATOM     17  C   UNL     1       0.926   7.414  20.729  0.00  0.00    +0.000 C 
BRANCH  17  18
ATOM     18  C   UNL     1       2.333   6.928  20.340  0.00  0.00    +0.000 C 
ATOM     19  O   UNL     1       2.576   5.623  20.873  0.00  0.00    +0.000 OA
ATOM     20  C   UNL     1       2.144   4.591  20.090  0.00  0.00    +0.000 A 
ATOM     21  C   UNL     1       2.010   3.353  20.712  0.00  0.00    +0.000 A 
ATOM     22  C   UNL     1       1.596   2.249  19.969  0.00  0.00    +0.000 A 
ATOM     23  C   UNL     1       1.324   2.385  18.606  0.00  0.00    +0.000 A 
ATOM     24  C   UNL     1       1.477   3.624  17.978  0.00  0.00    +0.000 A 
ATOM     25  C   UNL     1       1.894   4.725  18.724  0.00  0.00    +0.000 A 
ATOM     26  N   UNL     1       2.113   5.954  18.099  0.00  0.00    +0.000 N 
ATOM     27  C   UNL     1       2.488   7.060  18.819  0.00  0.00    +0.000 C 
ATOM     28  O   UNL     1       2.814   8.105  18.258  0.00  0.00    +0.000 OA
ATOM     29  H   UNL     1       2.105   6.036  17.091  0.00  0.00    +0.000 HD
ENDBRANCH  17  18
ENDBRANCH   6  17
TORSDOF 3
ENDMDL
MODEL 9
REMARK VINA RESULT:      -8.1      1.469      1.572
REMARK  Name = 
REMARK  4 active torsions:
REMARK  status: ('A' for Active; 'I' for Inactive)
REMARK    1  A    between atoms: C_1  and  C_2
REMARK    2  A    between atoms: C_2  and  C_3
REMARK    3  A    between atoms: C_13  and  C_15
REMARK    4  A    between atoms: C_15  and  C_16
REMARK                            x       y       z     vdW  Elec       q    Type
REMARK                         _______ _______ _______ _____ _____    ______ ____
ROOT
ATOM      1  C   UNL     1       0.929  12.916  20.014  0.00  0.00    +0.000 C 
ATOM      2  C   UNL     1       0.574  11.479  19.575  0.00  0.00    +0.000 C 
ATOM      3  C   UNL     1       1.535  11.057  18.422  0.00  0.00    +0.000 C 
ATOM      4  C   UNL     1       1.396   9.578  18.048  0.00  0.00    +0.000 C 
ATOM      5  N   UNL     1       1.592   8.725  19.219  0.00  0.00    +0.000 N 
ATOM      6  C   UNL     1       2.315   7.536  19.244  0.00  0.00    +0.000 C 
ATOM      7  O   UNL     1       2.498   6.918  20.292  0.00  0.00    +0.000 OA
ATOM      8  C   UNL     1       0.770   9.054  20.380  0.00  0.00    +0.000 C 
ATOM      9  C   UNL     1       0.899  10.525  20.761  0.00  0.00    +0.000 C 
ENDROOT
BRANCH   2  10
ATOM     10  C   UNL     1      -0.916  11.496  19.165  0.00  0.00    +0.000 A 
ATOM     11  C   UNL     1      -1.874  12.222  19.899  0.00  0.00    +0.000 A 
ATOM     12  C   UNL     1      -3.218  12.272  19.508  0.00  0.00    +0.000 A 
ATOM     13  C   UNL     1      -3.637  11.608  18.360  0.00  0.00    +0.000 A 
ATOM     14  C   UNL     1      -2.707  10.906  17.604  0.00  0.00    +0.000 A 
ATOM     15 CL   UNL     1      -3.210  10.100  16.168  0.00  0.00    +0.000 Cl
ATOM     16  C   UNL     1      -1.363  10.856  17.992  0.00  0.00    +0.000 A 
ENDBRANCH   2  10
BRANCH   6  17
ATOM     17  C   UNL     1       2.867   7.032  17.925  0.00  0.00    +0.000 C 
BRANCH  17  18
ATOM     18  C   UNL     1       4.305   6.506  18.068  0.00  0.00    +0.000 C 
ATOM     19  O   UNL     1       4.391   5.572  19.147  0.00  0.00    +0.000 OA
ATOM     20  C   UNL     1       4.089   4.282  18.817  0.00  0.00    +0.000 A 
ATOM     21  C   UNL     1       3.790   3.424  19.872  0.00  0.00    +0.000 A 
ATOM     22  C   UNL     1       3.496   2.087  19.612  0.00  0.00    +0.000 A 
ATOM     23  C   UNL     1       3.507   1.611  18.300  0.00  0.00    +0.000 A 
ATOM     24  C   UNL     1       3.826   2.467  17.242  0.00  0.00    +0.000 A 
ATOM     25  C   UNL     1       4.123   3.802  17.507  0.00  0.00    +0.000 A 
ATOM     26  N   UNL     1       4.506   4.655  16.470  0.00  0.00    +0.000 N 
ATOM     27  C   UNL     1       4.767   5.982  16.701  0.00  0.00    +0.000 C 
ATOM     28  O   UNL     1       5.234   6.702  15.820  0.00  0.00    +0.000 OA
ATOM     29  H   UNL     1       4.703   4.297  15.545  0.00  0.00    +0.000 HD
ENDBRANCH  17  18
ENDBRANCH   6  17
TORSDOF 3
ENDMDL
