MODEL 1
REMARK VINA RESULT:      -7.0      0.000      0.000
REMARK  Name = 
REMARK  4 active torsions:
REMARK  status: ('A' for Active; 'I' for Inactive)
REMARK    1  A    between atoms: C_1  and  S_2
REMARK    2  A    between atoms: S_2  and  C_5
REMARK    3  A    between atoms: C_11  and  N_12
REMARK    4  A    between atoms: C_13  and  C_15
REMARK                            x       y       z     vdW  Elec       q    Type
REMARK                         _______ _______ _______ _____ _____    ______ ____
ROOT
ATOM      1  N   UNL     1      -2.978  12.821  19.615  0.00  0.00    +0.000 N 
ATOM      2  C   UNL     1      -4.158  13.012  20.341  0.00  0.00    +0.000 C 
ATOM      3  O   UNL     1      -5.103  12.249  20.470  0.00  0.00    +0.000 OA
ATOM      4  H   UNL     1      -2.289  13.581  19.646  0.00  0.00    +0.000 HD
ENDROOT
BRANCH   2   5
ATOM      5  C   UNL     1      -4.249  14.383  20.899  0.00  0.00    +0.000 C 
ATOM      6  C   UNL     1      -3.335  15.368  21.539  0.00  0.00    +0.000 C 
ATOM      7  C   UNL     1      -3.967  14.380  22.459  0.00  0.00    +0.000 C 
ATOM      8  C   UNL     1      -2.922  13.569  23.202  0.00  0.00    +0.000 C 
ATOM      9  C   UNL     1      -3.469  12.205  23.573  0.00  0.00    +0.000 C 
ATOM     10  O   UNL     1      -4.692  12.247  24.317  0.00  0.00    +0.000 OA
ATOM     11  C   UNL     1      -5.607  13.203  23.948  0.00  0.00    +0.000 A 
ATOM     12  C   UNL     1      -6.901  12.989  24.427  0.00  0.00    +0.000 A 
ATOM     13  C   UNL     1      -7.916  13.889  24.115  0.00  0.00    +0.000 A 
ATOM     14  C   UNL     1      -7.628  15.025  23.363  0.00  0.00    +0.000 A 
ATOM     15  C   UNL     1      -6.329  15.250  22.907  0.00  0.00    +0.000 A 
ATOM     16  C   UNL     1      -5.304  14.326  23.153  0.00  0.00    +0.000 A 
ENDBRANCH   2   5
BRANCH   1  23
ATOM     17  C   UNL     1      -1.460  11.068  18.667  0.00  0.00    +0.000 A 
ATOM     18  C   UNL     1      -1.202  10.127  17.663  0.00  0.00    +0.000 A 
ATOM     19  F   UNL     1      -0.041   9.450  17.630  0.00  0.00    +0.000 F 
ATOM     20  C   UNL     1      -2.121   9.864  16.659  0.00  0.00    +0.000 A 
ATOM     21  C   UNL     1      -3.341  10.516  16.687  0.00  0.00    +0.000 A 
ATOM     22  C   UNL     1      -3.617  11.441  17.692  0.00  0.00    +0.000 A 
ATOM     23  C   UNL     1      -2.687  11.775  18.684  0.00  0.00    +0.000 A 
BRANCH  17  25
ATOM     24  C   UNL     1      -0.050   9.596  20.638  0.00  0.00    +0.000 C 
ATOM     25  S   UNL     1      -0.196  11.210  19.880  0.00  0.00    +0.000 S 
ATOM     26  O   UNL     1      -0.676  12.146  20.887  0.00  0.00    +0.000 OA
ATOM     27  O   UNL     1       1.055  11.473  19.195  0.00  0.00    +0.000 OA
ENDBRANCH  17  25
ENDBRANCH   1  23
TORSDOF 3
ENDMDL
MODEL 2
REMARK VINA RESULT:      -6.9      8.959     11.564
REMARK  Name = 
REMARK  4 active torsions:
REMARK  status: ('A' for Active; 'I' for Inactive)
REMARK    1  A    between atoms: C_1  and  S_2
REMARK    2  A    between atoms: S_2  and  C_5
REMARK    3  A    between atoms: C_11  and  N_12
REMARK    4  A    between atoms: C_13  and  C_15
REMARK                            x       y       z     vdW  Elec       q    Type
REMARK                         _______ _______ _______ _____ _____    ______ ____
ROOT
ATOM      1  N   UNL     1       4.495   4.096  18.980  0.00  0.00    +0.000 N 
ATOM      2  C   UNL     1       4.078   3.015  19.764  0.00  0.00    +0.000 C 
ATOM      3  O   UNL     1       4.343   1.831  19.629  0.00  0.00    +0.000 OA
ATOM      4  H   UNL     1       4.177   5.027  19.271  0.00  0.00    +0.000 HD
ENDROOT
BRANCH   2   5
ATOM      5  C   UNL     1       3.100   3.428  20.799  0.00  0.00    +0.000 C 
ATOM      6  C   UNL     1       1.836   2.903  21.385  0.00  0.00    +0.000 C 
ATOM      7  C   UNL     1       1.683   3.727  20.153  0.00  0.00    +0.000 C 
ATOM      8  C   UNL     1       0.995   2.948  19.047  0.00  0.00    +0.000 C 
ATOM      9  C   UNL     1       1.422   3.460  17.686  0.00  0.00    +0.000 C 
ATOM     10  O   UNL     1       1.227   4.867  17.503  0.00  0.00    +0.000 OA
ATOM     11  C   UNL     1       1.494   5.674  18.582  0.00  0.00    +0.000 A 
ATOM     12  C   UNL     1       1.649   7.028  18.276  0.00  0.00    +0.000 A 
ATOM     13  C   UNL     1       1.927   7.942  19.287  0.00  0.00    +0.000 A 
ATOM     14  C   UNL     1       2.005   7.512  20.609  0.00  0.00    +0.000 A 
ATOM     15  C   UNL     1       1.826   6.163  20.916  0.00  0.00    +0.000 A 
ATOM     16  C   UNL     1       1.609   5.213  19.908  0.00  0.00    +0.000 A 
ENDBRANCH   2   5
BRANCH   1  23
ATOM     17  C   UNL     1       6.433   4.627  17.483  0.00  0.00    +0.000 A 
ATOM     18  C   UNL     1       6.980   4.634  16.194  0.00  0.00    +0.000 A 
ATOM     19  F   UNL     1       8.184   5.182  15.957  0.00  0.00    +0.000 F 
ATOM     20  C   UNL     1       6.303   4.092  15.113  0.00  0.00    +0.000 A 
ATOM     21  C   UNL     1       5.077   3.487  15.332  0.00  0.00    +0.000 A 
ATOM     22  C   UNL     1       4.531   3.456  16.614  0.00  0.00    +0.000 A 
ATOM     23  C   UNL     1       5.161   4.049  17.714  0.00  0.00    +0.000 A 
BRANCH  17  25
ATOM     24  C   UNL     1       7.851   6.975  18.199  0.00  0.00    +0.000 C 
ATOM     25  S   UNL     1       7.474   5.307  18.725  0.00  0.00    +0.000 S 
ATOM     26  O   UNL     1       8.709   4.534  18.715  0.00  0.00    +0.000 OA
ATOM     27  O   UNL     1       6.704   5.410  19.949  0.00  0.00    +0.000 OA
ENDBRANCH  17  25
ENDBRANCH   1  23
TORSDOF 3
ENDMDL
MODEL 3
REMARK VINA RESULT:      -6.9      6.321     11.441
REMARK  Name = 
REMARK  4 active torsions:
REMARK  status: ('A' for Active; 'I' for Inactive)
REMARK    1  A    between atoms: C_1  and  S_2
REMARK    2  A    between atoms: S_2  and  C_5
REMARK    3  A    between atoms: C_11  and  N_12
REMARK    4  A    between atoms: C_13  and  C_15
REMARK                            x       y       z     vdW  Elec       q    Type
REMARK                         _______ _______ _______ _____ _____    ______ ____
ROOT
ATOM      1  N   UNL     1       2.141   7.519  18.618  0.00  0.00    +0.000 N 
ATOM      2  C   UNL     1       3.211   6.955  17.914  0.00  0.00    +0.000 C 
ATOM      3  O   UNL     1       4.222   7.501  17.502  0.00  0.00    +0.000 OA
ATOM      4  H   UNL     1       1.385   6.883  18.896  0.00  0.00    +0.000 HD
ENDROOT
BRANCH   2   5
ATOM      5  C   UNL     1       2.954   5.538  17.561  0.00  0.00    +0.000 C 
ATOM      6  C   UNL     1       2.669   4.264  18.277  0.00  0.00    +0.000 C 
ATOM      7  C   UNL     1       4.111   4.599  18.104  0.00  0.00    +0.000 C 
ATOM      8  C   UNL     1       4.822   4.697  19.441  0.00  0.00    +0.000 C 
ATOM      9  C   UNL     1       6.001   5.644  19.352  0.00  0.00    +0.000 C 
ATOM     10  O   UNL     1       6.933   5.322  18.312  0.00  0.00    +0.000 OA
ATOM     11  C   UNL     1       6.405   4.875  17.126  0.00  0.00    +0.000 A 
ATOM     12  C   UNL     1       7.282   4.922  16.040  0.00  0.00    +0.000 A 
ATOM     13  C   UNL     1       6.858   4.499  14.784  0.00  0.00    +0.000 A 
ATOM     14  C   UNL     1       5.574   3.987  14.622  0.00  0.00    +0.000 A 
ATOM     15  C   UNL     1       4.706   3.918  15.712  0.00  0.00    +0.000 A 
ATOM     16  C   UNL     1       5.088   4.398  16.973  0.00  0.00    +0.000 A 
ENDBRANCH   2   5
BRANCH   1  23
ATOM     17  C   UNL     1       1.331   9.412  20.045  0.00  0.00    +0.000 A 
ATOM     18  C   UNL     1       1.006  10.769  20.157  0.00  0.00    +0.000 A 
ATOM     19  F   UNL     1       0.478  11.263  21.291  0.00  0.00    +0.000 F 
ATOM     20  C   UNL     1       1.200  11.653  19.108  0.00  0.00    +0.000 A 
ATOM     21  C   UNL     1       1.776  11.183  17.941  0.00  0.00    +0.000 A 
ATOM     22  C   UNL     1       2.122   9.838  17.824  0.00  0.00    +0.000 A 
ATOM     23  C   UNL     1       1.881   8.908  18.842  0.00  0.00    +0.000 A 
BRANCH  17  25
ATOM     24  C   UNL     1      -0.692   8.537  21.829  0.00  0.00    +0.000 C 
ATOM     25  S   UNL     1       1.067   8.472  21.507  0.00  0.00    +0.000 S 
ATOM     26  O   UNL     1       1.756   9.163  22.587  0.00  0.00    +0.000 OA
ATOM     27  O   UNL     1       1.395   7.090  21.215  0.00  0.00    +0.000 OA
ENDBRANCH  17  25
ENDBRANCH   1  23
TORSDOF 3
ENDMDL
MODEL 4
REMARK VINA RESULT:      -6.8      3.181      5.686
REMARK  Name = 
REMARK  4 active torsions:
REMARK  status: ('A' for Active; 'I' for Inactive)
REMARK    1  A    between atoms: C_1  and  S_2
REMARK    2  A    between atoms: S_2  and  C_5
REMARK    3  A    between atoms: C_11  and  N_12
REMARK    4  A    between atoms: C_13  and  C_15
REMARK                            x       y       z     vdW  Elec       q    Type
REMARK                         _______ _______ _______ _____ _____    ______ ____
ROOT
ATOM      1  N   UNL     1      -3.423  12.199  20.790  0.00  0.00    +0.000 N 
ATOM      2  C   UNL     1      -2.930  13.396  21.319  0.00  0.00    +0.000 C 
ATOM      3  O   UNL     1      -3.032  14.526  20.866  0.00  0.00    +0.000 OA
ATOM      4  H   UNL     1      -3.248  11.347  21.335  0.00  0.00    +0.000 HD
ENDROOT
BRANCH   2   5
ATOM      5  C   UNL     1      -2.089  13.166  22.518  0.00  0.00    +0.000 C 
ATOM      6  C   UNL     1      -0.993  13.869  23.240  0.00  0.00    +0.000 C 
ATOM      7  C   UNL     1      -0.565  12.988  22.117  0.00  0.00    +0.000 C 
ATOM      8  C   UNL     1       0.205  13.765  21.065  0.00  0.00    +0.000 C 
ATOM      9  C   UNL     1       0.051  13.118  19.703  0.00  0.00    +0.000 C 
ATOM     10  O   UNL     1       0.415  11.734  19.668  0.00  0.00    +0.000 OA
ATOM     11  C   UNL     1       0.065  10.975  20.758  0.00  0.00    +0.000 A 
ATOM     12  C   UNL     1       0.099   9.595  20.546  0.00  0.00    +0.000 A 
ATOM     13  C   UNL     1      -0.240   8.724  21.577  0.00  0.00    +0.000 A 
ATOM     14  C   UNL     1      -0.569   9.229  22.832  0.00  0.00    +0.000 A 
ATOM     15  C   UNL     1      -0.578  10.607  23.050  0.00  0.00    +0.000 A 
ATOM     16  C   UNL     1      -0.303  11.507  22.010  0.00  0.00    +0.000 A 
ENDBRANCH   2   5
BRANCH   1  23
ATOM     17  C   UNL     1      -5.374  11.851  19.258  0.00  0.00    +0.000 A 
ATOM     18  C   UNL     1      -5.847  11.540  17.977  0.00  0.00    +0.000 A 
ATOM     19  F   UNL     1      -7.163  11.405  17.739  0.00  0.00    +0.000 F 
ATOM     20  C   UNL     1      -4.984  11.346  16.910  0.00  0.00    +0.000 A 
ATOM     21  C   UNL     1      -3.626  11.516  17.114  0.00  0.00    +0.000 A 
ATOM     22  C   UNL     1      -3.145  11.844  18.381  0.00  0.00    +0.000 A 
ATOM     23  C   UNL     1      -3.984  11.985  19.492  0.00  0.00    +0.000 A 
BRANCH  17  25
ATOM     24  C   UNL     1      -7.601  10.615  20.504  0.00  0.00    +0.000 C 
ATOM     25  S   UNL     1      -6.631  12.117  20.458  0.00  0.00    +0.000 S 
ATOM     26  O   UNL     1      -7.476  13.192  19.958  0.00  0.00    +0.000 OA
ATOM     27  O   UNL     1      -5.992  12.250  21.753  0.00  0.00    +0.000 OA
ENDBRANCH  17  25
ENDBRANCH   1  23
TORSDOF 3
ENDMDL
MODEL 5
REMARK VINA RESULT:      -6.7      2.535      3.791
REMARK  Name = 
REMARK  4 active torsions:
REMARK  status: ('A' for Active; 'I' for Inactive)
REMARK    1  A    between atoms: C_1  and  S_2
REMARK    2  A    between atoms: S_2  and  C_5
REMARK    3  A    between atoms: C_11  and  N_12
REMARK    4  A    between atoms: C_13  and  C_15
REMARK                            x       y       z     vdW  Elec       q    Type
REMARK                         _______ _______ _______ _____ _____    ______ ____
ROOT
ATOM      1  N   UNL     1      -3.863  13.013  19.617  0.00  0.00    +0.000 N 
ATOM      2  C   UNL     1      -4.405  13.006  20.907  0.00  0.00    +0.000 C 
ATOM      3  O   UNL     1      -4.228  12.194  21.801  0.00  0.00    +0.000 OA
ATOM      4  H   UNL     1      -4.120  13.801  19.012  0.00  0.00    +0.000 HD
ENDROOT
BRANCH   2   5
ATOM      5  C   UNL     1      -5.401  14.089  21.093  0.00  0.00    +0.000 C 
ATOM      6  C   UNL     1      -6.609  14.335  21.927  0.00  0.00    +0.000 C 
ATOM      7  C   UNL     1      -6.845  13.614  20.644  0.00  0.00    +0.000 C 
ATOM      8  C   UNL     1      -7.481  12.257  20.880  0.00  0.00    +0.000 C 
ATOM      9  C   UNL     1      -7.115  11.294  19.768  0.00  0.00    +0.000 C 
ATOM     10  O   UNL     1      -7.427  11.772  18.454  0.00  0.00    +0.000 OA
ATOM     11  C   UNL     1      -7.213  13.107  18.215  0.00  0.00    +0.000 A 
ATOM     12  C   UNL     1      -7.174  13.461  16.864  0.00  0.00    +0.000 A 
ATOM     13  C   UNL     1      -6.959  14.786  16.497  0.00  0.00    +0.000 A 
ATOM     14  C   UNL     1      -6.829  15.764  17.479  0.00  0.00    +0.000 A 
ATOM     15  C   UNL     1      -6.893  15.414  18.828  0.00  0.00    +0.000 A 
ATOM     16  C   UNL     1      -7.044  14.077  19.222  0.00  0.00    +0.000 A 
ENDBRANCH   2   5
BRANCH   1  23
ATOM     17  C   UNL     1      -1.731  11.821  19.060  0.00  0.00    +0.000 A 
ATOM     18  C   UNL     1      -1.074  10.831  18.318  0.00  0.00    +0.000 A 
ATOM     19  F   UNL     1       0.261  10.685  18.388  0.00  0.00    +0.000 F 
ATOM     20  C   UNL     1      -1.765   9.975  17.476  0.00  0.00    +0.000 A 
ATOM     21  C   UNL     1      -3.144  10.075  17.411  0.00  0.00    +0.000 A 
ATOM     22  C   UNL     1      -3.811  11.043  18.159  0.00  0.00    +0.000 A 
ATOM     23  C   UNL     1      -3.137  11.963  18.971  0.00  0.00    +0.000 A 
BRANCH  17  25
ATOM     24  C   UNL     1      -0.606  11.870  21.663  0.00  0.00    +0.000 C 
ATOM     25  S   UNL     1      -0.685  12.762  20.114  0.00  0.00    +0.000 S 
ATOM     26  O   UNL     1      -1.354  14.033  20.351  0.00  0.00    +0.000 OA
ATOM     27  O   UNL     1       0.650  12.749  19.547  0.00  0.00    +0.000 OA
ENDBRANCH  17  25
ENDBRANCH   1  23
TORSDOF 3
ENDMDL
MODEL 6
REMARK VINA RESULT:      -6.7      2.995      5.684
REMARK  Name = 
REMARK  4 active torsions:
REMARK  status: ('A' for Active; 'I' for Inactive)
REMARK    1  A    between atoms: C_1  and  S_2
REMARK    2  A    between atoms: S_2  and  C_5
REMARK    3  A    between atoms: C_11  and  N_12
REMARK    4  A    between atoms: C_13  and  C_15
REMARK                            x       y       z     vdW  Elec       q    Type
REMARK                         _______ _______ _______ _____ _____    ______ ____
ROOT
ATOM      1  N   UNL     1      -3.247  12.175  20.613  0.00  0.00    +0.000 N 
ATOM      2  C   UNL     1      -2.826  13.369  21.210  0.00  0.00    +0.000 C 
ATOM      3  O   UNL     1      -2.930  14.509  20.785  0.00  0.00    +0.000 OA
ATOM      4  H   UNL     1      -3.084  11.312  21.143  0.00  0.00    +0.000 HD
ENDROOT
BRANCH   2   5
ATOM      5  C   UNL     1      -2.061  13.124  22.456  0.00  0.00    +0.000 C 
ATOM      6  C   UNL     1      -1.012  13.817  23.253  0.00  0.00    +0.000 C 
ATOM      7  C   UNL     1      -0.516  12.947  22.149  0.00  0.00    +0.000 C 
ATOM      8  C   UNL     1       0.319  13.734  21.155  0.00  0.00    +0.000 C 
ATOM      9  C   UNL     1       0.249  13.103  19.779  0.00  0.00    +0.000 C 
ATOM     10  O   UNL     1       0.613  11.718  19.752  0.00  0.00    +0.000 OA
ATOM     11  C   UNL     1       0.195  10.948  20.810  0.00  0.00    +0.000 A 
ATOM     12  C   UNL     1       0.240   9.571  20.585  0.00  0.00    +0.000 A 
ATOM     13  C   UNL     1      -0.163   8.689  21.583  0.00  0.00    +0.000 A 
ATOM     14  C   UNL     1      -0.568   9.181  22.821  0.00  0.00    +0.000 A 
ATOM     15  C   UNL     1      -0.589  10.556  23.052  0.00  0.00    +0.000 A 
ATOM     16  C   UNL     1      -0.249  11.467  22.042  0.00  0.00    +0.000 A 
ENDBRANCH   2   5
BRANCH   1  23
ATOM     17  C   UNL     1      -5.083  12.002  18.917  0.00  0.00    +0.000 A 
ATOM     18  C   UNL     1      -5.474  11.709  17.605  0.00  0.00    +0.000 A 
ATOM     19  F   UNL     1      -6.771  11.714  17.252  0.00  0.00    +0.000 F 
ATOM     20  C   UNL     1      -4.548  11.389  16.625  0.00  0.00    +0.000 A 
ATOM     21  C   UNL     1      -3.203  11.412  16.948  0.00  0.00    +0.000 A 
ATOM     22  C   UNL     1      -2.800  11.722  18.246  0.00  0.00    +0.000 A 
ATOM     23  C   UNL     1      -3.712  11.988  19.273  0.00  0.00    +0.000 A 
BRANCH  17  25
ATOM     24  C   UNL     1      -6.590  14.215  19.851  0.00  0.00    +0.000 C 
ATOM     25  S   UNL     1      -6.401  12.442  19.994  0.00  0.00    +0.000 S 
ATOM     26  O   UNL     1      -5.964  12.137  21.349  0.00  0.00    +0.000 OA
ATOM     27  O   UNL     1      -7.617  11.842  19.481  0.00  0.00    +0.000 OA
ENDBRANCH  17  25
ENDBRANCH   1  23
TORSDOF 3
ENDMDL
MODEL 7
REMARK VINA RESULT:      -6.5      5.659      7.788
REMARK  Name = 
REMARK  4 active torsions:
REMARK  status: ('A' for Active; 'I' for Inactive)
REMARK    1  A    between atoms: C_1  and  S_2
REMARK    2  A    between atoms: S_2  and  C_5
REMARK    3  A    between atoms: C_11  and  N_12
REMARK    4  A    between atoms: C_13  and  C_15
REMARK                            x       y       z     vdW  Elec       q    Type
REMARK                         _______ _______ _______ _____ _____    ______ ____
ROOT
ATOM      1  N   UNL     1       2.114   7.405  19.148  0.00  0.00    +0.000 N 
ATOM      2  C   UNL     1       1.760   8.756  19.075  0.00  0.00    +0.000 C 
ATOM      3  O   UNL     1       1.939   9.540  18.155  0.00  0.00    +0.000 OA
ATOM      4  H   UNL     1       1.856   6.907  20.007  0.00  0.00    +0.000 HD
ENDROOT
BRANCH   2   5
ATOM      5  C   UNL     1       1.208   9.254  20.358  0.00  0.00    +0.000 C 
ATOM      6  C   UNL     1       0.028   8.980  21.223  0.00  0.00    +0.000 C 
ATOM      7  C   UNL     1      -0.187   9.974  20.134  0.00  0.00    +0.000 C 
ATOM      8  C   UNL     1      -1.305   9.542  19.203  0.00  0.00    +0.000 C 
ATOM      9  C   UNL     1      -1.094  10.112  17.815  0.00  0.00    +0.000 C 
ATOM     10  O   UNL     1      -0.939  11.536  17.784  0.00  0.00    +0.000 OA
ATOM     11  C   UNL     1      -0.213  12.100  18.803  0.00  0.00    +0.000 A 
ATOM     12  C   UNL     1       0.225  13.404  18.558  0.00  0.00    +0.000 A 
ATOM     13  C   UNL     1       0.975  14.078  19.516  0.00  0.00    +0.000 A 
ATOM     14  C   UNL     1       1.249  13.468  20.738  0.00  0.00    +0.000 A 
ATOM     15  C   UNL     1       0.790  12.176  20.992  0.00  0.00    +0.000 A 
ATOM     16  C   UNL     1       0.088  11.452  20.017  0.00  0.00    +0.000 A 
ENDBRANCH   2   5
BRANCH   1  23
ATOM     17  C   UNL     1       2.965   5.260  18.174  0.00  0.00    +0.000 A 
ATOM     18  C   UNL     1       3.886   4.606  17.346  0.00  0.00    +0.000 A 
ATOM     19  F   UNL     1       3.914   3.264  17.266  0.00  0.00    +0.000 F 
ATOM     20  C   UNL     1       4.809   5.308  16.588  0.00  0.00    +0.000 A 
ATOM     21  C   UNL     1       4.781   6.691  16.619  0.00  0.00    +0.000 A 
ATOM     22  C   UNL     1       3.856   7.354  17.425  0.00  0.00    +0.000 A 
ATOM     23  C   UNL     1       2.953   6.674  18.250  0.00  0.00    +0.000 A 
BRANCH  17  25
ATOM     24  C   UNL     1       2.839   2.948  19.811  0.00  0.00    +0.000 C 
ATOM     25  S   UNL     1       1.840   4.194  19.004  0.00  0.00    +0.000 S 
ATOM     26  O   UNL     1       1.037   3.542  17.979  0.00  0.00    +0.000 OA
ATOM     27  O   UNL     1       1.187   4.958  20.049  0.00  0.00    +0.000 OA
ENDBRANCH  17  25
ENDBRANCH   1  23
TORSDOF 3
ENDMDL
MODEL 8
REMARK VINA RESULT:      -6.3     10.887     14.014
REMARK  Name = 
REMARK  4 active torsions:
REMARK  status: ('A' for Active; 'I' for Inactive)
REMARK    1  A    between atoms: C_1  and  S_2
REMARK    2  A    between atoms: S_2  and  C_5
REMARK    3  A    between atoms: C_11  and  N_12
REMARK    4  A    between atoms: C_13  and  C_15
REMARK                            x       y       z     vdW  Elec       q    Type
REMARK                         _______ _______ _______ _____ _____    ______ ____
ROOT
ATOM      1  N   UNL     1       9.056  13.046  21.191  0.00  0.00    +0.000 N 
ATOM      2  C   UNL     1       9.991  12.213  20.565  0.00  0.00    +0.000 C 
ATOM      3  O   UNL     1      11.126  11.941  20.923  0.00  0.00    +0.000 OA
ATOM      4  H   UNL     1       8.139  13.132  20.739  0.00  0.00    +0.000 HD
ENDROOT
BRANCH   2   5
ATOM      5  C   UNL     1       9.508  11.735  19.247  0.00  0.00    +0.000 C 
ATOM      6  C   UNL     1      10.102  11.213  17.986  0.00  0.00    +0.000 C 
ATOM      7  C   UNL     1       9.992  12.696  18.083  0.00  0.00    +0.000 C 
ATOM      8  C   UNL     1      11.348  13.362  17.946  0.00  0.00    +0.000 C 
ATOM      9  C   UNL     1      11.370  14.687  18.681  0.00  0.00    +0.000 C 
ATOM     10  O   UNL     1      10.328  15.589  18.292  0.00  0.00    +0.000 OA
ATOM     11  C   UNL     1       9.095  15.038  18.042  0.00  0.00    +0.000 A 
ATOM     12  C   UNL     1       8.038  15.951  18.028  0.00  0.00    +0.000 A 
ATOM     13  C   UNL     1       6.740  15.509  17.790  0.00  0.00    +0.000 A 
ATOM     14  C   UNL     1       6.504  14.164  17.521  0.00  0.00    +0.000 A 
ATOM     15  C   UNL     1       7.564  13.257  17.511  0.00  0.00    +0.000 A 
ATOM     16  C   UNL     1       8.871  13.667  17.811  0.00  0.00    +0.000 A 
ENDBRANCH   2   5
BRANCH   1  23
ATOM     17  C   UNL     1       8.684  13.766  23.562  0.00  0.00    +0.000 A 
ATOM     18  C   UNL     1       8.864  14.732  24.559  0.00  0.00    +0.000 A 
ATOM     19  F   UNL     1       8.302  14.588  25.772  0.00  0.00    +0.000 F 
ATOM     20  C   UNL     1       9.613  15.876  24.337  0.00  0.00    +0.000 A 
ATOM     21  C   UNL     1      10.236  16.036  23.111  0.00  0.00    +0.000 A 
ATOM     22  C   UNL     1      10.080  15.071  22.117  0.00  0.00    +0.000 A 
ATOM     23  C   UNL     1       9.280  13.936  22.289  0.00  0.00    +0.000 A 
BRANCH  17  25
ATOM     24  C   UNL     1       6.038  12.869  24.045  0.00  0.00    +0.000 C 
ATOM     25  S   UNL     1       7.754  12.361  24.062  0.00  0.00    +0.000 S 
ATOM     26  O   UNL     1       8.130  12.069  25.438  0.00  0.00    +0.000 OA
ATOM     27  O   UNL     1       7.905  11.338  23.045  0.00  0.00    +0.000 OA
ENDBRANCH  17  25
ENDBRANCH   1  23
TORSDOF 3
ENDMDL
MODEL 9
REMARK VINA RESULT:      -6.2      1.913      3.422
REMARK  Name = 
REMARK  4 active torsions:
REMARK  status: ('A' for Active; 'I' for Inactive)
REMARK    1  A    between atoms: C_1  and  S_2
REMARK    2  A    between atoms: S_2  and  C_5
REMARK    3  A    between atoms: C_11  and  N_12
REMARK    4  A    between atoms: C_13  and  C_15
REMARK                            x       y       z     vdW  Elec       q    Type
REMARK                         _______ _______ _______ _____ _____    ______ ____
ROOT
ATOM      1  N   UNL     1      -1.584  13.200  21.639  0.00  0.00    +0.000 N 
ATOM      2  C   UNL     1      -1.403  14.269  22.524  0.00  0.00    +0.000 C 
ATOM      3  O   UNL     1      -0.627  14.355  23.463  0.00  0.00    +0.000 OA
ATOM      4  H   UNL     1      -2.279  13.329  20.896  0.00  0.00    +0.000 HD
ENDROOT
BRANCH   2   5
ATOM      5  C   UNL     1      -2.396  15.347  22.299  0.00  0.00    +0.000 C 
ATOM      6  C   UNL     1      -3.096  16.379  23.112  0.00  0.00    +0.000 C 
ATOM      7  C   UNL     1      -3.748  15.040  23.068  0.00  0.00    +0.000 C 
ATOM      8  C   UNL     1      -3.902  14.453  24.459  0.00  0.00    +0.000 C 
ATOM      9  C   UNL     1      -3.907  12.938  24.402  0.00  0.00    +0.000 C 
ATOM     10  O   UNL     1      -4.889  12.389  23.516  0.00  0.00    +0.000 OA
ATOM     11  C   UNL     1      -5.095  13.056  22.333  0.00  0.00    +0.000 A 
ATOM     12  C   UNL     1      -5.767  12.318  21.356  0.00  0.00    +0.000 A 
ATOM     13  C   UNL     1      -6.029  12.886  20.113  0.00  0.00    +0.000 A 
ATOM     14  C   UNL     1      -5.662  14.205  19.862  0.00  0.00    +0.000 A 
ATOM     15  C   UNL     1      -5.013  14.949  20.848  0.00  0.00    +0.000 A 
ATOM     16  C   UNL     1      -4.681  14.379  22.085  0.00  0.00    +0.000 A 
ENDBRANCH   2   5
BRANCH   1  23
ATOM     17  C   UNL     1      -0.518  11.160  20.652  0.00  0.00    +0.000 A 
ATOM     18  C   UNL     1      -0.108   9.830  20.810  0.00  0.00    +0.000 A 
ATOM     19  F   UNL     1       0.396   9.133  19.777  0.00  0.00    +0.000 F 
ATOM     20  C   UNL     1      -0.216   9.176  22.027  0.00  0.00    +0.000 A 
ATOM     21  C   UNL     1      -0.696   9.878  23.119  0.00  0.00    +0.000 A 
ATOM     22  C   UNL     1      -1.089  11.208  22.978  0.00  0.00    +0.000 A 
ATOM     23  C   UNL     1      -1.051  11.877  21.749  0.00  0.00    +0.000 A 
BRANCH  17  25
ATOM     24  C   UNL     1      -1.402  11.005  17.962  0.00  0.00    +0.000 C 
ATOM     25  S   UNL     1      -0.241  11.825  19.048  0.00  0.00    +0.000 S 
ATOM     26  O   UNL     1       1.107  11.438  18.654  0.00  0.00    +0.000 OA
ATOM     27  O   UNL     1      -0.604  13.229  19.077  0.00  0.00    +0.000 OA
ENDBRANCH  17  25
ENDBRANCH   1  23
TORSDOF 3
ENDMDL
