MODEL 1
REMARK VINA RESULT:      -9.2      0.000      0.000
REMARK  Name = 
REMARK  9 active torsions:
REMARK  status: ('A' for Active; 'I' for Inactive)
REMARK    1  A    between atoms: C_1  and  C_2
REMARK    2  A    between atoms: C_2  and  C_3
REMARK    3  A    between atoms: C_3  and  N_4
REMARK    4  A    between atoms: C_5  and  C_7
REMARK    5  A    between atoms: C_11  and  C_12
REMARK    6  A    between atoms: C_12  and  N_13
REMARK    7  A    between atoms: N_13  and  C_14
REMARK    8  A    between atoms: C_14  and  C_15
REMARK    9  A    between atoms: C_19  and  C_20
REMARK                            x       y       z     vdW  Elec       q    Type
REMARK                         _______ _______ _______ _____ _____    ______ ____
ROOT
ATOM      1  N   UNL     1       2.352   4.102  17.563  0.00  0.00    +0.000 NA
ATOM      2  H   UNL     1       2.109   3.887  16.597  0.00  0.00    +0.000 HD
ENDROOT
BRANCH   1   3
ATOM      3  C   UNL     1       3.579   3.371  17.901  0.00  0.00    +0.000 C 
BRANCH   3   8
ATOM      4  C   UNL     1       6.420   4.709  15.728  0.00  0.00    +0.000 A 
ATOM      5  C   UNL     1       7.100   5.539  16.627  0.00  0.00    +0.000 A 
ATOM      6  C   UNL     1       6.674   5.625  17.955  0.00  0.00    +0.000 A 
ATOM      7  C   UNL     1       5.554   4.908  18.379  0.00  0.00    +0.000 A 
ATOM      8  C   UNL     1       4.825   4.117  17.480  0.00  0.00    +0.000 A 
ATOM      9  C   UNL     1       5.290   4.001  16.160  0.00  0.00    +0.000 A 
BRANCH   4  11
ATOM     10  N   UNL     1       6.170   3.617  13.558  0.00  0.00    +0.000 N 
ATOM     11  C   UNL     1       6.812   4.594  14.297  0.00  0.00    +0.000 C 
ATOM     12  O   UNL     1       7.653   5.351  13.824  0.00  0.00    +0.000 OA
ATOM     13  H   UNL     1       5.427   3.073  13.970  0.00  0.00    +0.000 HD
BRANCH  10  14
ATOM     14  C   UNL     1       6.517   3.359  12.174  0.00  0.00    +0.000 C 
BRANCH  14  16
ATOM     15  C   UNL     1       6.433   1.090  11.035  0.00  0.00    +0.000 C 
ATOM     16  C   UNL     1       5.635   2.282  11.545  0.00  0.00    +0.000 C 
ENDBRANCH  14  16
ENDBRANCH  10  14
ENDBRANCH   4  11
ENDBRANCH   3   8
ENDBRANCH   1   3
BRANCH   1  17
ATOM     17  C   UNL     1       1.260   3.645  18.421  0.00  0.00    +0.000 C 
BRANCH  17  18
ATOM     18  C   UNL     1       1.697   3.498  19.847  0.00  0.00    +0.000 A 
ATOM     19  C   UNL     1       1.828   2.370  20.634  0.00  0.00    +0.000 A 
ATOM     20  N   UNL     1       2.271   2.803  21.850  0.00  0.00    +0.000 N 
ATOM     21  N   UNL     1       2.422   4.137  21.935  0.00  0.00    +0.000 NA
ATOM     22  C   UNL     1       2.036   4.570  20.728  0.00  0.00    +0.000 A 
ATOM     23  H   UNL     1       2.476   2.239  22.668  0.00  0.00    +0.000 HD
BRANCH  22  24
ATOM     24  C   UNL     1       1.909   6.007  20.333  0.00  0.00    +0.000 A 
ATOM     25  C   UNL     1       1.258   7.064  20.948  0.00  0.00    +0.000 A 
ATOM     26  C   UNL     1       1.392   8.188  20.069  0.00  0.00    +0.000 A 
ATOM     27  C   UNL     1       0.978   9.534  20.034  0.00  0.00    +0.000 A 
ATOM     28  C   UNL     1       1.315  10.312  18.908  0.00  0.00    +0.000 A 
ATOM     29  C   UNL     1       2.044   9.780  17.840  0.00  0.00    +0.000 A 
ATOM     30  C   UNL     1       2.472   8.458  17.861  0.00  0.00    +0.000 A 
ATOM     31  C   UNL     1       2.123   7.727  18.988  0.00  0.00    +0.000 A 
ATOM     32  O   UNL     1       2.456   6.438  19.163  0.00  0.00    +0.000 OA
ENDBRANCH  22  24
ENDBRANCH  17  18
ENDBRANCH   1  17
TORSDOF 8
ENDMDL
MODEL 2
REMARK VINA RESULT:      -9.1      0.739      1.301
REMARK  Name = 
REMARK  9 active torsions:
REMARK  status: ('A' for Active; 'I' for Inactive)
REMARK    1  A    between atoms: C_1  and  C_2
REMARK    2  A    between atoms: C_2  and  C_3
REMARK    3  A    between atoms: C_3  and  N_4
REMARK    4  A    between atoms: C_5  and  C_7
REMARK    5  A    between atoms: C_11  and  C_12
REMARK    6  A    between atoms: C_12  and  N_13
REMARK    7  A    between atoms: N_13  and  C_14
REMARK    8  A    between atoms: C_14  and  C_15
REMARK    9  A    between atoms: C_19  and  C_20
REMARK                            x       y       z     vdW  Elec       q    Type
REMARK                         _______ _______ _______ _____ _____    ______ ____
ROOT
ATOM      1  N   UNL     1       2.153   3.565  17.477  0.00  0.00    +0.000 NA
ATOM      2  H   UNL     1       1.850   3.113  16.615  0.00  0.00    +0.000 HD
ENDROOT
BRANCH   1   3
ATOM      3  C   UNL     1       3.348   2.867  17.965  0.00  0.00    +0.000 C 
BRANCH   3   8
ATOM      4  C   UNL     1       6.296   4.475  16.146  0.00  0.00    +0.000 A 
ATOM      5  C   UNL     1       6.930   5.165  17.186  0.00  0.00    +0.000 A 
ATOM      6  C   UNL     1       6.438   5.066  18.490  0.00  0.00    +0.000 A 
ATOM      7  C   UNL     1       5.298   4.305  18.752  0.00  0.00    +0.000 A 
ATOM      8  C   UNL     1       4.614   3.655  17.715  0.00  0.00    +0.000 A 
ATOM      9  C   UNL     1       5.145   3.722  16.417  0.00  0.00    +0.000 A 
BRANCH   4  11
ATOM     10  N   UNL     1       6.211   3.650  13.849  0.00  0.00    +0.000 N 
ATOM     11  C   UNL     1       6.758   4.560  14.734  0.00  0.00    +0.000 C 
ATOM     12  O   UNL     1       7.574   5.414  14.402  0.00  0.00    +0.000 OA
ATOM     13  H   UNL     1       5.483   3.020  14.152  0.00  0.00    +0.000 HD
BRANCH  10  14
ATOM     14  C   UNL     1       6.635   3.585  12.464  0.00  0.00    +0.000 C 
BRANCH  14  16
ATOM     15  C   UNL     1       4.272   3.218  11.608  0.00  0.00    +0.000 C 
ATOM     16  C   UNL     1       5.710   2.717  11.613  0.00  0.00    +0.000 C 
ENDBRANCH  14  16
ENDBRANCH  10  14
ENDBRANCH   4  11
ENDBRANCH   3   8
ENDBRANCH   1   3
BRANCH   1  17
ATOM     17  C   UNL     1       1.078   3.440  18.461  0.00  0.00    +0.000 C 
BRANCH  17  18
ATOM     18  C   UNL     1       1.602   3.492  19.865  0.00  0.00    +0.000 A 
ATOM     19  C   UNL     1       1.746   2.492  20.807  0.00  0.00    +0.000 A 
ATOM     20  N   UNL     1       2.280   3.085  21.913  0.00  0.00    +0.000 N 
ATOM     21  N   UNL     1       2.480   4.409  21.784  0.00  0.00    +0.000 NA
ATOM     22  C   UNL     1       2.031   4.670  20.549  0.00  0.00    +0.000 A 
ATOM     23  H   UNL     1       2.519   2.642  22.795  0.00  0.00    +0.000 HD
BRANCH  22  24
ATOM     24  C   UNL     1       1.926   6.034  19.947  0.00  0.00    +0.000 A 
ATOM     25  C   UNL     1       2.421   6.542  18.757  0.00  0.00    +0.000 A 
ATOM     26  C   UNL     1       2.096   7.938  18.746  0.00  0.00    +0.000 A 
ATOM     27  C   UNL     1       2.297   9.044  17.898  0.00  0.00    +0.000 A 
ATOM     28  C   UNL     1       1.818  10.305  18.312  0.00  0.00    +0.000 A 
ATOM     29  C   UNL     1       1.156  10.473  19.531  0.00  0.00    +0.000 A 
ATOM     30  C   UNL     1       0.937   9.392  20.375  0.00  0.00    +0.000 A 
ATOM     31  C   UNL     1       1.420   8.169  19.931  0.00  0.00    +0.000 A 
ATOM     32  O   UNL     1       1.292   7.029  20.629  0.00  0.00    +0.000 OA
ENDBRANCH  22  24
ENDBRANCH  17  18
ENDBRANCH   1  17
TORSDOF 8
ENDMDL
MODEL 3
REMARK VINA RESULT:      -8.9      3.490      7.618
REMARK  Name = 
REMARK  9 active torsions:
REMARK  status: ('A' for Active; 'I' for Inactive)
REMARK    1  A    between atoms: C_1  and  C_2
REMARK    2  A    between atoms: C_2  and  C_3
REMARK    3  A    between atoms: C_3  and  N_4
REMARK    4  A    between atoms: C_5  and  C_7
REMARK    5  A    between atoms: C_11  and  C_12
REMARK    6  A    between atoms: C_12  and  N_13
REMARK    7  A    between atoms: N_13  and  C_14
REMARK    8  A    between atoms: C_14  and  C_15
REMARK    9  A    between atoms: C_19  and  C_20
REMARK                            x       y       z     vdW  Elec       q    Type
REMARK                         _______ _______ _______ _____ _____    ______ ____
ROOT
ATOM      1  N   UNL     1       4.517   7.743  17.363  0.00  0.00    +0.000 NA
ATOM      2  H   UNL     1       4.824   8.064  18.280  0.00  0.00    +0.000 HD
ENDROOT
BRANCH   1   3
ATOM      3  C   UNL     1       3.193   7.127  17.512  0.00  0.00    +0.000 C 
BRANCH   3   8
ATOM      4  C   UNL     1       0.733   9.663  18.963  0.00  0.00    +0.000 A 
ATOM      5  C   UNL     1       0.643   9.241  20.295  0.00  0.00    +0.000 A 
ATOM      6  C   UNL     1       1.420   8.170  20.742  0.00  0.00    +0.000 A 
ATOM      7  C   UNL     1       2.264   7.499  19.855  0.00  0.00    +0.000 A 
ATOM      8  C   UNL     1       2.325   7.868  18.504  0.00  0.00    +0.000 A 
ATOM      9  C   UNL     1       1.576   8.977  18.077  0.00  0.00    +0.000 A 
BRANCH   4  11
ATOM     10  N   UNL     1      -1.234  10.432  17.737  0.00  0.00    +0.000 N 
ATOM     11  C   UNL     1      -0.085  10.781  18.423  0.00  0.00    +0.000 C 
ATOM     12  O   UNL     1       0.261  11.944  18.606  0.00  0.00    +0.000 OA
ATOM     13  H   UNL     1      -1.520   9.465  17.684  0.00  0.00    +0.000 HD
BRANCH  10  14
ATOM     14  C   UNL     1      -2.075  11.428  17.103  0.00  0.00    +0.000 C 
BRANCH  14  16
ATOM     15  C   UNL     1      -2.912  10.309  14.982  0.00  0.00    +0.000 C 
ATOM     16  C   UNL     1      -3.266  10.805  16.377  0.00  0.00    +0.000 C 
ENDBRANCH  14  16
ENDBRANCH  10  14
ENDBRANCH   4  11
ENDBRANCH   3   8
ENDBRANCH   1   3
BRANCH   1  17
ATOM     17  C   UNL     1       5.470   6.742  16.886  0.00  0.00    +0.000 C 
BRANCH  17  18
ATOM     18  C   UNL     1       6.413   6.312  17.969  0.00  0.00    +0.000 A 
ATOM     19  C   UNL     1       7.705   6.716  18.247  0.00  0.00    +0.000 A 
ATOM     20  N   UNL     1       8.094   6.014  19.350  0.00  0.00    +0.000 N 
ATOM     21  N   UNL     1       7.165   5.158  19.812  0.00  0.00    +0.000 NA
ATOM     22  C   UNL     1       6.152   5.307  18.949  0.00  0.00    +0.000 A 
ATOM     23  H   UNL     1       8.988   6.064  19.828  0.00  0.00    +0.000 HD
BRANCH  22  24
ATOM     24  C   UNL     1       4.898   4.491  18.951  0.00  0.00    +0.000 A 
ATOM     25  C   UNL     1       4.431   3.542  18.057  0.00  0.00    +0.000 A 
ATOM     26  C   UNL     1       3.127   3.161  18.516  0.00  0.00    +0.000 A 
ATOM     27  C   UNL     1       2.095   2.295  18.107  0.00  0.00    +0.000 A 
ATOM     28  C   UNL     1       0.910   2.254  18.870  0.00  0.00    +0.000 A 
ATOM     29  C   UNL     1       0.745   3.044  20.011  0.00  0.00    +0.000 A 
ATOM     30  C   UNL     1       1.756   3.895  20.438  0.00  0.00    +0.000 A 
ATOM     31  C   UNL     1       2.908   3.904  19.662  0.00  0.00    +0.000 A 
ATOM     32  O   UNL     1       3.975   4.671  19.937  0.00  0.00    +0.000 OA
ENDBRANCH  22  24
ENDBRANCH  17  18
ENDBRANCH   1  17
TORSDOF 8
ENDMDL
MODEL 4
REMARK VINA RESULT:      -8.6      3.061      7.407
REMARK  Name = 
REMARK  9 active torsions:
REMARK  status: ('A' for Active; 'I' for Inactive)
REMARK    1  A    between atoms: C_1  and  C_2
REMARK    2  A    between atoms: C_2  and  C_3
REMARK    3  A    between atoms: C_3  and  N_4
REMARK    4  A    between atoms: C_5  and  C_7
REMARK    5  A    between atoms: C_11  and  C_12
REMARK    6  A    between atoms: C_12  and  N_13
REMARK    7  A    between atoms: N_13  and  C_14
REMARK    8  A    between atoms: C_14  and  C_15
REMARK    9  A    between atoms: C_19  and  C_20
REMARK                            x       y       z     vdW  Elec       q    Type
REMARK                         _______ _______ _______ _____ _____    ______ ____
ROOT
ATOM      1  N   UNL     1       3.987   6.480  18.709  0.00  0.00    +0.000 NA
ATOM      2  H   UNL     1       4.321   5.955  19.517  0.00  0.00    +0.000 HD
ENDROOT
BRANCH   1   3
ATOM      3  C   UNL     1       2.867   5.741  18.115  0.00  0.00    +0.000 C 
BRANCH   3   8
ATOM      4  C   UNL     1       3.802   2.282  19.438  0.00  0.00    +0.000 A 
ATOM      5  C   UNL     1       3.405   1.456  18.380  0.00  0.00    +0.000 A 
ATOM      6  C   UNL     1       2.885   2.019  17.212  0.00  0.00    +0.000 A 
ATOM      7  C   UNL     1       2.732   3.403  17.110  0.00  0.00    +0.000 A 
ATOM      8  C   UNL     1       3.069   4.244  18.181  0.00  0.00    +0.000 A 
ATOM      9  C   UNL     1       3.636   3.670  19.331  0.00  0.00    +0.000 A 
BRANCH   4  11
ATOM     10  N   UNL     1       5.432   0.895  20.616  0.00  0.00    +0.000 N 
ATOM     11  C   UNL     1       4.341   1.741  20.714  0.00  0.00    +0.000 C 
ATOM     12  O   UNL     1       3.831   2.058  21.784  0.00  0.00    +0.000 OA
ATOM     13  H   UNL     1       5.867   0.730  19.721  0.00  0.00    +0.000 HD
BRANCH  10  14
ATOM     14  C   UNL     1       6.000   0.247  21.781  0.00  0.00    +0.000 C 
BRANCH  14  16
ATOM     15  C   UNL     1       7.754  -1.536  22.220  0.00  0.00    +0.000 C 
ATOM     16  C   UNL     1       6.473  -1.174  21.482  0.00  0.00    +0.000 C 
ENDBRANCH  14  16
ENDBRANCH  10  14
ENDBRANCH   4  11
ENDBRANCH   3   8
ENDBRANCH   1   3
BRANCH   1  17
ATOM     17  C   UNL     1       5.079   6.573  17.740  0.00  0.00    +0.000 C 
BRANCH  17  18
ATOM     18  C   UNL     1       6.309   5.863  18.220  0.00  0.00    +0.000 A 
ATOM     19  C   UNL     1       6.973   5.935  19.429  0.00  0.00    +0.000 A 
ATOM     20  N   UNL     1       8.026   5.073  19.337  0.00  0.00    +0.000 N 
ATOM     21  N   UNL     1       8.124   4.451  18.148  0.00  0.00    +0.000 NA
ATOM     22  C   UNL     1       7.102   4.959  17.448  0.00  0.00    +0.000 A 
ATOM     23  H   UNL     1       8.723   4.874  20.047  0.00  0.00    +0.000 HD
BRANCH  22  24
ATOM     24  C   UNL     1       6.825   4.676  16.006  0.00  0.00    +0.000 A 
ATOM     25  C   UNL     1       5.916   3.820  15.406  0.00  0.00    +0.000 A 
ATOM     26  C   UNL     1       6.164   3.889  13.996  0.00  0.00    +0.000 A 
ATOM     27  C   UNL     1       5.658   3.297  12.823  0.00  0.00    +0.000 A 
ATOM     28  C   UNL     1       6.246   3.642  11.588  0.00  0.00    +0.000 A 
ATOM     29  C   UNL     1       7.306   4.550  11.509  0.00  0.00    +0.000 A 
ATOM     30  C   UNL     1       7.810   5.154  12.653  0.00  0.00    +0.000 A 
ATOM     31  C   UNL     1       7.203   4.791  13.848  0.00  0.00    +0.000 A 
ATOM     32  O   UNL     1       7.573   5.281  15.042  0.00  0.00    +0.000 OA
ENDBRANCH  22  24
ENDBRANCH  17  18
ENDBRANCH   1  17
TORSDOF 8
ENDMDL
MODEL 5
REMARK VINA RESULT:      -8.5      1.524      2.242
REMARK  Name = 
REMARK  9 active torsions:
REMARK  status: ('A' for Active; 'I' for Inactive)
REMARK    1  A    between atoms: C_1  and  C_2
REMARK    2  A    between atoms: C_2  and  C_3
REMARK    3  A    between atoms: C_3  and  N_4
REMARK    4  A    between atoms: C_5  and  C_7
REMARK    5  A    between atoms: C_11  and  C_12
REMARK    6  A    between atoms: C_12  and  N_13
REMARK    7  A    between atoms: N_13  and  C_14
REMARK    8  A    between atoms: C_14  and  C_15
REMARK    9  A    between atoms: C_19  and  C_20
REMARK                            x       y       z     vdW  Elec       q    Type
REMARK                         _______ _______ _______ _____ _____    ______ ____
ROOT
ATOM      1  N   UNL     1       5.851   3.565  19.058  0.00  0.00    +0.000 NA
ATOM      2  H   UNL     1       6.640   3.091  19.496  0.00  0.00    +0.000 HD
ENDROOT
BRANCH   1   3
ATOM      3  C   UNL     1       6.157   5.000  18.996  0.00  0.00    +0.000 C 
BRANCH   3   8
ATOM      4  C   UNL     1       6.148   5.551  15.217  0.00  0.00    +0.000 A 
ATOM      5  C   UNL     1       5.249   6.616  15.086  0.00  0.00    +0.000 A 
ATOM      6  C   UNL     1       4.686   7.196  16.225  0.00  0.00    +0.000 A 
ATOM      7  C   UNL     1       4.994   6.696  17.491  0.00  0.00    +0.000 A 
ATOM      8  C   UNL     1       5.846   5.592  17.640  0.00  0.00    +0.000 A 
ATOM      9  C   UNL     1       6.444   5.048  16.491  0.00  0.00    +0.000 A 
BRANCH   4  11
ATOM     10  N   UNL     1       6.001   3.904  13.419  0.00  0.00    +0.000 N 
ATOM     11  C   UNL     1       6.762   4.877  14.041  0.00  0.00    +0.000 C 
ATOM     12  O   UNL     1       7.882   5.201  13.659  0.00  0.00    +0.000 OA
ATOM     13  H   UNL     1       5.054   3.730  13.719  0.00  0.00    +0.000 HD
BRANCH  10  14
ATOM     14  C   UNL     1       6.518   3.127  12.309  0.00  0.00    +0.000 C 
BRANCH  14  16
ATOM     15  C   UNL     1       4.148   3.289  11.412  0.00  0.00    +0.000 C 
ATOM     16  C   UNL     1       5.409   2.443  11.512  0.00  0.00    +0.000 C 
ENDBRANCH  14  16
ENDBRANCH  10  14
ENDBRANCH   4  11
ENDBRANCH   3   8
ENDBRANCH   1   3
BRANCH   1  17
ATOM     17  C   UNL     1       4.670   3.354  19.895  0.00  0.00    +0.000 C 
BRANCH  17  18
ATOM     18  C   UNL     1       3.507   2.848  19.096  0.00  0.00    +0.000 A 
ATOM     19  C   UNL     1       3.332   1.654  18.423  0.00  0.00    +0.000 A 
ATOM     20  N   UNL     1       2.085   1.706  17.873  0.00  0.00    +0.000 N 
ATOM     21  N   UNL     1       1.427   2.855  18.112  0.00  0.00    +0.000 NA
ATOM     22  C   UNL     1       2.305   3.572  18.824  0.00  0.00    +0.000 A 
ATOM     23  H   UNL     1       1.629   0.994  17.312  0.00  0.00    +0.000 HD
BRANCH  22  24
ATOM     24  C   UNL     1       2.105   4.990  19.255  0.00  0.00    +0.000 A 
ATOM     25  C   UNL     1       1.802   5.528  20.495  0.00  0.00    +0.000 A 
ATOM     26  C   UNL     1       1.635   6.938  20.294  0.00  0.00    +0.000 A 
ATOM     27  C   UNL     1       1.308   8.065  21.071  0.00  0.00    +0.000 A 
ATOM     28  C   UNL     1       1.213   9.319  20.432  0.00  0.00    +0.000 A 
ATOM     29  C   UNL     1       1.436   9.460  19.059  0.00  0.00    +0.000 A 
ATOM     30  C   UNL     1       1.772   8.362  18.277  0.00  0.00    +0.000 A 
ATOM     31  C   UNL     1       1.858   7.147  18.944  0.00  0.00    +0.000 A 
ATOM     32  O   UNL     1       2.169   5.992  18.335  0.00  0.00    +0.000 OA
ENDBRANCH  22  24
ENDBRANCH  17  18
ENDBRANCH   1  17
TORSDOF 8
ENDMDL
MODEL 6
REMARK VINA RESULT:      -8.4      3.105      8.022
REMARK  Name = 
REMARK  9 active torsions:
REMARK  status: ('A' for Active; 'I' for Inactive)
REMARK    1  A    between atoms: C_1  and  C_2
REMARK    2  A    between atoms: C_2  and  C_3
REMARK    3  A    between atoms: C_3  and  N_4
REMARK    4  A    between atoms: C_5  and  C_7
REMARK    5  A    between atoms: C_11  and  C_12
REMARK    6  A    between atoms: C_12  and  N_13
REMARK    7  A    between atoms: N_13  and  C_14
REMARK    8  A    between atoms: C_14  and  C_15
REMARK    9  A    between atoms: C_19  and  C_20
REMARK                            x       y       z     vdW  Elec       q    Type
REMARK                         _______ _______ _______ _____ _____    ______ ____
ROOT
ATOM      1  N   UNL     1       1.434   5.280  20.362  0.00  0.00    +0.000 NA
ATOM      2  H   UNL     1       1.461   5.367  19.347  0.00  0.00    +0.000 HD
ENDROOT
BRANCH   1   3
ATOM      3  C   UNL     1       1.829   6.568  20.943  0.00  0.00    +0.000 C 
BRANCH   3   8
ATOM      4  C   UNL     1       0.969   9.955  19.402  0.00  0.00    +0.000 A 
ATOM      5  C   UNL     1       1.583   9.862  18.148  0.00  0.00    +0.000 A 
ATOM      6  C   UNL     1       2.230   8.681  17.775  0.00  0.00    +0.000 A 
ATOM      7  C   UNL     1       2.291   7.606  18.662  0.00  0.00    +0.000 A 
ATOM      8  C   UNL     1       1.733   7.700  19.945  0.00  0.00    +0.000 A 
ATOM      9  C   UNL     1       1.044   8.874  20.291  0.00  0.00    +0.000 A 
BRANCH   4  11
ATOM     10  N   UNL     1      -0.755  11.026  20.762  0.00  0.00    +0.000 N 
ATOM     11  C   UNL     1       0.285  11.193  19.865  0.00  0.00    +0.000 C 
ATOM     12  O   UNL     1       0.658  12.291  19.465  0.00  0.00    +0.000 OA
ATOM     13  H   UNL     1      -0.971  10.110  21.125  0.00  0.00    +0.000 HD
BRANCH  10  14
ATOM     14  C   UNL     1      -1.544  12.149  21.229  0.00  0.00    +0.000 C 
BRANCH  14  16
ATOM     15  C   UNL     1      -0.354  14.026  22.458  0.00  0.00    +0.000 C 
ATOM     16  C   UNL     1      -1.058  12.681  22.576  0.00  0.00    +0.000 C 
ENDBRANCH  14  16
ENDBRANCH  10  14
ENDBRANCH   4  11
ENDBRANCH   3   8
ENDBRANCH   1   3
BRANCH   1  17
ATOM     17  C   UNL     1       2.394   4.250  20.758  0.00  0.00    +0.000 C 
BRANCH  17  18
ATOM     18  C   UNL     1       2.527   3.183  19.714  0.00  0.00    +0.000 A 
ATOM     19  C   UNL     1       1.895   1.960  19.595  0.00  0.00    +0.000 A 
ATOM     20  N   UNL     1       2.378   1.391  18.453  0.00  0.00    +0.000 N 
ATOM     21  N   UNL     1       3.300   2.136  17.817  0.00  0.00    +0.000 NA
ATOM     22  C   UNL     1       3.424   3.213  18.603  0.00  0.00    +0.000 A 
ATOM     23  H   UNL     1       2.127   0.490  18.061  0.00  0.00    +0.000 HD
BRANCH  22  24
ATOM     24  C   UNL     1       4.417   4.312  18.399  0.00  0.00    +0.000 A 
ATOM     25  C   UNL     1       4.474   5.321  17.452  0.00  0.00    +0.000 A 
ATOM     26  C   UNL     1       5.700   6.025  17.683  0.00  0.00    +0.000 A 
ATOM     27  C   UNL     1       6.400   7.106  17.114  0.00  0.00    +0.000 A 
ATOM     28  C   UNL     1       7.651   7.461  17.660  0.00  0.00    +0.000 A 
ATOM     29  C   UNL     1       8.201   6.768  18.742  0.00  0.00    +0.000 A 
ATOM     30  C   UNL     1       7.520   5.707  19.326  0.00  0.00    +0.000 A 
ATOM     31  C   UNL     1       6.292   5.392  18.762  0.00  0.00    +0.000 A 
ATOM     32  O   UNL     1       5.512   4.394  19.206  0.00  0.00    +0.000 OA
ENDBRANCH  22  24
ENDBRANCH  17  18
ENDBRANCH   1  17
TORSDOF 8
ENDMDL
MODEL 7
REMARK VINA RESULT:      -8.3      3.115      7.749
REMARK  Name = 
REMARK  9 active torsions:
REMARK  status: ('A' for Active; 'I' for Inactive)
REMARK    1  A    between atoms: C_1  and  C_2
REMARK    2  A    between atoms: C_2  and  C_3
REMARK    3  A    between atoms: C_3  and  N_4
REMARK    4  A    between atoms: C_5  and  C_7
REMARK    5  A    between atoms: C_11  and  C_12
REMARK    6  A    between atoms: C_12  and  N_13
REMARK    7  A    between atoms: N_13  and  C_14
REMARK    8  A    between atoms: C_14  and  C_15
REMARK    9  A    between atoms: C_19  and  C_20
REMARK                            x       y       z     vdW  Elec       q    Type
REMARK                         _______ _______ _______ _____ _____    ______ ____
ROOT
ATOM      1  N   UNL     1       1.431   5.029  20.316  0.00  0.00    +0.000 NA
ATOM      2  H   UNL     1       0.529   5.464  20.506  0.00  0.00    +0.000 HD
ENDROOT
BRANCH   1   3
ATOM      3  C   UNL     1       2.472   6.054  20.456  0.00  0.00    +0.000 C 
BRANCH   3   8
ATOM      4  C   UNL     1       1.039   9.548  19.887  0.00  0.00    +0.000 A 
ATOM      5  C   UNL     1       1.428   9.804  18.568  0.00  0.00    +0.000 A 
ATOM      6  C   UNL     1       2.107   8.825  17.838  0.00  0.00    +0.000 A 
ATOM      7  C   UNL     1       2.425   7.603  18.434  0.00  0.00    +0.000 A 
ATOM      8  C   UNL     1       2.095   7.349  19.773  0.00  0.00    +0.000 A 
ATOM      9  C   UNL     1       1.371   8.322  20.480  0.00  0.00    +0.000 A 
BRANCH   4  11
ATOM     10  N   UNL     1      -0.739  11.205  20.134  0.00  0.00    +0.000 N 
ATOM     11  C   UNL     1       0.334  10.559  20.721  0.00  0.00    +0.000 C 
ATOM     12  O   UNL     1       0.701  10.774  21.871  0.00  0.00    +0.000 OA
ATOM     13  H   UNL     1      -1.054  10.935  19.215  0.00  0.00    +0.000 HD
BRANCH  10  14
ATOM     14  C   UNL     1      -1.459  12.261  20.819  0.00  0.00    +0.000 C 
BRANCH  14  16
ATOM     15  C   UNL     1      -0.593  13.499  18.778  0.00  0.00    +0.000 C 
ATOM     16  C   UNL     1      -1.418  13.583  20.054  0.00  0.00    +0.000 C 
ENDBRANCH  14  16
ENDBRANCH  10  14
ENDBRANCH   4  11
ENDBRANCH   3   8
ENDBRANCH   1   3
BRANCH   1  17
ATOM     17  C   UNL     1       1.418   4.531  18.941  0.00  0.00    +0.000 C 
BRANCH  17  18
ATOM     18  C   UNL     1       2.110   3.207  18.822  0.00  0.00    +0.000 A 
ATOM     19  C   UNL     1       1.640   1.926  19.035  0.00  0.00    +0.000 A 
ATOM     20  N   UNL     1       2.684   1.088  18.775  0.00  0.00    +0.000 N 
ATOM     21  N   UNL     1       3.820   1.719  18.426  0.00  0.00    +0.000 NA
ATOM     22  C   UNL     1       3.487   3.015  18.492  0.00  0.00    +0.000 A 
ATOM     23  H   UNL     1       2.690   0.075  18.829  0.00  0.00    +0.000 HD
BRANCH  22  24
ATOM     24  C   UNL     1       4.436   4.154  18.302  0.00  0.00    +0.000 A 
ATOM     25  C   UNL     1       4.452   5.177  17.368  0.00  0.00    +0.000 A 
ATOM     26  C   UNL     1       5.651   5.925  17.607  0.00  0.00    +0.000 A 
ATOM     27  C   UNL     1       6.307   7.040  17.051  0.00  0.00    +0.000 A 
ATOM     28  C   UNL     1       7.544   7.436  17.600  0.00  0.00    +0.000 A 
ATOM     29  C   UNL     1       8.122   6.751  18.673  0.00  0.00    +0.000 A 
ATOM     30  C   UNL     1       7.484   5.657  19.244  0.00  0.00    +0.000 A 
ATOM     31  C   UNL     1       6.268   5.301  18.677  0.00  0.00    +0.000 A 
ATOM     32  O   UNL     1       5.528   4.268  19.109  0.00  0.00    +0.000 OA
ENDBRANCH  22  24
ENDBRANCH  17  18
ENDBRANCH   1  17
TORSDOF 8
ENDMDL
MODEL 8
REMARK VINA RESULT:      -8.3      3.515      8.100
REMARK  Name = 
REMARK  9 active torsions:
REMARK  status: ('A' for Active; 'I' for Inactive)
REMARK    1  A    between atoms: C_1  and  C_2
REMARK    2  A    between atoms: C_2  and  C_3
REMARK    3  A    between atoms: C_3  and  N_4
REMARK    4  A    between atoms: C_5  and  C_7
REMARK    5  A    between atoms: C_11  and  C_12
REMARK    6  A    between atoms: C_12  and  N_13
REMARK    7  A    between atoms: N_13  and  C_14
REMARK    8  A    between atoms: C_14  and  C_15
REMARK    9  A    between atoms: C_19  and  C_20
REMARK                            x       y       z     vdW  Elec       q    Type
REMARK                         _______ _______ _______ _____ _____    ______ ____
ROOT
ATOM      1  N   UNL     1       3.934   6.693  17.562  0.00  0.00    +0.000 NA
ATOM      2  H   UNL     1       3.415   5.950  17.096  0.00  0.00    +0.000 HD
ENDROOT
BRANCH   1   3
ATOM      3  C   UNL     1       3.264   7.968  17.279  0.00  0.00    +0.000 C 
BRANCH   3   8
ATOM      4  C   UNL     1       0.575   9.875  19.208  0.00  0.00    +0.000 A 
ATOM      5  C   UNL     1       0.516   9.152  20.404  0.00  0.00    +0.000 A 
ATOM      6  C   UNL     1       1.386   8.079  20.614  0.00  0.00    +0.000 A 
ATOM      7  C   UNL     1       2.292   7.708  19.620  0.00  0.00    +0.000 A 
ATOM      8  C   UNL     1       2.327   8.382  18.391  0.00  0.00    +0.000 A 
ATOM      9  C   UNL     1       1.482   9.489  18.210  0.00  0.00    +0.000 A 
BRANCH   4  11
ATOM     10  N   UNL     1       0.253  12.192  18.504  0.00  0.00    +0.000 N 
ATOM     11  C   UNL     1      -0.339  11.012  18.917  0.00  0.00    +0.000 C 
ATOM     12  O   UNL     1      -1.552  10.874  19.034  0.00  0.00    +0.000 OA
ATOM     13  H   UNL     1       1.248  12.232  18.344  0.00  0.00    +0.000 HD
BRANCH  10  14
ATOM     14  C   UNL     1      -0.526  13.390  18.261  0.00  0.00    +0.000 C 
BRANCH  14  16
ATOM     15  C   UNL     1       1.672  14.511  18.866  0.00  0.00    +0.000 C 
ATOM     16  C   UNL     1       0.157  14.646  18.800  0.00  0.00    +0.000 C 
ENDBRANCH  14  16
ENDBRANCH  10  14
ENDBRANCH   4  11
ENDBRANCH   3   8
ENDBRANCH   1   3
BRANCH   1  17
ATOM     17  C   UNL     1       5.288   6.721  17.011  0.00  0.00    +0.000 C 
BRANCH  17  18
ATOM     18  C   UNL     1       6.312   6.324  18.031  0.00  0.00    +0.000 A 
ATOM     19  C   UNL     1       7.611   6.755  18.214  0.00  0.00    +0.000 A 
ATOM     20  N   UNL     1       8.090   6.075  19.295  0.00  0.00    +0.000 N 
ATOM     21  N   UNL     1       7.212   5.208  19.831  0.00  0.00    +0.000 NA
ATOM     22  C   UNL     1       6.139   5.326  19.039  0.00  0.00    +0.000 A 
ATOM     23  H   UNL     1       9.014   6.149  19.710  0.00  0.00    +0.000 HD
BRANCH  22  24
ATOM     24  C   UNL     1       4.905   4.487  19.138  0.00  0.00    +0.000 A 
ATOM     25  C   UNL     1       4.542   3.324  18.479  0.00  0.00    +0.000 A 
ATOM     26  C   UNL     1       3.207   3.019  18.902  0.00  0.00    +0.000 A 
ATOM     27  C   UNL     1       2.234   2.037  18.637  0.00  0.00    +0.000 A 
ATOM     28  C   UNL     1       0.981   2.141  19.276  0.00  0.00    +0.000 A 
ATOM     29  C   UNL     1       0.693   3.188  20.156  0.00  0.00    +0.000 A 
ATOM     30  C   UNL     1       1.644   4.160  20.440  0.00  0.00    +0.000 A 
ATOM     31  C   UNL     1       2.865   4.020  19.794  0.00  0.00    +0.000 A 
ATOM     32  O   UNL     1       3.887   4.874  19.957  0.00  0.00    +0.000 OA
ENDBRANCH  22  24
ENDBRANCH  17  18
ENDBRANCH   1  17
TORSDOF 8
ENDMDL
MODEL 9
REMARK VINA RESULT:      -8.2      3.154      8.583
REMARK  Name = 
REMARK  9 active torsions:
REMARK  status: ('A' for Active; 'I' for Inactive)
REMARK    1  A    between atoms: C_1  and  C_2
REMARK    2  A    between atoms: C_2  and  C_3
REMARK    3  A    between atoms: C_3  and  N_4
REMARK    4  A    between atoms: C_5  and  C_7
REMARK    5  A    between atoms: C_11  and  C_12
REMARK    6  A    between atoms: C_12  and  N_13
REMARK    7  A    between atoms: N_13  and  C_14
REMARK    8  A    between atoms: C_14  and  C_15
REMARK    9  A    between atoms: C_19  and  C_20
REMARK                            x       y       z     vdW  Elec       q    Type
REMARK                         _______ _______ _______ _____ _____    ______ ____
ROOT
ATOM      1  N   UNL     1       2.035   5.593  19.885  0.00  0.00    +0.000 NA
ATOM      2  H   UNL     1       1.152   5.803  20.351  0.00  0.00    +0.000 HD
ENDROOT
BRANCH   1   3
ATOM      3  C   UNL     1       2.788   6.845  19.747  0.00  0.00    +0.000 C 
BRANCH   3   8
ATOM      4  C   UNL     1       0.345   9.623  20.697  0.00  0.00    +0.000 A 
ATOM      5  C   UNL     1       0.231  10.326  19.493  0.00  0.00    +0.000 A 
ATOM      6  C   UNL     1       0.901   9.871  18.354  0.00  0.00    +0.000 A 
ATOM      7  C   UNL     1       1.707   8.735  18.423  0.00  0.00    +0.000 A 
ATOM      8  C   UNL     1       1.881   8.050  19.634  0.00  0.00    +0.000 A 
ATOM      9  C   UNL     1       1.165   8.488  20.760  0.00  0.00    +0.000 A 
BRANCH   4  11
ATOM     10  N   UNL     1      -0.905  11.325  21.924  0.00  0.00    +0.000 N 
ATOM     11  C   UNL     1      -0.325  10.070  21.948  0.00  0.00    +0.000 C 
ATOM     12  O   UNL     1      -0.356   9.334  22.929  0.00  0.00    +0.000 OA
ATOM     13  H   UNL     1      -0.925  11.859  21.068  0.00  0.00    +0.000 HD
BRANCH  10  14
ATOM     14  C   UNL     1      -1.523  11.901  23.102  0.00  0.00    +0.000 C 
BRANCH  14  16
ATOM     15  C   UNL     1      -3.802  12.400  24.106  0.00  0.00    +0.000 C 
ATOM     16  C   UNL     1      -2.957  12.360  22.840  0.00  0.00    +0.000 C 
ENDBRANCH  14  16
ENDBRANCH  10  14
ENDBRANCH   4  11
ENDBRANCH   3   8
ENDBRANCH   1   3
BRANCH   1  17
ATOM     17  C   UNL     1       1.735   5.055  18.559  0.00  0.00    +0.000 C 
BRANCH  17  18
ATOM     18  C   UNL     1       2.144   3.618  18.437  0.00  0.00    +0.000 A 
ATOM     19  C   UNL     1       1.389   2.462  18.491  0.00  0.00    +0.000 A 
ATOM     20  N   UNL     1       2.261   1.429  18.311  0.00  0.00    +0.000 N 
ATOM     21  N   UNL     1       3.543   1.811  18.165  0.00  0.00    +0.000 NA
ATOM     22  C   UNL     1       3.483   3.144  18.280  0.00  0.00    +0.000 A 
ATOM     23  H   UNL     1       2.046   0.437  18.292  0.00  0.00    +0.000 HD
BRANCH  22  24
ATOM     24  C   UNL     1       4.667   4.057  18.302  0.00  0.00    +0.000 A 
ATOM     25  C   UNL     1       5.744   4.127  19.171  0.00  0.00    +0.000 A 
ATOM     26  C   UNL     1       6.522   5.259  18.761  0.00  0.00    +0.000 A 
ATOM     27  C   UNL     1       7.692   5.920  19.179  0.00  0.00    +0.000 A 
ATOM     28  C   UNL     1       8.101   7.072  18.477  0.00  0.00    +0.000 A 
ATOM     29  C   UNL     1       7.376   7.563  17.387  0.00  0.00    +0.000 A 
ATOM     30  C   UNL     1       6.226   6.917  16.951  0.00  0.00    +0.000 A 
ATOM     31  C   UNL     1       5.859   5.785  17.666  0.00  0.00    +0.000 A 
ATOM     32  O   UNL     1       4.774   5.050  17.376  0.00  0.00    +0.000 OA
ENDBRANCH  22  24
ENDBRANCH  17  18
ENDBRANCH   1  17
TORSDOF 8
ENDMDL
