MODEL 1
REMARK VINA RESULT:      -8.1      0.000      0.000
REMARK  Name = 
REMARK  6 active torsions:
REMARK  status: ('A' for Active; 'I' for Inactive)
REMARK    1  A    between atoms: C_1  and  C_2
REMARK    2  A    between atoms: C_6  and  C_7
REMARK    3  A    between atoms: N_9  and  C_10
REMARK    4  A    between atoms: C_10  and  C_11
REMARK    5  A    between atoms: N_19  and  C_20
REMARK    6  A    between atoms: N_24  and  C_25
REMARK                            x       y       z     vdW  Elec       q    Type
REMARK                         _______ _______ _______ _____ _____    ______ ____
ROOT
ATOM      1  C   UNL     1       8.110   7.913  17.910  0.00  0.00    +0.000 C 
ATOM      2  O   UNL     1       7.708   7.686  16.779  0.00  0.00    +0.000 OA
ATOM      3  N   UNL     1       8.251   6.936  18.887  0.00  0.00    +0.000 N 
ATOM      4  H   UNL     1       8.495   7.187  19.832  0.00  0.00    +0.000 HD
ENDROOT
BRANCH   1  10
ATOM      5  C   UNL     1       8.556  15.294  17.780  0.00  0.00    +0.000 C 
ATOM      6  C   UNL     1       8.623  13.836  18.057  0.00  0.00    +0.000 A 
ATOM      7  N   UNL     1       8.060  12.895  17.330  0.00  0.00    +0.000 NA
ATOM      8  C   UNL     1       8.380  11.707  17.940  0.00  0.00    +0.000 A 
ATOM      9  C   UNL     1       8.030  10.407  17.562  0.00  0.00    +0.000 A 
ATOM     10  C   UNL     1       8.477   9.318  18.327  0.00  0.00    +0.000 A 
ATOM     11  C   UNL     1       9.237   9.560  19.485  0.00  0.00    +0.000 A 
ATOM     12  C   UNL     1       9.599  10.865  19.881  0.00  0.00    +0.000 A 
ATOM     13  C   UNL     1       9.152  11.920  19.076  0.00  0.00    +0.000 A 
ATOM     14  N   UNL     1       9.298  13.289  19.130  0.00  0.00    +0.000 N 
ATOM     15  C   UNL     1      10.017  14.043  20.126  0.00  0.00    +0.000 C 
ENDBRANCH   1  10
BRANCH   3  16
ATOM     16  C   UNL     1       7.961   5.512  18.689  0.00  0.00    +0.000 C 
BRANCH  16  17
ATOM     17  C   UNL     1       6.459   5.291  18.649  0.00  0.00    +0.000 A 
ATOM     18  N   UNL     1       5.622   5.578  19.642  0.00  0.00    +0.000 NA
ATOM     19  C   UNL     1       4.363   5.226  19.203  0.00  0.00    +0.000 A 
ATOM     20  C   UNL     1       3.122   5.320  19.856  0.00  0.00    +0.000 A 
ATOM     21  C   UNL     1       1.962   4.896  19.190  0.00  0.00    +0.000 A 
ATOM     22  C   UNL     1       2.037   4.384  17.896  0.00  0.00    +0.000 A 
ATOM     23  C   UNL     1       3.258   4.280  17.232  0.00  0.00    +0.000 A 
ATOM     24  C   UNL     1       4.409   4.712  17.915  0.00  0.00    +0.000 A 
ATOM     25  N   UNL     1       5.748   4.761  17.577  0.00  0.00    +0.000 N 
ATOM     26  C   UNL     1       6.256   4.319  16.300  0.00  0.00    +0.000 C 
ENDBRANCH  16  17
ENDBRANCH   3  16
TORSDOF 3
ENDMDL
MODEL 2
REMARK VINA RESULT:      -7.9      4.813      6.956
REMARK  Name = 
REMARK  6 active torsions:
REMARK  status: ('A' for Active; 'I' for Inactive)
REMARK    1  A    between atoms: C_1  and  C_2
REMARK    2  A    between atoms: C_6  and  C_7
REMARK    3  A    between atoms: N_9  and  C_10
REMARK    4  A    between atoms: C_10  and  C_11
REMARK    5  A    between atoms: N_19  and  C_20
REMARK    6  A    between atoms: N_24  and  C_25
REMARK                            x       y       z     vdW  Elec       q    Type
REMARK                         _______ _______ _______ _____ _____    ______ ____
ROOT
ATOM      1  C   UNL     1       3.242   5.633  18.310  0.00  0.00    +0.000 C 
ATOM      2  O   UNL     1       2.619   4.756  17.730  0.00  0.00    +0.000 OA
ATOM      3  N   UNL     1       4.583   5.525  18.654  0.00  0.00    +0.000 N 
ATOM      4  H   UNL     1       5.027   6.234  19.216  0.00  0.00    +0.000 HD
ENDROOT
BRANCH   1  10
ATOM      5  C   UNL     1      -0.322  10.591  22.484  0.00  0.00    +0.000 C 
ATOM      6  C   UNL     1       0.385   9.807  21.439  0.00  0.00    +0.000 A 
ATOM      7  N   UNL     1       0.867   8.592  21.591  0.00  0.00    +0.000 NA
ATOM      8  C   UNL     1       1.426   8.255  20.383  0.00  0.00    +0.000 A 
ATOM      9  C   UNL     1       2.067   7.067  20.016  0.00  0.00    +0.000 A 
ATOM     10  C   UNL     1       2.562   6.922  18.710  0.00  0.00    +0.000 A 
ATOM     11  C   UNL     1       2.438   7.992  17.806  0.00  0.00    +0.000 A 
ATOM     12  C   UNL     1       1.793   9.197  18.160  0.00  0.00    +0.000 A 
ATOM     13  C   UNL     1       1.294   9.290  19.465  0.00  0.00    +0.000 A 
ATOM     14  N   UNL     1       0.623  10.272  20.161  0.00  0.00    +0.000 N 
ATOM     15  C   UNL     1       0.233  11.568  19.666  0.00  0.00    +0.000 C 
ENDBRANCH   1  10
BRANCH   3  16
ATOM     16  C   UNL     1       5.429   4.366  18.352  0.00  0.00    +0.000 C 
BRANCH  16  17
ATOM     17  C   UNL     1       5.860   4.406  16.896  0.00  0.00    +0.000 A 
ATOM     18  N   UNL     1       5.412   3.589  15.948  0.00  0.00    +0.000 NA
ATOM     19  C   UNL     1       6.050   3.957  14.782  0.00  0.00    +0.000 A 
ATOM     20  C   UNL     1       5.942   3.424  13.488  0.00  0.00    +0.000 A 
ATOM     21  C   UNL     1       6.703   3.981  12.449  0.00  0.00    +0.000 A 
ATOM     22  C   UNL     1       7.560   5.052  12.697  0.00  0.00    +0.000 A 
ATOM     23  C   UNL     1       7.684   5.594  13.974  0.00  0.00    +0.000 A 
ATOM     24  C   UNL     1       6.912   5.023  15.002  0.00  0.00    +0.000 A 
ATOM     25  N   UNL     1       6.779   5.297  16.349  0.00  0.00    +0.000 N 
ATOM     26  C   UNL     1       7.504   6.352  17.015  0.00  0.00    +0.000 C 
ENDBRANCH  16  17
ENDBRANCH   3  16
TORSDOF 3
ENDMDL
MODEL 3
REMARK VINA RESULT:      -7.8      5.931      9.398
REMARK  Name = 
REMARK  6 active torsions:
REMARK  status: ('A' for Active; 'I' for Inactive)
REMARK    1  A    between atoms: C_1  and  C_2
REMARK    2  A    between atoms: C_6  and  C_7
REMARK    3  A    between atoms: N_9  and  C_10
REMARK    4  A    between atoms: C_10  and  C_11
REMARK    5  A    between atoms: N_19  and  C_20
REMARK    6  A    between atoms: N_24  and  C_25
REMARK                            x       y       z     vdW  Elec       q    Type
REMARK                         _______ _______ _______ _____ _____    ______ ____
ROOT
ATOM      1  C   UNL     1       1.466   8.079  20.413  0.00  0.00    +0.000 C 
ATOM      2  O   UNL     1       1.208   8.165  21.604  0.00  0.00    +0.000 OA
ATOM      3  N   UNL     1       1.210   9.089  19.495  0.00  0.00    +0.000 N 
ATOM      4  H   UNL     1       1.353   8.935  18.509  0.00  0.00    +0.000 HD
ENDROOT
BRANCH   1  10
ATOM      5  C   UNL     1       5.447   3.686  15.990  0.00  0.00    +0.000 C 
ATOM      6  C   UNL     1       4.587   4.317  17.023  0.00  0.00    +0.000 A 
ATOM      7  N   UNL     1       4.336   5.605  17.125  0.00  0.00    +0.000 NA
ATOM      8  C   UNL     1       3.499   5.741  18.205  0.00  0.00    +0.000 A 
ATOM      9  C   UNL     1       2.935   6.907  18.734  0.00  0.00    +0.000 A 
ATOM     10  C   UNL     1       2.087   6.821  19.850  0.00  0.00    +0.000 A 
ATOM     11  C   UNL     1       1.853   5.566  20.440  0.00  0.00    +0.000 A 
ATOM     12  C   UNL     1       2.414   4.381  19.918  0.00  0.00    +0.000 A 
ATOM     13  C   UNL     1       3.234   4.509  18.791  0.00  0.00    +0.000 A 
ATOM     14  N   UNL     1       3.938   3.612  18.017  0.00  0.00    +0.000 N 
ATOM     15  C   UNL     1       4.007   2.183  18.197  0.00  0.00    +0.000 C 
ENDBRANCH   1  10
BRANCH   3  16
ATOM     16  C   UNL     1       0.624  10.391  19.832  0.00  0.00    +0.000 C 
BRANCH  16  17
ATOM     17  C   UNL     1      -0.641  10.613  19.020  0.00  0.00    +0.000 A 
ATOM     18  N   UNL     1      -0.877  10.088  17.822  0.00  0.00    +0.000 NA
ATOM     19  C   UNL     1      -2.124  10.536  17.439  0.00  0.00    +0.000 A 
ATOM     20  C   UNL     1      -2.852  10.283  16.265  0.00  0.00    +0.000 A 
ATOM     21  C   UNL     1      -4.122  10.858  16.107  0.00  0.00    +0.000 A 
ATOM     22  C   UNL     1      -4.657  11.674  17.101  0.00  0.00    +0.000 A 
ATOM     23  C   UNL     1      -3.951  11.940  18.273  0.00  0.00    +0.000 A 
ATOM     24  C   UNL     1      -2.680  11.354  18.414  0.00  0.00    +0.000 A 
ATOM     25  N   UNL     1      -1.726  11.391  19.412  0.00  0.00    +0.000 N 
ATOM     26  C   UNL     1      -1.894  12.136  20.637  0.00  0.00    +0.000 C 
ENDBRANCH  16  17
ENDBRANCH   3  16
TORSDOF 3
ENDMDL
MODEL 4
REMARK VINA RESULT:      -7.8      5.283      6.960
REMARK  Name = 
REMARK  6 active torsions:
REMARK  status: ('A' for Active; 'I' for Inactive)
REMARK    1  A    between atoms: C_1  and  C_2
REMARK    2  A    between atoms: C_6  and  C_7
REMARK    3  A    between atoms: N_9  and  C_10
REMARK    4  A    between atoms: C_10  and  C_11
REMARK    5  A    between atoms: N_19  and  C_20
REMARK    6  A    between atoms: N_24  and  C_25
REMARK                            x       y       z     vdW  Elec       q    Type
REMARK                         _______ _______ _______ _____ _____    ______ ____
ROOT
ATOM      1  C   UNL     1       3.774   5.914  18.786  0.00  0.00    +0.000 C 
ATOM      2  O   UNL     1       3.389   4.803  19.118  0.00  0.00    +0.000 OA
ATOM      3  N   UNL     1       5.049   6.173  18.299  0.00  0.00    +0.000 N 
ATOM      4  H   UNL     1       5.350   7.120  18.129  0.00  0.00    +0.000 HD
ENDROOT
BRANCH   1  10
ATOM      5  C   UNL     1      -0.898  10.804  21.778  0.00  0.00    +0.000 C 
ATOM      6  C   UNL     1       0.014   9.990  20.935  0.00  0.00    +0.000 A 
ATOM      7  N   UNL     1       0.675   8.925  21.335  0.00  0.00    +0.000 NA
ATOM      8  C   UNL     1       1.382   8.489  20.241  0.00  0.00    +0.000 A 
ATOM      9  C   UNL     1       2.239   7.389  20.134  0.00  0.00    +0.000 A 
ATOM     10  C   UNL     1       2.860   7.111  18.905  0.00  0.00    +0.000 A 
ATOM     11  C   UNL     1       2.638   7.970  17.814  0.00  0.00    +0.000 A 
ATOM     12  C   UNL     1       1.776   9.084  17.905  0.00  0.00    +0.000 A 
ATOM     13  C   UNL     1       1.160   9.311  19.142  0.00  0.00    +0.000 A 
ATOM     14  N   UNL     1       0.279  10.263  19.608  0.00  0.00    +0.000 N 
ATOM     15  C   UNL     1      -0.276  11.365  18.863  0.00  0.00    +0.000 C 
ENDBRANCH   1  10
BRANCH   3  16
ATOM     16  C   UNL     1       6.085   5.155  18.096  0.00  0.00    +0.000 C 
BRANCH  16  17
ATOM     17  C   UNL     1       6.283   4.907  16.610  0.00  0.00    +0.000 A 
ATOM     18  N   UNL     1       7.232   5.467  15.866  0.00  0.00    +0.000 NA
ATOM     19  C   UNL     1       7.060   4.981  14.587  0.00  0.00    +0.000 A 
ATOM     20  C   UNL     1       7.789   5.247  13.416  0.00  0.00    +0.000 A 
ATOM     21  C   UNL     1       7.419   4.617  12.218  0.00  0.00    +0.000 A 
ATOM     22  C   UNL     1       6.338   3.737  12.187  0.00  0.00    +0.000 A 
ATOM     23  C   UNL     1       5.601   3.461  13.337  0.00  0.00    +0.000 A 
ATOM     24  C   UNL     1       5.988   4.101  14.528  0.00  0.00    +0.000 A 
ATOM     25  N   UNL     1       5.506   4.064  15.822  0.00  0.00    +0.000 N 
ATOM     26  C   UNL     1       4.377   3.258  16.220  0.00  0.00    +0.000 C 
ENDBRANCH  16  17
ENDBRANCH   3  16
TORSDOF 3
ENDMDL
MODEL 5
REMARK VINA RESULT:      -7.8      6.223      9.731
REMARK  Name = 
REMARK  6 active torsions:
REMARK  status: ('A' for Active; 'I' for Inactive)
REMARK    1  A    between atoms: C_1  and  C_2
REMARK    2  A    between atoms: C_6  and  C_7
REMARK    3  A    between atoms: N_9  and  C_10
REMARK    4  A    between atoms: C_10  and  C_11
REMARK    5  A    between atoms: N_19  and  C_20
REMARK    6  A    between atoms: N_24  and  C_25
REMARK                            x       y       z     vdW  Elec       q    Type
REMARK                         _______ _______ _______ _____ _____    ______ ____
ROOT
ATOM      1  C   UNL     1       1.911   9.252  18.551  0.00  0.00    +0.000 C 
ATOM      2  O   UNL     1       2.256   9.873  17.557  0.00  0.00    +0.000 OA
ATOM      3  N   UNL     1       1.166   9.806  19.584  0.00  0.00    +0.000 N 
ATOM      4  H   UNL     1       0.988   9.282  20.427  0.00  0.00    +0.000 HD
ENDROOT
BRANCH   1  10
ATOM      5  C   UNL     1       2.492   2.544  21.612  0.00  0.00    +0.000 C 
ATOM      6  C   UNL     1       2.529   3.771  20.775  0.00  0.00    +0.000 A 
ATOM      7  N   UNL     1       1.957   4.917  21.074  0.00  0.00    +0.000 NA
ATOM      8  C   UNL     1       2.249   5.766  20.036  0.00  0.00    +0.000 A 
ATOM      9  C   UNL     1       1.879   7.105  19.868  0.00  0.00    +0.000 A 
ATOM     10  C   UNL     1       2.298   7.802  18.724  0.00  0.00    +0.000 A 
ATOM     11  C   UNL     1       3.050   7.127  17.746  0.00  0.00    +0.000 A 
ATOM     12  C   UNL     1       3.431   5.776  17.899  0.00  0.00    +0.000 A 
ATOM     13  C   UNL     1       3.012   5.126  19.066  0.00  0.00    +0.000 A 
ATOM     14  N   UNL     1       3.182   3.851  19.561  0.00  0.00    +0.000 N 
ATOM     15  C   UNL     1       3.904   2.771  18.936  0.00  0.00    +0.000 C 
ENDBRANCH   1  10
BRANCH   3  16
ATOM     16  C   UNL     1       0.680  11.190  19.611  0.00  0.00    +0.000 C 
BRANCH  16  17
ATOM     17  C   UNL     1      -0.719  11.258  19.023  0.00  0.00    +0.000 A 
ATOM     18  N   UNL     1      -1.059  10.808  17.819  0.00  0.00    +0.000 NA
ATOM     19  C   UNL     1      -2.407  11.063  17.676  0.00  0.00    +0.000 A 
ATOM     20  C   UNL     1      -3.266  10.790  16.598  0.00  0.00    +0.000 A 
ATOM     21  C   UNL     1      -4.621  11.145  16.693  0.00  0.00    +0.000 A 
ATOM     22  C   UNL     1      -5.111  11.764  17.842  0.00  0.00    +0.000 A 
ATOM     23  C   UNL     1      -4.275  12.045  18.921  0.00  0.00    +0.000 A 
ATOM     24  C   UNL     1      -2.921  11.680  18.808  0.00  0.00    +0.000 A 
ATOM     25  N   UNL     1      -1.836  11.796  19.655  0.00  0.00    +0.000 N 
ATOM     26  C   UNL     1      -1.919  12.387  20.968  0.00  0.00    +0.000 C 
ENDBRANCH  16  17
ENDBRANCH   3  16
TORSDOF 3
ENDMDL
MODEL 6
REMARK VINA RESULT:      -7.7      6.311      8.447
REMARK  Name = 
REMARK  6 active torsions:
REMARK  status: ('A' for Active; 'I' for Inactive)
REMARK    1  A    between atoms: C_1  and  C_2
REMARK    2  A    between atoms: C_6  and  C_7
REMARK    3  A    between atoms: N_9  and  C_10
REMARK    4  A    between atoms: C_10  and  C_11
REMARK    5  A    between atoms: N_19  and  C_20
REMARK    6  A    between atoms: N_24  and  C_25
REMARK                            x       y       z     vdW  Elec       q    Type
REMARK                         _______ _______ _______ _____ _____    ______ ____
ROOT
ATOM      1  C   UNL     1       1.482  10.169  18.207  0.00  0.00    +0.000 C 
ATOM      2  O   UNL     1       2.409  10.933  17.981  0.00  0.00    +0.000 OA
ATOM      3  N   UNL     1       1.598   8.785  18.163  0.00  0.00    +0.000 N 
ATOM      4  H   UNL     1       0.783   8.200  18.262  0.00  0.00    +0.000 HD
ENDROOT
BRANCH   1  10
ATOM      5  C   UNL     1      -5.835  11.197  17.881  0.00  0.00    +0.000 C 
ATOM      6  C   UNL     1      -4.378  11.182  18.173  0.00  0.00    +0.000 A 
ATOM      7  N   UNL     1      -3.483  10.447  17.548  0.00  0.00    +0.000 NA
ATOM      8  C   UNL     1      -2.276  10.750  18.129  0.00  0.00    +0.000 A 
ATOM      9  C   UNL     1      -1.007  10.245  17.827  0.00  0.00    +0.000 A 
ATOM     10  C   UNL     1       0.110  10.704  18.543  0.00  0.00    +0.000 A 
ATOM     11  C   UNL     1      -0.075  11.635  19.581  0.00  0.00    +0.000 A 
ATOM     12  C   UNL     1      -1.348  12.155  19.898  0.00  0.00    +0.000 A 
ATOM     13  C   UNL     1      -2.431  11.688  19.143  0.00  0.00    +0.000 A 
ATOM     14  N   UNL     1      -3.784  11.952  19.152  0.00  0.00    +0.000 N 
ATOM     15  C   UNL     1      -4.481  12.863  20.025  0.00  0.00    +0.000 C 
ENDBRANCH   1  10
BRANCH   3  16
ATOM     16  C   UNL     1       2.838   8.062  17.866  0.00  0.00    +0.000 C 
BRANCH  16  17
ATOM     17  C   UNL     1       2.860   6.743  18.619  0.00  0.00    +0.000 A 
ATOM     18  N   UNL     1       2.189   6.496  19.739  0.00  0.00    +0.000 NA
ATOM     19  C   UNL     1       2.483   5.195  20.090  0.00  0.00    +0.000 A 
ATOM     20  C   UNL     1       2.039   4.434  21.185  0.00  0.00    +0.000 A 
ATOM     21  C   UNL     1       2.481   3.110  21.325  0.00  0.00    +0.000 A 
ATOM     22  C   UNL     1       3.353   2.553  20.391  0.00  0.00    +0.000 A 
ATOM     23  C   UNL     1       3.807   3.291  19.299  0.00  0.00    +0.000 A 
ATOM     24  C   UNL     1       3.351   4.615  19.175  0.00  0.00    +0.000 A 
ATOM     25  N   UNL     1       3.580   5.612  18.246  0.00  0.00    +0.000 N 
ATOM     26  C   UNL     1       4.438   5.438  17.098  0.00  0.00    +0.000 C 
ENDBRANCH  16  17
ENDBRANCH   3  16
TORSDOF 3
ENDMDL
MODEL 7
REMARK VINA RESULT:      -7.7      6.203      9.843
REMARK  Name = 
REMARK  6 active torsions:
REMARK  status: ('A' for Active; 'I' for Inactive)
REMARK    1  A    between atoms: C_1  and  C_2
REMARK    2  A    between atoms: C_6  and  C_7
REMARK    3  A    between atoms: N_9  and  C_10
REMARK    4  A    between atoms: C_10  and  C_11
REMARK    5  A    between atoms: N_19  and  C_20
REMARK    6  A    between atoms: N_24  and  C_25
REMARK                            x       y       z     vdW  Elec       q    Type
REMARK                         _______ _______ _______ _____ _____    ______ ____
ROOT
ATOM      1  C   UNL     1       1.810   8.848  18.436  0.00  0.00    +0.000 C 
ATOM      2  O   UNL     1       2.197   9.202  17.332  0.00  0.00    +0.000 OA
ATOM      3  N   UNL     1       1.149   9.686  19.325  0.00  0.00    +0.000 N 
ATOM      4  H   UNL     1       0.935   9.375  20.259  0.00  0.00    +0.000 HD
ENDROOT
BRANCH   1  10
ATOM      5  C   UNL     1       3.537   1.659  18.258  0.00  0.00    +0.000 C 
ATOM      6  C   UNL     1       3.149   3.055  18.583  0.00  0.00    +0.000 A 
ATOM      7  N   UNL     1       3.109   4.055  17.728  0.00  0.00    +0.000 NA
ATOM      8  C   UNL     1       2.697   5.149  18.448  0.00  0.00    +0.000 A 
ATOM      9  C   UNL     1       2.488   6.460  18.007  0.00  0.00    +0.000 A 
ATOM     10  C   UNL     1       2.048   7.435  18.916  0.00  0.00    +0.000 A 
ATOM     11  C   UNL     1       1.864   7.084  20.265  0.00  0.00    +0.000 A 
ATOM     12  C   UNL     1       2.069   5.765  20.726  0.00  0.00    +0.000 A 
ATOM     13  C   UNL     1       2.484   4.819  19.782  0.00  0.00    +0.000 A 
ATOM     14  N   UNL     1       2.778   3.474  19.845  0.00  0.00    +0.000 N 
ATOM     15  C   UNL     1       2.721   2.632  21.013  0.00  0.00    +0.000 C 
ENDBRANCH   1  10
BRANCH   3  16
ATOM     16  C   UNL     1       0.810  11.087  19.053  0.00  0.00    +0.000 C 
BRANCH  16  17
ATOM     17  C   UNL     1      -0.677  11.213  18.770  0.00  0.00    +0.000 A 
ATOM     18  N   UNL     1      -1.303  10.665  17.733  0.00  0.00    +0.000 NA
ATOM     19  C   UNL     1      -2.630  11.021  17.847  0.00  0.00    +0.000 A 
ATOM     20  C   UNL     1      -3.721  10.708  17.020  0.00  0.00    +0.000 A 
ATOM     21  C   UNL     1      -4.996  11.190  17.352  0.00  0.00    +0.000 A 
ATOM     22  C   UNL     1      -5.181  11.974  18.490  0.00  0.00    +0.000 A 
ATOM     23  C   UNL     1      -4.111  12.298  19.323  0.00  0.00    +0.000 A 
ATOM     24  C   UNL     1      -2.842  11.803  18.974  0.00  0.00    +0.000 A 
ATOM     25  N   UNL     1      -1.591  11.916  19.550  0.00  0.00    +0.000 N 
ATOM     26  C   UNL     1      -1.346  12.655  20.765  0.00  0.00    +0.000 C 
ENDBRANCH  16  17
ENDBRANCH   3  16
TORSDOF 3
ENDMDL
MODEL 8
REMARK VINA RESULT:      -7.7      0.689      1.690
REMARK  Name = 
REMARK  6 active torsions:
REMARK  status: ('A' for Active; 'I' for Inactive)
REMARK    1  A    between atoms: C_1  and  C_2
REMARK    2  A    between atoms: C_6  and  C_7
REMARK    3  A    between atoms: N_9  and  C_10
REMARK    4  A    between atoms: C_10  and  C_11
REMARK    5  A    between atoms: N_19  and  C_20
REMARK    6  A    between atoms: N_24  and  C_25
REMARK                            x       y       z     vdW  Elec       q    Type
REMARK                         _______ _______ _______ _____ _____    ______ ____
ROOT
ATOM      1  C   UNL     1       8.146   7.994  17.929  0.00  0.00    +0.000 C 
ATOM      2  O   UNL     1       7.811   7.616  16.816  0.00  0.00    +0.000 OA
ATOM      3  N   UNL     1       8.303   7.142  19.015  0.00  0.00    +0.000 N 
ATOM      4  H   UNL     1       8.486   7.512  19.935  0.00  0.00    +0.000 HD
ENDROOT
BRANCH   1  10
ATOM      5  C   UNL     1      10.554  14.103  21.332  0.00  0.00    +0.000 C 
ATOM      6  C   UNL     1       9.968  13.065  20.444  0.00  0.00    +0.000 A 
ATOM      7  N   UNL     1      10.031  11.766  20.645  0.00  0.00    +0.000 NA
ATOM      8  C   UNL     1       9.359  11.191  19.595  0.00  0.00    +0.000 A 
ATOM      9  C   UNL     1       9.133   9.835  19.337  0.00  0.00    +0.000 A 
ATOM     10  C   UNL     1       8.402   9.458  18.199  0.00  0.00    +0.000 A 
ATOM     11  C   UNL     1       7.946  10.453  17.315  0.00  0.00    +0.000 A 
ATOM     12  C   UNL     1       8.166  11.825  17.560  0.00  0.00    +0.000 A 
ATOM     13  C   UNL     1       8.878  12.158  18.719  0.00  0.00    +0.000 A 
ATOM     14  N   UNL     1       9.277  13.350  19.284  0.00  0.00    +0.000 N 
ATOM     15  C   UNL     1       9.035  14.674  18.769  0.00  0.00    +0.000 C 
ENDBRANCH   1  10
BRANCH   3  16
ATOM     16  C   UNL     1       8.113   5.689  18.968  0.00  0.00    +0.000 C 
BRANCH  16  17
ATOM     17  C   UNL     1       6.639   5.364  18.797  0.00  0.00    +0.000 A 
ATOM     18  N   UNL     1       5.698   5.602  19.705  0.00  0.00    +0.000 NA
ATOM     19  C   UNL     1       4.511   5.160  19.160  0.00  0.00    +0.000 A 
ATOM     20  C   UNL     1       3.212   5.175  19.696  0.00  0.00    +0.000 A 
ATOM     21  C   UNL     1       2.149   4.666  18.935  0.00  0.00    +0.000 A 
ATOM     22  C   UNL     1       2.377   4.148  17.661  0.00  0.00    +0.000 A 
ATOM     23  C   UNL     1       3.657   4.123  17.111  0.00  0.00    +0.000 A 
ATOM     24  C   UNL     1       4.709   4.640  17.889  0.00  0.00    +0.000 A 
ATOM     25  N   UNL     1       6.066   4.777  17.672  0.00  0.00    +0.000 N 
ATOM     26  C   UNL     1       6.717   4.360  16.454  0.00  0.00    +0.000 C 
ENDBRANCH  16  17
ENDBRANCH   3  16
TORSDOF 3
ENDMDL
MODEL 9
REMARK VINA RESULT:      -7.7      4.967      7.103
REMARK  Name = 
REMARK  6 active torsions:
REMARK  status: ('A' for Active; 'I' for Inactive)
REMARK    1  A    between atoms: C_1  and  C_2
REMARK    2  A    between atoms: C_6  and  C_7
REMARK    3  A    between atoms: N_9  and  C_10
REMARK    4  A    between atoms: C_10  and  C_11
REMARK    5  A    between atoms: N_19  and  C_20
REMARK    6  A    between atoms: N_24  and  C_25
REMARK                            x       y       z     vdW  Elec       q    Type
REMARK                         _______ _______ _______ _____ _____    ______ ____
ROOT
ATOM      1  C   UNL     1       2.491   5.938  19.800  0.00  0.00    +0.000 C 
ATOM      2  O   UNL     1       1.797   4.931  19.814  0.00  0.00    +0.000 OA
ATOM      3  N   UNL     1       3.871   5.918  19.652  0.00  0.00    +0.000 N 
ATOM      4  H   UNL     1       4.409   6.767  19.743  0.00  0.00    +0.000 HD
ENDROOT
BRANCH   1  10
ATOM      5  C   UNL     1      -1.189  11.558  22.893  0.00  0.00    +0.000 C 
ATOM      6  C   UNL     1      -0.416  10.616  22.044  0.00  0.00    +0.000 A 
ATOM      7  N   UNL     1      -0.052   9.400  22.391  0.00  0.00    +0.000 NA
ATOM      8  C   UNL     1       0.629   8.890  21.313  0.00  0.00    +0.000 A 
ATOM      9  C   UNL     1       1.220   7.631  21.167  0.00  0.00    +0.000 A 
ATOM     10  C   UNL     1       1.865   7.303  19.963  0.00  0.00    +0.000 A 
ATOM     11  C   UNL     1       1.939   8.266  18.940  0.00  0.00    +0.000 A 
ATOM     12  C   UNL     1       1.348   9.541  19.072  0.00  0.00    +0.000 A 
ATOM     13  C   UNL     1       0.695   9.817  20.279  0.00  0.00    +0.000 A 
ATOM     14  N   UNL     1       0.017  10.912  20.768  0.00  0.00    +0.000 N 
ATOM     15  C   UNL     1      -0.207  12.163  20.087  0.00  0.00    +0.000 C 
ENDBRANCH   1  10
BRANCH   3  16
ATOM     16  C   UNL     1       4.673   4.704  19.470  0.00  0.00    +0.000 C 
BRANCH  16  17
ATOM     17  C   UNL     1       5.173   4.623  18.038  0.00  0.00    +0.000 A 
ATOM     18  N   UNL     1       4.519   4.042  17.037  0.00  0.00    +0.000 NA
ATOM     19  C   UNL     1       5.313   4.187  15.918  0.00  0.00    +0.000 A 
ATOM     20  C   UNL     1       5.097   3.758  14.598  0.00  0.00    +0.000 A 
ATOM     21  C   UNL     1       6.064   4.033  13.620  0.00  0.00    +0.000 A 
ATOM     22  C   UNL     1       7.229   4.723  13.952  0.00  0.00    +0.000 A 
ATOM     23  C   UNL     1       7.464   5.155  15.256  0.00  0.00    +0.000 A 
ATOM     24  C   UNL     1       6.482   4.871  16.222  0.00  0.00    +0.000 A 
ATOM     25  N   UNL     1       6.377   5.142  17.572  0.00  0.00    +0.000 N 
ATOM     26  C   UNL     1       7.389   5.854  18.315  0.00  0.00    +0.000 C 
ENDBRANCH  16  17
ENDBRANCH   3  16
TORSDOF 3
ENDMDL
