MODEL 1
REMARK VINA RESULT:      -8.8      0.000      0.000
REMARK  Name = 
REMARK  9 active torsions:
REMARK  status: ('A' for Active; 'I' for Inactive)
REMARK    1  A    between atoms: C_1  and  C_2
REMARK    2  A    between atoms: C_2  and  C_3
REMARK    3  A    between atoms: C_2  and  C_10
REMARK    4  A    between atoms: C_3  and  C_4
REMARK    5  A    between atoms: N_8  and  C_9
REMARK    6  A    between atoms: C_14  and  N_15
REMARK    7  A    between atoms: C_16  and  C_18
REMARK    8  A    between atoms: CA_25  and  C_26
REMARK    9  A    between atoms: C_26  and  O_27
REMARK                            x       y       z     vdW  Elec       q    Type
REMARK                         _______ _______ _______ _____ _____    ______ ____
ROOT
ATOM      1  N   UNL     1       2.450   7.395  19.495  0.00  0.00    +0.000 N 
ATOM      2  C   UNL     1       2.801   7.484  18.169  0.00  0.00    +0.000 C 
ATOM      3  O   UNL     1       2.231   8.205  17.349  0.00  0.00    +0.000 OA
ATOM      4  H   UNL     1       2.862   6.662  20.054  0.00  0.00    +0.000 HD
ENDROOT
BRANCH   2   5
ATOM      5  C   UNL     1       3.901   6.606  17.660  0.00  0.00    +0.000 A 
ATOM      6  C   UNL     1       5.104   7.053  17.124  0.00  0.00    +0.000 A 
ATOM      7  C   UNL     1       6.203   6.183  17.136  0.00  0.00    +0.000 A 
ATOM      8  C   UNL     1       6.128   4.948  17.805  0.00  0.00    +0.000 A 
ATOM      9  C   UNL     1       4.903   4.504  18.308  0.00  0.00    +0.000 A 
ATOM     10  C   UNL     1       3.777   5.264  18.042  0.00  0.00    +0.000 A 
ATOM     11  N   UNL     1       2.488   4.765  18.187  0.00  0.00    +0.000 NA
ATOM     12  CA  UNL     1       2.263   3.887  19.101  0.00  0.00    +0.000 C 
ATOM     13  C   UNL     1       3.365   3.217  19.865  0.00  0.00    +0.000 C 
ATOM     14  O   UNL     1       3.110   2.593  20.884  0.00  0.00    +0.000 OA
ATOM     15  C   UNL     1       4.759   3.334  19.253  0.00  0.00    +0.000 C 
BRANCH  12  16
ATOM     16  C   UNL     1       0.814   3.649  19.454  0.00  0.00    +0.000 C 
BRANCH  16  17
ATOM     17  O   UNL     1       0.704   3.530  20.880  0.00  0.00    +0.000 OA
ATOM     18  H   UNL     1      -0.226   3.784  21.078  0.00  0.00    +0.000 HD
ENDBRANCH  16  17
ENDBRANCH  12  16
ENDBRANCH   2   5
BRANCH   1  23
ATOM     19  C   UNL     1      -0.047  10.112  19.918  0.00  0.00    +0.000 A 
ATOM     20  C   UNL     1      -0.353  10.006  21.282  0.00  0.00    +0.000 A 
ATOM     21  C   UNL     1       0.321   9.091  22.085  0.00  0.00    +0.000 A 
ATOM     22  C   UNL     1       1.287   8.251  21.528  0.00  0.00    +0.000 A 
ATOM     23  C   UNL     1       1.561   8.282  20.156  0.00  0.00    +0.000 A 
ATOM     24  C   UNL     1       0.887   9.217  19.365  0.00  0.00    +0.000 A 
BRANCH  19  26
ATOM     25  C   UNL     1       0.210  12.350  18.746  0.00  0.00    +0.000 C 
ATOM     26  C   UNL     1      -0.735  11.185  19.081  0.00  0.00    +0.000 C 
BRANCH  26  27
ATOM     27  C   UNL     1      -1.379  10.555  17.830  0.00  0.00    +0.000 C 
BRANCH  27  28
ATOM     28  C   UNL     1      -2.783  11.011  17.615  0.00  0.00    +0.000 A 
ATOM     29  N   UNL     1      -3.586  11.496  18.547  0.00  0.00    +0.000 NA
ATOM     30  N   UNL     1      -4.791  11.796  17.962  0.00  0.00    +0.000 NA
ATOM     31  C   UNL     1      -4.699  11.501  16.687  0.00  0.00    +0.000 A 
ATOM     32  N   UNL     1      -3.462  10.996  16.426  0.00  0.00    +0.000 N 
ATOM     33  C   UNL     1      -2.982  10.547  15.149  0.00  0.00    +0.000 C 
ENDBRANCH  27  28
ENDBRANCH  26  27
ENDBRANCH  19  26
ENDBRANCH   1  23
TORSDOF 7
ENDMDL
MODEL 2
REMARK VINA RESULT:      -8.7      1.383      2.235
REMARK  Name = 
REMARK  9 active torsions:
REMARK  status: ('A' for Active; 'I' for Inactive)
REMARK    1  A    between atoms: C_1  and  C_2
REMARK    2  A    between atoms: C_2  and  C_3
REMARK    3  A    between atoms: C_2  and  C_10
REMARK    4  A    between atoms: C_3  and  C_4
REMARK    5  A    between atoms: N_8  and  C_9
REMARK    6  A    between atoms: C_14  and  N_15
REMARK    7  A    between atoms: C_16  and  C_18
REMARK    8  A    between atoms: CA_25  and  C_26
REMARK    9  A    between atoms: C_26  and  O_27
REMARK                            x       y       z     vdW  Elec       q    Type
REMARK                         _______ _______ _______ _____ _____    ______ ____
ROOT
ATOM      1  N   UNL     1       1.958   8.765  17.845  0.00  0.00    +0.000 N 
ATOM      2  C   UNL     1       2.464   7.658  18.483  0.00  0.00    +0.000 C 
ATOM      3  O   UNL     1       2.224   7.364  19.655  0.00  0.00    +0.000 OA
ATOM      4  H   UNL     1       2.334   9.014  16.942  0.00  0.00    +0.000 HD
ENDROOT
BRANCH   2   5
ATOM      5  C   UNL     1       3.420   6.779  17.739  0.00  0.00    +0.000 A 
ATOM      6  C   UNL     1       4.487   7.224  16.968  0.00  0.00    +0.000 A 
ATOM      7  C   UNL     1       5.553   6.343  16.732  0.00  0.00    +0.000 A 
ATOM      8  C   UNL     1       5.605   5.098  17.381  0.00  0.00    +0.000 A 
ATOM      9  C   UNL     1       4.509   4.656  18.126  0.00  0.00    +0.000 A 
ATOM     10  C   UNL     1       3.362   5.431  18.117  0.00  0.00    +0.000 A 
ATOM     11  N   UNL     1       2.126   4.942  18.524  0.00  0.00    +0.000 NA
ATOM     12  CA  UNL     1       2.088   4.049  19.451  0.00  0.00    +0.000 C 
ATOM     13  C   UNL     1       3.318   3.355  19.954  0.00  0.00    +0.000 C 
ATOM     14  O   UNL     1       3.276   2.716  20.993  0.00  0.00    +0.000 OA
ATOM     15  C   UNL     1       4.552   3.470  19.061  0.00  0.00    +0.000 C 
BRANCH  12  16
ATOM     16  C   UNL     1       0.744   3.819  20.099  0.00  0.00    +0.000 C 
BRANCH  16  17
ATOM     17  O   UNL     1       0.138   2.665  19.499  0.00  0.00    +0.000 OA
ATOM     18  H   UNL     1       0.520   1.902  19.990  0.00  0.00    +0.000 HD
ENDBRANCH  16  17
ENDBRANCH  12  16
ENDBRANCH   2   5
BRANCH   1  23
ATOM     19  C   UNL     1      -1.373  10.398  18.038  0.00  0.00    +0.000 A 
ATOM     20  C   UNL     1      -1.309  11.027  19.289  0.00  0.00    +0.000 A 
ATOM     21  C   UNL     1      -0.137  10.981  20.040  0.00  0.00    +0.000 A 
ATOM     22  C   UNL     1       0.973  10.282  19.562  0.00  0.00    +0.000 A 
ATOM     23  C   UNL     1       0.914   9.582  18.352  0.00  0.00    +0.000 A 
ATOM     24  C   UNL     1      -0.264   9.650  17.601  0.00  0.00    +0.000 A 
BRANCH  19  26
ATOM     25  C   UNL     1      -2.533   9.779  15.866  0.00  0.00    +0.000 C 
ATOM     26  C   UNL     1      -2.636  10.541  17.197  0.00  0.00    +0.000 C 
BRANCH  26  27
ATOM     27  C   UNL     1      -3.875  10.143  18.022  0.00  0.00    +0.000 C 
BRANCH  27  28
ATOM     28  C   UNL     1      -5.038  11.048  17.785  0.00  0.00    +0.000 A 
ATOM     29  N   UNL     1      -5.034  12.120  17.012  0.00  0.00    +0.000 NA
ATOM     30  N   UNL     1      -6.284  12.686  17.056  0.00  0.00    +0.000 NA
ATOM     31  C   UNL     1      -7.029  11.946  17.843  0.00  0.00    +0.000 A 
ATOM     32  N   UNL     1      -6.288  10.914  18.331  0.00  0.00    +0.000 N 
ATOM     33  C   UNL     1      -6.744   9.895  19.233  0.00  0.00    +0.000 C 
ENDBRANCH  27  28
ENDBRANCH  26  27
ENDBRANCH  19  26
ENDBRANCH   1  23
TORSDOF 7
ENDMDL
MODEL 3
REMARK VINA RESULT:      -8.6      3.332      8.676
REMARK  Name = 
REMARK  9 active torsions:
REMARK  status: ('A' for Active; 'I' for Inactive)
REMARK    1  A    between atoms: C_1  and  C_2
REMARK    2  A    between atoms: C_2  and  C_3
REMARK    3  A    between atoms: C_2  and  C_10
REMARK    4  A    between atoms: C_3  and  C_4
REMARK    5  A    between atoms: N_8  and  C_9
REMARK    6  A    between atoms: C_14  and  N_15
REMARK    7  A    between atoms: C_16  and  C_18
REMARK    8  A    between atoms: CA_25  and  C_26
REMARK    9  A    between atoms: C_26  and  O_27
REMARK                            x       y       z     vdW  Elec       q    Type
REMARK                         _______ _______ _______ _____ _____    ______ ____
ROOT
ATOM      1  N   UNL     1       1.584   9.702  19.772  0.00  0.00    +0.000 N 
ATOM      2  C   UNL     1       0.586  10.379  19.113  0.00  0.00    +0.000 C 
ATOM      3  O   UNL     1      -0.153   9.872  18.267  0.00  0.00    +0.000 OA
ATOM      4  H   UNL     1       2.242  10.233  20.325  0.00  0.00    +0.000 HD
ENDROOT
BRANCH   2   5
ATOM      5  C   UNL     1       0.416  11.842  19.382  0.00  0.00    +0.000 A 
ATOM      6  C   UNL     1       0.432  12.843  18.418  0.00  0.00    +0.000 A 
ATOM      7  C   UNL     1      -0.196  14.062  18.712  0.00  0.00    +0.000 A 
ATOM      8  C   UNL     1      -0.947  14.210  19.890  0.00  0.00    +0.000 A 
ATOM      9  C   UNL     1      -0.925  13.205  20.860  0.00  0.00    +0.000 A 
ATOM     10  C   UNL     1      -0.077  12.129  20.661  0.00  0.00    +0.000 A 
ATOM     11  N   UNL     1       0.283  11.262  21.686  0.00  0.00    +0.000 NA
ATOM     12  CA  UNL     1      -0.564  11.031  22.628  0.00  0.00    +0.000 C 
ATOM     13  C   UNL     1      -1.829  11.820  22.787  0.00  0.00    +0.000 C 
ATOM     14  O   UNL     1      -2.715  11.411  23.521  0.00  0.00    +0.000 OA
ATOM     15  C   UNL     1      -1.880  13.144  22.029  0.00  0.00    +0.000 C 
BRANCH  12  16
ATOM     16  C   UNL     1      -0.278   9.833  23.502  0.00  0.00    +0.000 C 
BRANCH  16  17
ATOM     17  O   UNL     1      -1.077   8.732  23.046  0.00  0.00    +0.000 OA
ATOM     18  H   UNL     1      -1.508   9.063  22.226  0.00  0.00    +0.000 HD
ENDBRANCH  16  17
ENDBRANCH  12  16
ENDBRANCH   2   5
BRANCH   1  23
ATOM     19  C   UNL     1       2.738   6.365  18.620  0.00  0.00    +0.000 A 
ATOM     20  C   UNL     1       2.304   5.538  19.665  0.00  0.00    +0.000 A 
ATOM     21  C   UNL     1       1.559   6.065  20.717  0.00  0.00    +0.000 A 
ATOM     22  C   UNL     1       1.265   7.430  20.749  0.00  0.00    +0.000 A 
ATOM     23  C   UNL     1       1.749   8.292  19.759  0.00  0.00    +0.000 A 
ATOM     24  C   UNL     1       2.482   7.746  18.702  0.00  0.00    +0.000 A 
BRANCH  19  26
ATOM     25  C   UNL     1       4.448   6.736  16.779  0.00  0.00    +0.000 C 
ATOM     26  C   UNL     1       3.472   5.746  17.437  0.00  0.00    +0.000 C 
BRANCH  26  27
ATOM     27  C   UNL     1       4.150   4.427  17.859  0.00  0.00    +0.000 C 
BRANCH  27  28
ATOM     28  C   UNL     1       5.618   4.579  18.078  0.00  0.00    +0.000 A 
ATOM     29  N   UNL     1       6.195   4.913  19.219  0.00  0.00    +0.000 NA
ATOM     30  N   UNL     1       7.553   4.954  19.017  0.00  0.00    +0.000 NA
ATOM     31  C   UNL     1       7.779   4.635  17.765  0.00  0.00    +0.000 A 
ATOM     32  N   UNL     1       6.596   4.401  17.135  0.00  0.00    +0.000 N 
ATOM     33  C   UNL     1       6.427   4.038  15.756  0.00  0.00    +0.000 C 
ENDBRANCH  27  28
ENDBRANCH  26  27
ENDBRANCH  19  26
ENDBRANCH   1  23
TORSDOF 7
ENDMDL
MODEL 4
REMARK VINA RESULT:      -8.6      1.196      1.196
REMARK  Name = 
REMARK  9 active torsions:
REMARK  status: ('A' for Active; 'I' for Inactive)
REMARK    1  A    between atoms: C_1  and  C_2
REMARK    2  A    between atoms: C_2  and  C_3
REMARK    3  A    between atoms: C_2  and  C_10
REMARK    4  A    between atoms: C_3  and  C_4
REMARK    5  A    between atoms: N_8  and  C_9
REMARK    6  A    between atoms: C_14  and  N_15
REMARK    7  A    between atoms: C_16  and  C_18
REMARK    8  A    between atoms: CA_25  and  C_26
REMARK    9  A    between atoms: C_26  and  O_27
REMARK                            x       y       z     vdW  Elec       q    Type
REMARK                         _______ _______ _______ _____ _____    ______ ____
ROOT
ATOM      1  N   UNL     1       2.250   8.130  18.756  0.00  0.00    +0.000 N 
ATOM      2  C   UNL     1       2.787   6.871  18.884  0.00  0.00    +0.000 C 
ATOM      3  O   UNL     1       2.774   6.215  19.927  0.00  0.00    +0.000 OA
ATOM      4  H   UNL     1       2.449   8.655  17.917  0.00  0.00    +0.000 HD
ENDROOT
BRANCH   2   5
ATOM      5  C   UNL     1       3.493   6.272  17.708  0.00  0.00    +0.000 A 
ATOM      6  C   UNL     1       4.545   6.863  17.017  0.00  0.00    +0.000 A 
ATOM      7  C   UNL     1       5.407   6.036  16.281  0.00  0.00    +0.000 A 
ATOM      8  C   UNL     1       5.296   4.637  16.364  0.00  0.00    +0.000 A 
ATOM      9  C   UNL     1       4.214   4.064  17.037  0.00  0.00    +0.000 A 
ATOM     10  C   UNL     1       3.230   4.909  17.522  0.00  0.00    +0.000 A 
ATOM     11  N   UNL     1       1.971   4.453  17.895  0.00  0.00    +0.000 NA
ATOM     12  CA  UNL     1       1.861   3.267  18.383  0.00  0.00    +0.000 C 
ATOM     13  C   UNL     1       2.988   2.278  18.362  0.00  0.00    +0.000 C 
ATOM     14  O   UNL     1       2.931   1.273  19.053  0.00  0.00    +0.000 OA
ATOM     15  C   UNL     1       4.132   2.601  17.403  0.00  0.00    +0.000 C 
BRANCH  12  16
ATOM     16  C   UNL     1       0.566   2.956  19.093  0.00  0.00    +0.000 C 
BRANCH  16  17
ATOM     17  O   UNL     1       0.571   3.619  20.366  0.00  0.00    +0.000 OA
ATOM     18  H   UNL     1       1.523   3.765  20.564  0.00  0.00    +0.000 HD
ENDBRANCH  16  17
ENDBRANCH  12  16
ENDBRANCH   2   5
BRANCH   1  23
ATOM     19  C   UNL     1      -0.431  10.322  20.099  0.00  0.00    +0.000 A 
ATOM     20  C   UNL     1      -0.455   9.947  21.449  0.00  0.00    +0.000 A 
ATOM     21  C   UNL     1       0.466   9.026  21.940  0.00  0.00    +0.000 A 
ATOM     22  C   UNL     1       1.403   8.448  21.080  0.00  0.00    +0.000 A 
ATOM     23  C   UNL     1       1.403   8.747  19.713  0.00  0.00    +0.000 A 
ATOM     24  C   UNL     1       0.482   9.685  19.238  0.00  0.00    +0.000 A 
BRANCH  19  26
ATOM     25  C   UNL     1      -0.783  12.808  19.718  0.00  0.00    +0.000 C 
ATOM     26  C   UNL     1      -1.390  11.400  19.608  0.00  0.00    +0.000 C 
BRANCH  26  27
ATOM     27  C   UNL     1      -1.885  11.068  18.186  0.00  0.00    +0.000 C 
BRANCH  27  28
ATOM     28  C   UNL     1      -3.306  11.463  17.965  0.00  0.00    +0.000 A 
ATOM     29  N   UNL     1      -4.124  11.942  18.887  0.00  0.00    +0.000 NA
ATOM     30  N   UNL     1      -5.342  12.180  18.298  0.00  0.00    +0.000 NA
ATOM     31  C   UNL     1      -5.242  11.853  17.031  0.00  0.00    +0.000 A 
ATOM     32  N   UNL     1      -3.988  11.389  16.779  0.00  0.00    +0.000 N 
ATOM     33  C   UNL     1      -3.495  10.924  15.513  0.00  0.00    +0.000 C 
ENDBRANCH  27  28
ENDBRANCH  26  27
ENDBRANCH  19  26
ENDBRANCH   1  23
TORSDOF 7
ENDMDL
MODEL 5
REMARK VINA RESULT:      -8.5      0.913      1.037
REMARK  Name = 
REMARK  9 active torsions:
REMARK  status: ('A' for Active; 'I' for Inactive)
REMARK    1  A    between atoms: C_1  and  C_2
REMARK    2  A    between atoms: C_2  and  C_3
REMARK    3  A    between atoms: C_2  and  C_10
REMARK    4  A    between atoms: C_3  and  C_4
REMARK    5  A    between atoms: N_8  and  C_9
REMARK    6  A    between atoms: C_14  and  N_15
REMARK    7  A    between atoms: C_16  and  C_18
REMARK    8  A    between atoms: CA_25  and  C_26
REMARK    9  A    between atoms: C_26  and  O_27
REMARK                            x       y       z     vdW  Elec       q    Type
REMARK                         _______ _______ _______ _____ _____    ______ ____
ROOT
ATOM      1  N   UNL     1       2.340   7.436  19.650  0.00  0.00    +0.000 N 
ATOM      2  C   UNL     1       2.544   7.378  18.292  0.00  0.00    +0.000 C 
ATOM      3  O   UNL     1       1.831   7.940  17.460  0.00  0.00    +0.000 OA
ATOM      4  H   UNL     1       2.872   6.816  20.244  0.00  0.00    +0.000 HD
ENDROOT
BRANCH   2   5
ATOM      5  C   UNL     1       3.661   6.527  17.773  0.00  0.00    +0.000 A 
ATOM      6  C   UNL     1       4.835   7.004  17.201  0.00  0.00    +0.000 A 
ATOM      7  C   UNL     1       5.963   6.171  17.201  0.00  0.00    +0.000 A 
ATOM      8  C   UNL     1       5.946   4.948  17.893  0.00  0.00    +0.000 A 
ATOM      9  C   UNL     1       4.748   4.472  18.434  0.00  0.00    +0.000 A 
ATOM     10  C   UNL     1       3.592   5.189  18.181  0.00  0.00    +0.000 A 
ATOM     11  N   UNL     1       2.323   4.651  18.365  0.00  0.00    +0.000 NA
ATOM     12  CA  UNL     1       2.149   3.782  19.300  0.00  0.00    +0.000 C 
ATOM     13  C   UNL     1       3.291   3.164  20.049  0.00  0.00    +0.000 C 
ATOM     14  O   UNL     1       3.080   2.551  21.084  0.00  0.00    +0.000 OA
ATOM     15  C   UNL     1       4.665   3.316  19.402  0.00  0.00    +0.000 C 
BRANCH  12  16
ATOM     16  C   UNL     1       0.718   3.503  19.691  0.00  0.00    +0.000 C 
BRANCH  16  17
ATOM     17  O   UNL     1       0.244   2.384  18.928  0.00  0.00    +0.000 OA
ATOM     18  H   UNL     1      -0.589   2.114  19.376  0.00  0.00    +0.000 HD
ENDBRANCH  16  17
ENDBRANCH  12  16
ENDBRANCH   2   5
BRANCH   1  23
ATOM     19  C   UNL     1       0.213  10.440  20.149  0.00  0.00    +0.000 A 
ATOM     20  C   UNL     1      -0.428  10.136  21.358  0.00  0.00    +0.000 A 
ATOM     21  C   UNL     1      -0.102   8.976  22.055  0.00  0.00    +0.000 A 
ATOM     22  C   UNL     1       0.846   8.092  21.536  0.00  0.00    +0.000 A 
ATOM     23  C   UNL     1       1.447   8.331  20.295  0.00  0.00    +0.000 A 
ATOM     24  C   UNL     1       1.122   9.508  19.615  0.00  0.00    +0.000 A 
BRANCH  19  26
ATOM     25  C   UNL     1       1.178  12.458  18.947  0.00  0.00    +0.000 C 
ATOM     26  C   UNL     1      -0.095  11.761  19.454  0.00  0.00    +0.000 C 
BRANCH  26  27
ATOM     27  C   UNL     1      -1.145  11.549  18.346  0.00  0.00    +0.000 C 
BRANCH  27  28
ATOM     28  C   UNL     1      -2.532  11.853  18.803  0.00  0.00    +0.000 A 
ATOM     29  N   UNL     1      -2.854  12.476  19.925  0.00  0.00    +0.000 NA
ATOM     30  N   UNL     1      -4.223  12.561  19.991  0.00  0.00    +0.000 NA
ATOM     31  C   UNL     1      -4.709  12.002  18.908  0.00  0.00    +0.000 A 
ATOM     32  N   UNL     1      -3.688  11.535  18.139  0.00  0.00    +0.000 N 
ATOM     33  C   UNL     1      -3.816  10.852  16.883  0.00  0.00    +0.000 C 
ENDBRANCH  27  28
ENDBRANCH  26  27
ENDBRANCH  19  26
ENDBRANCH   1  23
TORSDOF 7
ENDMDL
MODEL 6
REMARK VINA RESULT:      -8.4      3.559      9.289
REMARK  Name = 
REMARK  9 active torsions:
REMARK  status: ('A' for Active; 'I' for Inactive)
REMARK    1  A    between atoms: C_1  and  C_2
REMARK    2  A    between atoms: C_2  and  C_3
REMARK    3  A    between atoms: C_2  and  C_10
REMARK    4  A    between atoms: C_3  and  C_4
REMARK    5  A    between atoms: N_8  and  C_9
REMARK    6  A    between atoms: C_14  and  N_15
REMARK    7  A    between atoms: C_16  and  C_18
REMARK    8  A    between atoms: CA_25  and  C_26
REMARK    9  A    between atoms: C_26  and  O_27
REMARK                            x       y       z     vdW  Elec       q    Type
REMARK                         _______ _______ _______ _____ _____    ______ ____
ROOT
ATOM      1  N   UNL     1       0.522   9.521  20.048  0.00  0.00    +0.000 N 
ATOM      2  C   UNL     1       0.797  10.250  21.181  0.00  0.00    +0.000 C 
ATOM      3  O   UNL     1       1.822  10.126  21.852  0.00  0.00    +0.000 OA
ATOM      4  H   UNL     1      -0.408   9.572  19.657  0.00  0.00    +0.000 HD
ENDROOT
BRANCH   2   5
ATOM      5  C   UNL     1      -0.235  11.212  21.680  0.00  0.00    +0.000 A 
ATOM      6  C   UNL     1      -1.143  10.959  22.702  0.00  0.00    +0.000 A 
ATOM      7  C   UNL     1      -1.705  12.050  23.381  0.00  0.00    +0.000 A 
ATOM      8  C   UNL     1      -1.248  13.356  23.131  0.00  0.00    +0.000 A 
ATOM      9  C   UNL     1      -0.360  13.593  22.079  0.00  0.00    +0.000 A 
ATOM     10  C   UNL     1      -0.034  12.531  21.253  0.00  0.00    +0.000 A 
ATOM     11  N   UNL     1       0.549  12.708  20.004  0.00  0.00    +0.000 NA
ATOM     12  CA  UNL     1       1.339  13.709  19.825  0.00  0.00    +0.000 C 
ATOM     13  C   UNL     1       1.485  14.811  20.830  0.00  0.00    +0.000 C 
ATOM     14  O   UNL     1       2.418  15.595  20.746  0.00  0.00    +0.000 OA
ATOM     15  C   UNL     1       0.383  14.893  21.884  0.00  0.00    +0.000 C 
BRANCH  12  16
ATOM     16  C   UNL     1       2.212  13.657  18.594  0.00  0.00    +0.000 C 
BRANCH  16  17
ATOM     17  O   UNL     1       1.968  12.418  17.911  0.00  0.00    +0.000 OA
ATOM     18  H   UNL     1       2.674  12.371  17.227  0.00  0.00    +0.000 HD
ENDBRANCH  16  17
ENDBRANCH  12  16
ENDBRANCH   2   5
BRANCH   1  23
ATOM     19  C   UNL     1       2.755   6.633  19.360  0.00  0.00    +0.000 A 
ATOM     20  C   UNL     1       3.199   6.921  18.062  0.00  0.00    +0.000 A 
ATOM     21  C   UNL     1       2.827   8.109  17.439  0.00  0.00    +0.000 A 
ATOM     22  C   UNL     1       1.983   9.008  18.093  0.00  0.00    +0.000 A 
ATOM     23  C   UNL     1       1.464   8.713  19.359  0.00  0.00    +0.000 A 
ATOM     24  C   UNL     1       1.859   7.525  19.979  0.00  0.00    +0.000 A 
BRANCH  19  26
ATOM     25  C   UNL     1       2.167   4.734  20.940  0.00  0.00    +0.000 C 
ATOM     26  C   UNL     1       3.251   5.371  20.055  0.00  0.00    +0.000 C 
BRANCH  26  27
ATOM     27  C   UNL     1       3.836   4.388  19.021  0.00  0.00    +0.000 C 
BRANCH  27  28
ATOM     28  C   UNL     1       5.293   4.604  18.784  0.00  0.00    +0.000 A 
ATOM     29  N   UNL     1       6.172   4.992  19.693  0.00  0.00    +0.000 NA
ATOM     30  N   UNL     1       7.403   5.080  19.089  0.00  0.00    +0.000 NA
ATOM     31  C   UNL     1       7.255   4.736  17.832  0.00  0.00    +0.000 A 
ATOM     32  N   UNL     1       5.949   4.439  17.592  0.00  0.00    +0.000 N 
ATOM     33  C   UNL     1       5.390   4.031  16.334  0.00  0.00    +0.000 C 
ENDBRANCH  27  28
ENDBRANCH  26  27
ENDBRANCH  19  26
ENDBRANCH   1  23
TORSDOF 7
ENDMDL
MODEL 7
REMARK VINA RESULT:      -8.4      2.486      4.384
REMARK  Name = 
REMARK  9 active torsions:
REMARK  status: ('A' for Active; 'I' for Inactive)
REMARK    1  A    between atoms: C_1  and  C_2
REMARK    2  A    between atoms: C_2  and  C_3
REMARK    3  A    between atoms: C_2  and  C_10
REMARK    4  A    between atoms: C_3  and  C_4
REMARK    5  A    between atoms: N_8  and  C_9
REMARK    6  A    between atoms: C_14  and  N_15
REMARK    7  A    between atoms: C_16  and  C_18
REMARK    8  A    between atoms: CA_25  and  C_26
REMARK    9  A    between atoms: C_26  and  O_27
REMARK                            x       y       z     vdW  Elec       q    Type
REMARK                         _______ _______ _______ _____ _____    ______ ____
ROOT
ATOM      1  N   UNL     1       2.655   6.787  18.781  0.00  0.00    +0.000 N 
ATOM      2  C   UNL     1       2.439   5.752  19.659  0.00  0.00    +0.000 C 
ATOM      3  O   UNL     1       1.888   5.877  20.754  0.00  0.00    +0.000 OA
ATOM      4  H   UNL     1       3.255   6.625  17.985  0.00  0.00    +0.000 HD
ENDROOT
BRANCH   2   5
ATOM      5  C   UNL     1       2.958   4.394  19.305  0.00  0.00    +0.000 A 
ATOM      6  C   UNL     1       2.291   3.195  19.527  0.00  0.00    +0.000 A 
ATOM      7  C   UNL     1       2.640   2.082  18.748  0.00  0.00    +0.000 A 
ATOM      8  C   UNL     1       3.536   2.218  17.673  0.00  0.00    +0.000 A 
ATOM      9  C   UNL     1       4.220   3.422  17.486  0.00  0.00    +0.000 A 
ATOM     10  C   UNL     1       4.057   4.416  18.436  0.00  0.00    +0.000 A 
ATOM     11  N   UNL     1       4.925   5.496  18.543  0.00  0.00    +0.000 NA
ATOM     12  CA  UNL     1       5.488   5.947  17.476  0.00  0.00    +0.000 C 
ATOM     13  C   UNL     1       5.424   5.225  16.164  0.00  0.00    +0.000 C 
ATOM     14  O   UNL     1       5.743   5.800  15.135  0.00  0.00    +0.000 OA
ATOM     15  C   UNL     1       4.998   3.761  16.236  0.00  0.00    +0.000 C 
BRANCH  12  16
ATOM     16  C   UNL     1       6.122   7.313  17.584  0.00  0.00    +0.000 C 
BRANCH  16  17
ATOM     17  O   UNL     1       7.399   7.278  16.929  0.00  0.00    +0.000 OA
ATOM     18  H   UNL     1       7.183   7.180  15.973  0.00  0.00    +0.000 HD
ENDBRANCH  16  17
ENDBRANCH  12  16
ENDBRANCH   2   5
BRANCH   1  23
ATOM     19  C   UNL     1       0.830   9.638  20.310  0.00  0.00    +0.000 A 
ATOM     20  C   UNL     1       0.997  10.635  19.339  0.00  0.00    +0.000 A 
ATOM     21  C   UNL     1       1.643  10.348  18.140  0.00  0.00    +0.000 A 
ATOM     22  C   UNL     1       2.156   9.070  17.910  0.00  0.00    +0.000 A 
ATOM     23  C   UNL     1       2.071   8.076  18.892  0.00  0.00    +0.000 A 
ATOM     24  C   UNL     1       1.406   8.374  20.084  0.00  0.00    +0.000 A 
BRANCH  19  26
ATOM     25  C   UNL     1       0.658   9.302  22.821  0.00  0.00    +0.000 C 
ATOM     26  C   UNL     1       0.039   9.954  21.574  0.00  0.00    +0.000 C 
BRANCH  26  27
ATOM     27  C   UNL     1      -0.145  11.477  21.722  0.00  0.00    +0.000 C 
BRANCH  27  28
ATOM     28  C   UNL     1      -1.537  11.853  22.105  0.00  0.00    +0.000 A 
ATOM     29  N   UNL     1      -2.105  11.611  23.274  0.00  0.00    +0.000 NA
ATOM     30  N   UNL     1      -3.387  12.103  23.239  0.00  0.00    +0.000 NA
ATOM     31  C   UNL     1      -3.573  12.644  22.058  0.00  0.00    +0.000 A 
ATOM     32  N   UNL     1      -2.445  12.502  21.310  0.00  0.00    +0.000 N 
ATOM     33  C   UNL     1      -2.261  12.953  19.960  0.00  0.00    +0.000 C 
ENDBRANCH  27  28
ENDBRANCH  26  27
ENDBRANCH  19  26
ENDBRANCH   1  23
TORSDOF 7
ENDMDL
MODEL 8
REMARK VINA RESULT:      -8.3      2.418      3.152
REMARK  Name = 
REMARK  9 active torsions:
REMARK  status: ('A' for Active; 'I' for Inactive)
REMARK    1  A    between atoms: C_1  and  C_2
REMARK    2  A    between atoms: C_2  and  C_3
REMARK    3  A    between atoms: C_2  and  C_10
REMARK    4  A    between atoms: C_3  and  C_4
REMARK    5  A    between atoms: N_8  and  C_9
REMARK    6  A    between atoms: C_14  and  N_15
REMARK    7  A    between atoms: C_16  and  C_18
REMARK    8  A    between atoms: CA_25  and  C_26
REMARK    9  A    between atoms: C_26  and  O_27
REMARK                            x       y       z     vdW  Elec       q    Type
REMARK                         _______ _______ _______ _____ _____    ______ ____
ROOT
ATOM      1  N   UNL     1       2.560   7.330  19.339  0.00  0.00    +0.000 N 
ATOM      2  C   UNL     1       3.029   7.451  18.053  0.00  0.00    +0.000 C 
ATOM      3  O   UNL     1       2.549   8.209  17.209  0.00  0.00    +0.000 OA
ATOM      4  H   UNL     1       2.906   6.572  19.909  0.00  0.00    +0.000 HD
ENDROOT
BRANCH   2   5
ATOM      5  C   UNL     1       4.153   6.564  17.616  0.00  0.00    +0.000 A 
ATOM      6  C   UNL     1       5.392   7.001  17.161  0.00  0.00    +0.000 A 
ATOM      7  C   UNL     1       6.480   6.121  17.243  0.00  0.00    +0.000 A 
ATOM      8  C   UNL     1       6.351   4.887  17.902  0.00  0.00    +0.000 A 
ATOM      9  C   UNL     1       5.092   4.452  18.324  0.00  0.00    +0.000 A 
ATOM     10  C   UNL     1       3.993   5.223  17.986  0.00  0.00    +0.000 A 
ATOM     11  N   UNL     1       2.692   4.735  18.044  0.00  0.00    +0.000 NA
ATOM     12  CA  UNL     1       2.400   3.857  18.940  0.00  0.00    +0.000 C 
ATOM     13  C   UNL     1       3.443   3.176  19.774  0.00  0.00    +0.000 C 
ATOM     14  O   UNL     1       3.116   2.554  20.772  0.00  0.00    +0.000 OA
ATOM     15  C   UNL     1       4.875   3.282  19.254  0.00  0.00    +0.000 C 
BRANCH  12  16
ATOM     16  C   UNL     1       0.929   3.632  19.197  0.00  0.00    +0.000 C 
BRANCH  16  17
ATOM     17  O   UNL     1       0.640   3.994  20.555  0.00  0.00    +0.000 OA
ATOM     18  H   UNL     1       0.677   3.144  21.050  0.00  0.00    +0.000 HD
ENDBRANCH  16  17
ENDBRANCH  12  16
ENDBRANCH   2   5
BRANCH   1  23
ATOM     19  C   UNL     1       0.294  10.252  19.703  0.00  0.00    +0.000 A 
ATOM     20  C   UNL     1      -0.313   9.987  20.938  0.00  0.00    +0.000 A 
ATOM     21  C   UNL     1       0.079   8.886  21.694  0.00  0.00    +0.000 A 
ATOM     22  C   UNL     1       1.062   8.021  21.210  0.00  0.00    +0.000 A 
ATOM     23  C   UNL     1       1.633   8.217  19.947  0.00  0.00    +0.000 A 
ATOM     24  C   UNL     1       1.241   9.335  19.207  0.00  0.00    +0.000 A 
BRANCH  19  26
ATOM     25  C   UNL     1      -1.322  12.203  19.544  0.00  0.00    +0.000 C 
ATOM     26  C   UNL     1      -0.089  11.514  18.939  0.00  0.00    +0.000 C 
BRANCH  26  27
ATOM     27  C   UNL     1       1.127  12.455  18.819  0.00  0.00    +0.000 C 
BRANCH  27  28
ATOM     28  C   UNL     1       1.244  13.392  19.973  0.00  0.00    +0.000 A 
ATOM     29  N   UNL     1       1.698  13.080  21.175  0.00  0.00    +0.000 NA
ATOM     30  N   UNL     1       1.646  14.207  21.960  0.00  0.00    +0.000 NA
ATOM     31  C   UNL     1       1.173  15.183  21.222  0.00  0.00    +0.000 A 
ATOM     32  N   UNL     1       0.897  14.718  19.973  0.00  0.00    +0.000 N 
ATOM     33  C   UNL     1       0.355  15.481  18.885  0.00  0.00    +0.000 C 
ENDBRANCH  27  28
ENDBRANCH  26  27
ENDBRANCH  19  26
ENDBRANCH   1  23
TORSDOF 7
ENDMDL
MODEL 9
REMARK VINA RESULT:      -8.3      2.200      3.145
REMARK  Name = 
REMARK  9 active torsions:
REMARK  status: ('A' for Active; 'I' for Inactive)
REMARK    1  A    between atoms: C_1  and  C_2
REMARK    2  A    between atoms: C_2  and  C_3
REMARK    3  A    between atoms: C_2  and  C_10
REMARK    4  A    between atoms: C_3  and  C_4
REMARK    5  A    between atoms: N_8  and  C_9
REMARK    6  A    between atoms: C_14  and  N_15
REMARK    7  A    between atoms: C_16  and  C_18
REMARK    8  A    between atoms: CA_25  and  C_26
REMARK    9  A    between atoms: C_26  and  O_27
REMARK                            x       y       z     vdW  Elec       q    Type
REMARK                         _______ _______ _______ _____ _____    ______ ____
ROOT
ATOM      1  N   UNL     1       2.585   7.322  19.305  0.00  0.00    +0.000 N 
ATOM      2  C   UNL     1       3.072   7.426  18.024  0.00  0.00    +0.000 C 
ATOM      3  O   UNL     1       2.605   8.176  17.165  0.00  0.00    +0.000 OA
ATOM      4  H   UNL     1       2.922   6.569  19.888  0.00  0.00    +0.000 HD
ENDROOT
BRANCH   2   5
ATOM      5  C   UNL     1       4.199   6.531  17.612  0.00  0.00    +0.000 A 
ATOM      6  C   UNL     1       5.446   6.960  17.173  0.00  0.00    +0.000 A 
ATOM      7  C   UNL     1       6.530   6.077  17.280  0.00  0.00    +0.000 A 
ATOM      8  C   UNL     1       6.386   4.849  17.948  0.00  0.00    +0.000 A 
ATOM      9  C   UNL     1       5.119   4.422  18.354  0.00  0.00    +0.000 A 
ATOM     10  C   UNL     1       4.028   5.194  17.992  0.00  0.00    +0.000 A 
ATOM     11  N   UNL     1       2.725   4.712  18.035  0.00  0.00    +0.000 NA
ATOM     12  CA  UNL     1       2.415   3.843  18.934  0.00  0.00    +0.000 C 
ATOM     13  C   UNL     1       3.443   3.166  19.790  0.00  0.00    +0.000 C 
ATOM     14  O   UNL     1       3.098   2.554  20.788  0.00  0.00    +0.000 OA
ATOM     15  C   UNL     1       4.883   3.262  19.292  0.00  0.00    +0.000 C 
BRANCH  12  16
ATOM     16  C   UNL     1       0.940   3.625  19.169  0.00  0.00    +0.000 C 
BRANCH  16  17
ATOM     17  O   UNL     1       0.640   3.957  20.533  0.00  0.00    +0.000 OA
ATOM     18  H   UNL     1       0.647   3.093  21.004  0.00  0.00    +0.000 HD
ENDBRANCH  16  17
ENDBRANCH  12  16
ENDBRANCH   2   5
BRANCH   1  23
ATOM     19  C   UNL     1       0.239  10.190  19.566  0.00  0.00    +0.000 A 
ATOM     20  C   UNL     1      -0.313   9.990  20.839  0.00  0.00    +0.000 A 
ATOM     21  C   UNL     1       0.144   8.954  21.649  0.00  0.00    +0.000 A 
ATOM     22  C   UNL     1       1.136   8.089  21.184  0.00  0.00    +0.000 A 
ATOM     23  C   UNL     1       1.652   8.218  19.890  0.00  0.00    +0.000 A 
ATOM     24  C   UNL     1       1.196   9.272  19.094  0.00  0.00    +0.000 A 
BRANCH  19  26
ATOM     25  C   UNL     1      -1.646  11.210  18.204  0.00  0.00    +0.000 C 
ATOM     26  C   UNL     1      -0.215  11.386  18.737  0.00  0.00    +0.000 C 
BRANCH  26  27
ATOM     27  C   UNL     1      -0.028  12.691  19.537  0.00  0.00    +0.000 C 
BRANCH  27  28
ATOM     28  C   UNL     1       1.158  13.476  19.086  0.00  0.00    +0.000 A 
ATOM     29  N   UNL     1       2.377  12.996  18.909  0.00  0.00    +0.000 NA
ATOM     30  N   UNL     1       3.188  14.025  18.496  0.00  0.00    +0.000 NA
ATOM     31  C   UNL     1       2.450  15.106  18.418  0.00  0.00    +0.000 A 
ATOM     32  N   UNL     1       1.173  14.813  18.788  0.00  0.00    +0.000 N 
ATOM     33  C   UNL     1       0.074  15.735  18.845  0.00  0.00    +0.000 C 
ENDBRANCH  27  28
ENDBRANCH  26  27
ENDBRANCH  19  26
ENDBRANCH   1  23
TORSDOF 7
ENDMDL
