MODEL 1
REMARK VINA RESULT:      -9.1      0.000      0.000
REMARK  Name = 
REMARK  7 active torsions:
REMARK  status: ('A' for Active; 'I' for Inactive)
REMARK    1  A    between atoms: C_1  and  C_2
REMARK    2  A    between atoms: N_4  and  C_5
REMARK    3  A    between atoms: C_5  and  C_6
REMARK    4  A    between atoms: C_6  and  C_7
REMARK    5  A    between atoms: C_11  and  C_12
REMARK    6  A    between atoms: N_18  and  C_19
REMARK    7  A    between atoms: C_23  and  C_24
REMARK                            x       y       z     vdW  Elec       q    Type
REMARK                         _______ _______ _______ _____ _____    ______ ____
ROOT
ATOM      1  C   UNL     1       3.971   5.007  17.626  0.00  0.00    +0.000 A 
ATOM      2  C   UNL     1       3.591   6.353  17.605  0.00  0.00    +0.000 A 
ATOM      3  C   UNL     1       2.759   6.804  18.612  0.00  0.00    +0.000 A 
ATOM      4  C   UNL     1       2.283   5.981  19.627  0.00  0.00    +0.000 A 
ATOM      5  C   UNL     1       2.623   4.635  19.665  0.00  0.00    +0.000 A 
ATOM      6  C   UNL     1       3.491   4.165  18.658  0.00  0.00    +0.000 A 
ATOM      7  C   UNL     1       1.434   6.787  20.555  0.00  0.00    +0.000 C 
ATOM      8  N   UNL     1       1.457   8.121  19.973  0.00  0.00    +0.000 N 
ATOM      9  C   UNL     1       2.231   8.155  18.811  0.00  0.00    +0.000 C 
ATOM     10  O   UNL     1       2.486   9.064  18.043  0.00  0.00    +0.000 OA
ENDROOT
BRANCH   8  11
ATOM     11  C   UNL     1       0.718   9.200  20.528  0.00  0.00    +0.000 A 
ATOM     12  C   UNL     1       0.480   9.290  21.904  0.00  0.00    +0.000 A 
ATOM     13  C   UNL     1      -0.210  10.377  22.448  0.00  0.00    +0.000 A 
ATOM     14  C   UNL     1      -0.689  11.390  21.623  0.00  0.00    +0.000 A 
ATOM     15  C   UNL     1      -0.479  11.311  20.248  0.00  0.00    +0.000 A 
ATOM     16  C   UNL     1       0.220  10.221  19.706  0.00  0.00    +0.000 A 
BRANCH  15  17
ATOM     17  C   UNL     1      -0.961  12.341  19.306  0.00  0.00    +0.000 C 
ATOM     18  N   UNL     1      -0.995  12.242  18.016  0.00  0.00    +0.000 NA
ATOM     19  H   UNL     1      -0.644  11.346  17.676  0.00  0.00    +0.000 HD
ENDBRANCH  15  17
ENDBRANCH   8  11
BRANCH   5  20
ATOM     20  C   UNL     1       2.099   3.687  20.711  0.00  0.00    +0.000 C 
ATOM     21  F   UNL     1       2.549   2.410  20.564  0.00  0.00    +0.000 F 
ATOM     22  F   UNL     1       2.454   4.063  21.970  0.00  0.00    +0.000 F 
ATOM     23  F   UNL     1       0.742   3.606  20.709  0.00  0.00    +0.000 F 
ENDBRANCH   5  20
BRANCH   1  24
ATOM     24  C   UNL     1       4.908   4.474  16.567  0.00  0.00    +0.000 C 
BRANCH  24  25
ATOM     25  C   UNL     1       5.632   5.592  15.801  0.00  0.00    +0.000 C 
BRANCH  25  29
ATOM     26  C   UNL     1       8.114   5.776  19.436  0.00  0.00    +0.000 C 
ATOM     27  C   UNL     1       7.131   5.710  18.288  0.00  0.00    +0.000 C 
ATOM     28  C   UNL     1       7.355   4.624  17.215  0.00  0.00    +0.000 C 
ATOM     29  N   UNL     1       7.060   5.624  16.159  0.00  0.00    +0.000 NA
ATOM     30  C   UNL     1       7.341   6.709  17.131  0.00  0.00    +0.000 C 
ENDBRANCH  25  29
ENDBRANCH  24  25
ENDBRANCH   1  24
TORSDOF 6
ENDMDL
MODEL 2
REMARK VINA RESULT:      -8.9      1.570      2.749
REMARK  Name = 
REMARK  7 active torsions:
REMARK  status: ('A' for Active; 'I' for Inactive)
REMARK    1  A    between atoms: C_1  and  C_2
REMARK    2  A    between atoms: N_4  and  C_5
REMARK    3  A    between atoms: C_5  and  C_6
REMARK    4  A    between atoms: C_6  and  C_7
REMARK    5  A    between atoms: C_11  and  C_12
REMARK    6  A    between atoms: N_18  and  C_19
REMARK    7  A    between atoms: C_23  and  C_24
REMARK                            x       y       z     vdW  Elec       q    Type
REMARK                         _______ _______ _______ _____ _____    ______ ____
ROOT
ATOM      1  C   UNL     1       4.179   4.587  17.613  0.00  0.00    +0.000 A 
ATOM      2  C   UNL     1       3.838   5.922  17.369  0.00  0.00    +0.000 A 
ATOM      3  C   UNL     1       3.010   6.552  18.278  0.00  0.00    +0.000 A 
ATOM      4  C   UNL     1       2.500   5.918  19.406  0.00  0.00    +0.000 A 
ATOM      5  C   UNL     1       2.802   4.586  19.667  0.00  0.00    +0.000 A 
ATOM      6  C   UNL     1       3.666   3.937  18.761  0.00  0.00    +0.000 A 
ATOM      7  C   UNL     1       1.666   6.885  20.179  0.00  0.00    +0.000 C 
ATOM      8  N   UNL     1       1.733   8.106  19.389  0.00  0.00    +0.000 N 
ATOM      9  C   UNL     1       2.519   7.931  18.248  0.00  0.00    +0.000 C 
ATOM     10  O   UNL     1       2.807   8.696  17.347  0.00  0.00    +0.000 OA
ENDROOT
BRANCH   8  11
ATOM     11  C   UNL     1       1.020   9.280  19.752  0.00  0.00    +0.000 A 
ATOM     12  C   UNL     1       0.751  10.288  18.820  0.00  0.00    +0.000 A 
ATOM     13  C   UNL     1       0.011  11.420  19.173  0.00  0.00    +0.000 A 
ATOM     14  C   UNL     1      -0.464  11.573  20.472  0.00  0.00    +0.000 A 
ATOM     15  C   UNL     1      -0.192  10.590  21.421  0.00  0.00    +0.000 A 
ATOM     16  C   UNL     1       0.546   9.451  21.061  0.00  0.00    +0.000 A 
BRANCH  15  17
ATOM     17  C   UNL     1      -0.655  10.680  22.820  0.00  0.00    +0.000 C 
ATOM     18  N   UNL     1      -0.431   9.817  23.758  0.00  0.00    +0.000 NA
ATOM     19  H   UNL     1       0.122   9.020  23.441  0.00  0.00    +0.000 HD
ENDBRANCH  15  17
ENDBRANCH   8  11
BRANCH   5  20
ATOM     20  C   UNL     1       2.241   3.835  20.844  0.00  0.00    +0.000 C 
ATOM     21  F   UNL     1       0.885   3.714  20.817  0.00  0.00    +0.000 F 
ATOM     22  F   UNL     1       2.725   2.565  20.922  0.00  0.00    +0.000 F 
ATOM     23  F   UNL     1       2.539   4.427  22.031  0.00  0.00    +0.000 F 
ENDBRANCH   5  20
BRANCH   1  24
ATOM     24  C   UNL     1       5.111   3.864  16.667  0.00  0.00    +0.000 C 
BRANCH  24  25
ATOM     25  C   UNL     1       6.354   4.695  16.313  0.00  0.00    +0.000 C 
BRANCH  25  29
ATOM     26  C   UNL     1       6.456   3.491  12.077  0.00  0.00    +0.000 C 
ATOM     27  C   UNL     1       6.447   3.746  13.568  0.00  0.00    +0.000 C 
ATOM     28  C   UNL     1       5.256   4.536  14.152  0.00  0.00    +0.000 C 
ATOM     29  N   UNL     1       6.200   5.317  14.987  0.00  0.00    +0.000 NA
ATOM     30  C   UNL     1       7.306   4.919  14.082  0.00  0.00    +0.000 C 
ENDBRANCH  25  29
ENDBRANCH  24  25
ENDBRANCH   1  24
TORSDOF 6
ENDMDL
MODEL 3
REMARK VINA RESULT:      -8.9      1.240      2.034
REMARK  Name = 
REMARK  7 active torsions:
REMARK  status: ('A' for Active; 'I' for Inactive)
REMARK    1  A    between atoms: C_1  and  C_2
REMARK    2  A    between atoms: N_4  and  C_5
REMARK    3  A    between atoms: C_5  and  C_6
REMARK    4  A    between atoms: C_6  and  C_7
REMARK    5  A    between atoms: C_11  and  C_12
REMARK    6  A    between atoms: N_18  and  C_19
REMARK    7  A    between atoms: C_23  and  C_24
REMARK                            x       y       z     vdW  Elec       q    Type
REMARK                         _______ _______ _______ _____ _____    ______ ____
ROOT
ATOM      1  C   UNL     1       3.822   4.454  17.820  0.00  0.00    +0.000 A 
ATOM      2  C   UNL     1       3.510   5.815  17.745  0.00  0.00    +0.000 A 
ATOM      3  C   UNL     1       2.760   6.361  18.770  0.00  0.00    +0.000 A 
ATOM      4  C   UNL     1       2.302   5.619  19.853  0.00  0.00    +0.000 A 
ATOM      5  C   UNL     1       2.576   4.260  19.947  0.00  0.00    +0.000 A 
ATOM      6  C   UNL     1       3.360   3.693  18.922  0.00  0.00    +0.000 A 
ATOM      7  C   UNL     1       1.549   6.516  20.780  0.00  0.00    +0.000 C 
ATOM      8  N   UNL     1       1.606   7.815  20.125  0.00  0.00    +0.000 N 
ATOM      9  C   UNL     1       2.313   7.748  18.922  0.00  0.00    +0.000 C 
ATOM     10  O   UNL     1       2.570   8.600  18.093  0.00  0.00    +0.000 OA
ENDROOT
BRANCH   8  11
ATOM     11  C   UNL     1       0.955   8.959  20.659  0.00  0.00    +0.000 A 
ATOM     12  C   UNL     1       0.507   8.992  21.984  0.00  0.00    +0.000 A 
ATOM     13  C   UNL     1      -0.093  10.137  22.516  0.00  0.00    +0.000 A 
ATOM     14  C   UNL     1      -0.270  11.269  21.727  0.00  0.00    +0.000 A 
ATOM     15  C   UNL     1       0.153  11.253  20.399  0.00  0.00    +0.000 A 
ATOM     16  C   UNL     1       0.761  10.103  19.871  0.00  0.00    +0.000 A 
BRANCH  15  17
ATOM     17  C   UNL     1      -0.004  12.410  19.496  0.00  0.00    +0.000 C 
ATOM     18  N   UNL     1      -0.116  12.365  18.207  0.00  0.00    +0.000 NA
ATOM     19  H   UNL     1      -0.087  11.414  17.838  0.00  0.00    +0.000 HD
ENDBRANCH  15  17
ENDBRANCH   8  11
BRANCH   5  20
ATOM     20  C   UNL     1       2.065   3.398  21.070  0.00  0.00    +0.000 C 
ATOM     21  F   UNL     1       2.555   2.127  21.048  0.00  0.00    +0.000 F 
ATOM     22  F   UNL     1       2.390   3.899  22.293  0.00  0.00    +0.000 F 
ATOM     23  F   UNL     1       0.711   3.275  21.060  0.00  0.00    +0.000 F 
ENDBRANCH   5  20
BRANCH   1  24
ATOM     24  C   UNL     1       4.669   3.816  16.742  0.00  0.00    +0.000 C 
BRANCH  24  25
ATOM     25  C   UNL     1       5.987   4.570  16.503  0.00  0.00    +0.000 C 
BRANCH  25  29
ATOM     26  C   UNL     1       6.494   3.554  12.247  0.00  0.00    +0.000 C 
ATOM     27  C   UNL     1       6.341   3.743  13.740  0.00  0.00    +0.000 C 
ATOM     28  C   UNL     1       5.101   4.515  14.241  0.00  0.00    +0.000 C 
ATOM     29  N   UNL     1       5.963   5.252  15.198  0.00  0.00    +0.000 NA
ATOM     30  C   UNL     1       7.150   4.886  14.386  0.00  0.00    +0.000 C 
ENDBRANCH  25  29
ENDBRANCH  24  25
ENDBRANCH   1  24
TORSDOF 6
ENDMDL
MODEL 4
REMARK VINA RESULT:      -8.8      1.844      7.831
REMARK  Name = 
REMARK  7 active torsions:
REMARK  status: ('A' for Active; 'I' for Inactive)
REMARK    1  A    between atoms: C_1  and  C_2
REMARK    2  A    between atoms: N_4  and  C_5
REMARK    3  A    between atoms: C_5  and  C_6
REMARK    4  A    between atoms: C_6  and  C_7
REMARK    5  A    between atoms: C_11  and  C_12
REMARK    6  A    between atoms: N_18  and  C_19
REMARK    7  A    between atoms: C_23  and  C_24
REMARK                            x       y       z     vdW  Elec       q    Type
REMARK                         _______ _______ _______ _____ _____    ______ ____
ROOT
ATOM      1  C   UNL     1       1.480   6.827  20.651  0.00  0.00    +0.000 A 
ATOM      2  C   UNL     1       2.313   7.284  19.624  0.00  0.00    +0.000 A 
ATOM      3  C   UNL     1       3.015   6.342  18.897  0.00  0.00    +0.000 A 
ATOM      4  C   UNL     1       2.936   4.977  19.149  0.00  0.00    +0.000 A 
ATOM      5  C   UNL     1       2.135   4.491  20.176  0.00  0.00    +0.000 A 
ATOM      6  C   UNL     1       1.393   5.438  20.911  0.00  0.00    +0.000 A 
ATOM      7  C   UNL     1       3.798   4.246  18.173  0.00  0.00    +0.000 C 
ATOM      8  N   UNL     1       4.380   5.308  17.365  0.00  0.00    +0.000 N 
ATOM      9  C   UNL     1       3.937   6.566  17.782  0.00  0.00    +0.000 C 
ATOM     10  O   UNL     1       4.195   7.683  17.376  0.00  0.00    +0.000 OA
ENDROOT
BRANCH   8  11
ATOM     11  C   UNL     1       5.320   5.043  16.333  0.00  0.00    +0.000 A 
ATOM     12  C   UNL     1       6.672   5.375  16.474  0.00  0.00    +0.000 A 
ATOM     13  C   UNL     1       7.599   5.071  15.474  0.00  0.00    +0.000 A 
ATOM     14  C   UNL     1       7.189   4.441  14.302  0.00  0.00    +0.000 A 
ATOM     15  C   UNL     1       5.844   4.118  14.133  0.00  0.00    +0.000 A 
ATOM     16  C   UNL     1       4.917   4.419  15.143  0.00  0.00    +0.000 A 
BRANCH  15  17
ATOM     17  C   UNL     1       5.328   3.455  12.919  0.00  0.00    +0.000 C 
ATOM     18  N   UNL     1       6.019   2.760  12.074  0.00  0.00    +0.000 NA
ATOM     19  H   UNL     1       7.006   2.697  12.324  0.00  0.00    +0.000 HD
ENDBRANCH  15  17
ENDBRANCH   8  11
BRANCH   5  20
ATOM     20  C   UNL     1       2.049   3.030  20.525  0.00  0.00    +0.000 C 
ATOM     21  F   UNL     1       1.206   2.766  21.562  0.00  0.00    +0.000 F 
ATOM     22  F   UNL     1       1.600   2.277  19.483  0.00  0.00    +0.000 F 
ATOM     23  F   UNL     1       3.251   2.505  20.880  0.00  0.00    +0.000 F 
ENDBRANCH   5  20
BRANCH   1  24
ATOM     24  C   UNL     1       0.663   7.816  21.453  0.00  0.00    +0.000 C 
BRANCH  24  25
ATOM     25  C   UNL     1       0.690   9.230  20.851  0.00  0.00    +0.000 C 
BRANCH  25  29
ATOM     26  C   UNL     1      -1.832  12.004  23.164  0.00  0.00    +0.000 C 
ATOM     27  C   UNL     1      -1.104  11.000  22.297  0.00  0.00    +0.000 C 
ATOM     28  C   UNL     1      -0.139  10.017  22.995  0.00  0.00    +0.000 C 
ATOM     29  N   UNL     1       0.850  10.239  21.911  0.00  0.00    +0.000 NA
ATOM     30  C   UNL     1       0.152  11.499  21.554  0.00  0.00    +0.000 C 
ENDBRANCH  25  29
ENDBRANCH  24  25
ENDBRANCH   1  24
TORSDOF 6
ENDMDL
MODEL 5
REMARK VINA RESULT:      -8.8      1.063      1.073
REMARK  Name = 
REMARK  7 active torsions:
REMARK  status: ('A' for Active; 'I' for Inactive)
REMARK    1  A    between atoms: C_1  and  C_2
REMARK    2  A    between atoms: N_4  and  C_5
REMARK    3  A    between atoms: C_5  and  C_6
REMARK    4  A    between atoms: C_6  and  C_7
REMARK    5  A    between atoms: C_11  and  C_12
REMARK    6  A    between atoms: N_18  and  C_19
REMARK    7  A    between atoms: C_23  and  C_24
REMARK                            x       y       z     vdW  Elec       q    Type
REMARK                         _______ _______ _______ _____ _____    ______ ____
ROOT
ATOM      1  C   UNL     1       3.663   5.483  17.682  0.00  0.00    +0.000 A 
ATOM      2  C   UNL     1       3.253   6.815  17.804  0.00  0.00    +0.000 A 
ATOM      3  C   UNL     1       2.503   7.158  18.913  0.00  0.00    +0.000 A 
ATOM      4  C   UNL     1       2.135   6.242  19.893  0.00  0.00    +0.000 A 
ATOM      5  C   UNL     1       2.507   4.907  19.790  0.00  0.00    +0.000 A 
ATOM      6  C   UNL     1       3.294   4.546  18.677  0.00  0.00    +0.000 A 
ATOM      7  C   UNL     1       1.353   6.945  20.953  0.00  0.00    +0.000 C 
ATOM      8  N   UNL     1       1.296   8.322  20.484  0.00  0.00    +0.000 N 
ATOM      9  C   UNL     1       1.965   8.473  19.267  0.00  0.00    +0.000 C 
ATOM     10  O   UNL     1       2.132   9.447  18.559  0.00  0.00    +0.000 OA
ENDROOT
BRANCH   8  11
ATOM     11  C   UNL     1       0.584   9.331  21.188  0.00  0.00    +0.000 A 
ATOM     12  C   UNL     1      -0.161   9.033  22.334  0.00  0.00    +0.000 A 
ATOM     13  C   UNL     1      -0.822  10.037  23.047  0.00  0.00    +0.000 A 
ATOM     14  C   UNL     1      -0.763  11.360  22.618  0.00  0.00    +0.000 A 
ATOM     15  C   UNL     1      -0.041  11.676  21.468  0.00  0.00    +0.000 A 
ATOM     16  C   UNL     1       0.627  10.665  20.759  0.00  0.00    +0.000 A 
BRANCH  15  17
ATOM     17  C   UNL     1       0.066  13.052  20.945  0.00  0.00    +0.000 C 
ATOM     18  N   UNL     1       0.589  14.065  21.557  0.00  0.00    +0.000 NA
ATOM     19  H   UNL     1       0.945  13.830  22.483  0.00  0.00    +0.000 HD
ENDBRANCH  15  17
ENDBRANCH   8  11
BRANCH   5  20
ATOM     20  C   UNL     1       2.096   3.863  20.794  0.00  0.00    +0.000 C 
ATOM     21  F   UNL     1       2.614   2.629  20.539  0.00  0.00    +0.000 F 
ATOM     22  F   UNL     1       2.495   4.179  22.057  0.00  0.00    +0.000 F 
ATOM     23  F   UNL     1       0.748   3.697  20.853  0.00  0.00    +0.000 F 
ENDBRANCH   5  20
BRANCH   1  24
ATOM     24  C   UNL     1       4.516   5.064  16.506  0.00  0.00    +0.000 C 
BRANCH  24  25
ATOM     25  C   UNL     1       5.384   6.212  15.967  0.00  0.00    +0.000 C 
BRANCH  25  29
ATOM     26  C   UNL     1       8.060   5.736  19.433  0.00  0.00    +0.000 C 
ATOM     27  C   UNL     1       7.018   5.917  18.352  0.00  0.00    +0.000 C 
ATOM     28  C   UNL     1       6.964   4.862  17.226  0.00  0.00    +0.000 C 
ATOM     29  N   UNL     1       6.809   5.951  16.230  0.00  0.00    +0.000 NA
ATOM     30  C   UNL     1       7.351   6.913  17.221  0.00  0.00    +0.000 C 
ENDBRANCH  25  29
ENDBRANCH  24  25
ENDBRANCH   1  24
TORSDOF 6
ENDMDL
MODEL 6
REMARK VINA RESULT:      -8.7      1.129      1.229
REMARK  Name = 
REMARK  7 active torsions:
REMARK  status: ('A' for Active; 'I' for Inactive)
REMARK    1  A    between atoms: C_1  and  C_2
REMARK    2  A    between atoms: N_4  and  C_5
REMARK    3  A    between atoms: C_5  and  C_6
REMARK    4  A    between atoms: C_6  and  C_7
REMARK    5  A    between atoms: C_11  and  C_12
REMARK    6  A    between atoms: N_18  and  C_19
REMARK    7  A    between atoms: C_23  and  C_24
REMARK                            x       y       z     vdW  Elec       q    Type
REMARK                         _______ _______ _______ _____ _____    ______ ____
ROOT
ATOM      1  C   UNL     1       3.976   5.710  17.380  0.00  0.00    +0.000 A 
ATOM      2  C   UNL     1       3.529   7.030  17.258  0.00  0.00    +0.000 A 
ATOM      3  C   UNL     1       2.669   7.510  18.227  0.00  0.00    +0.000 A 
ATOM      4  C   UNL     1       2.226   6.741  19.297  0.00  0.00    +0.000 A 
ATOM      5  C   UNL     1       2.633   5.420  19.435  0.00  0.00    +0.000 A 
ATOM      6  C   UNL     1       3.530   4.922  18.468  0.00  0.00    +0.000 A 
ATOM      7  C   UNL     1       1.332   7.569  20.161  0.00  0.00    +0.000 C 
ATOM      8  N   UNL     1       1.293   8.856  19.483  0.00  0.00    +0.000 N 
ATOM      9  C   UNL     1       2.073   8.845  18.324  0.00  0.00    +0.000 C 
ATOM     10  O   UNL     1       2.289   9.706  17.493  0.00  0.00    +0.000 OA
ENDROOT
BRANCH   8  11
ATOM     11  C   UNL     1       0.497   9.935  19.955  0.00  0.00    +0.000 A 
ATOM     12  C   UNL     1       0.833  10.634  21.119  0.00  0.00    +0.000 A 
ATOM     13  C   UNL     1       0.070  11.722  21.554  0.00  0.00    +0.000 A 
ATOM     14  C   UNL     1      -1.054  12.123  20.838  0.00  0.00    +0.000 A 
ATOM     15  C   UNL     1      -1.417  11.429  19.686  0.00  0.00    +0.000 A 
ATOM     16  C   UNL     1      -0.645  10.341  19.249  0.00  0.00    +0.000 A 
BRANCH  15  17
ATOM     17  C   UNL     1      -2.598  11.788  18.875  0.00  0.00    +0.000 C 
ATOM     18  N   UNL     1      -3.582  12.540  19.249  0.00  0.00    +0.000 NA
ATOM     19  H   UNL     1      -3.476  12.890  20.201  0.00  0.00    +0.000 HD
ENDBRANCH  15  17
ENDBRANCH   8  11
BRANCH   5  20
ATOM     20  C   UNL     1       2.148   4.525  20.545  0.00  0.00    +0.000 C 
ATOM     21  F   UNL     1       2.637   3.256  20.475  0.00  0.00    +0.000 F 
ATOM     22  F   UNL     1       2.503   4.992  21.774  0.00  0.00    +0.000 F 
ATOM     23  F   UNL     1       0.794   4.403  20.564  0.00  0.00    +0.000 F 
ENDBRANCH   5  20
BRANCH   1  24
ATOM     24  C   UNL     1       4.946   5.148  16.365  0.00  0.00    +0.000 C 
BRANCH  24  25
ATOM     25  C   UNL     1       5.954   4.171  16.990  0.00  0.00    +0.000 C 
BRANCH  25  29
ATOM     26  C   UNL     1       8.242   7.640  18.452  0.00  0.00    +0.000 C 
ATOM     27  C   UNL     1       7.329   6.509  18.035  0.00  0.00    +0.000 C 
ATOM     28  C   UNL     1       7.837   5.065  18.239  0.00  0.00    +0.000 C 
ATOM     29  N   UNL     1       7.322   4.707  16.894  0.00  0.00    +0.000 NA
ATOM     30  C   UNL     1       7.304   6.147  16.535  0.00  0.00    +0.000 C 
ENDBRANCH  25  29
ENDBRANCH  24  25
ENDBRANCH   1  24
TORSDOF 6
ENDMDL
MODEL 7
REMARK VINA RESULT:      -8.7      2.553      8.312
REMARK  Name = 
REMARK  7 active torsions:
REMARK  status: ('A' for Active; 'I' for Inactive)
REMARK    1  A    between atoms: C_1  and  C_2
REMARK    2  A    between atoms: N_4  and  C_5
REMARK    3  A    between atoms: C_5  and  C_6
REMARK    4  A    between atoms: C_6  and  C_7
REMARK    5  A    between atoms: C_11  and  C_12
REMARK    6  A    between atoms: N_18  and  C_19
REMARK    7  A    between atoms: C_23  and  C_24
REMARK                            x       y       z     vdW  Elec       q    Type
REMARK                         _______ _______ _______ _____ _____    ______ ____
ROOT
ATOM      1  C   UNL     1       2.771   6.383  19.301  0.00  0.00    +0.000 A 
ATOM      2  C   UNL     1       3.455   6.837  18.168  0.00  0.00    +0.000 A 
ATOM      3  C   UNL     1       4.013   5.889  17.331  0.00  0.00    +0.000 A 
ATOM      4  C   UNL     1       3.932   4.522  17.571  0.00  0.00    +0.000 A 
ATOM      5  C   UNL     1       3.279   4.040  18.699  0.00  0.00    +0.000 A 
ATOM      6  C   UNL     1       2.683   4.993  19.551  0.00  0.00    +0.000 A 
ATOM      7  C   UNL     1       4.616   3.787  16.467  0.00  0.00    +0.000 C 
ATOM      8  N   UNL     1       5.103   4.848  15.597  0.00  0.00    +0.000 N 
ATOM      9  C   UNL     1       4.765   6.109  16.093  0.00  0.00    +0.000 C 
ATOM     10  O   UNL     1       4.992   7.226  15.670  0.00  0.00    +0.000 OA
ENDROOT
BRANCH   8  11
ATOM     11  C   UNL     1       5.871   4.577  14.432  0.00  0.00    +0.000 A 
ATOM     12  C   UNL     1       7.066   5.255  14.171  0.00  0.00    +0.000 A 
ATOM     13  C   UNL     1       7.838   4.952  13.047  0.00  0.00    +0.000 A 
ATOM     14  C   UNL     1       7.422   3.973  12.151  0.00  0.00    +0.000 A 
ATOM     15  C   UNL     1       6.225   3.297  12.381  0.00  0.00    +0.000 A 
ATOM     16  C   UNL     1       5.455   3.600  13.515  0.00  0.00    +0.000 A 
BRANCH  15  17
ATOM     17  C   UNL     1       5.711   2.250  11.476  0.00  0.00    +0.000 C 
ATOM     18  N   UNL     1       6.282   1.119  11.212  0.00  0.00    +0.000 NA
ATOM     19  H   UNL     1       7.167   0.995  11.705  0.00  0.00    +0.000 HD
ENDBRANCH  15  17
ENDBRANCH   8  11
BRANCH   5  20
ATOM     20  C   UNL     1       3.202   2.575  19.036  0.00  0.00    +0.000 C 
ATOM     21  F   UNL     1       2.457   2.309  20.145  0.00  0.00    +0.000 F 
ATOM     22  F   UNL     1       2.644   1.844  18.032  0.00  0.00    +0.000 F 
ATOM     23  F   UNL     1       4.424   2.027  19.268  0.00  0.00    +0.000 F 
ENDBRANCH   5  20
BRANCH   1  24
ATOM     24  C   UNL     1       2.112   7.378  20.230  0.00  0.00    +0.000 C 
BRANCH  24  25
ATOM     25  C   UNL     1       1.496   8.569  19.479  0.00  0.00    +0.000 C 
BRANCH  25  29
ATOM     26  C   UNL     1      -1.548  11.736  19.807  0.00  0.00    +0.000 C 
ATOM     27  C   UNL     1      -0.575  10.606  19.553  0.00  0.00    +0.000 C 
ATOM     28  C   UNL     1      -0.348   9.587  20.690  0.00  0.00    +0.000 C 
ATOM     29  N   UNL     1       1.111   9.632  20.422  0.00  0.00    +0.000 NA
ATOM     30  C   UNL     1       0.925  10.925  19.718  0.00  0.00    +0.000 C 
ENDBRANCH  25  29
ENDBRANCH  24  25
ENDBRANCH   1  24
TORSDOF 6
ENDMDL
MODEL 8
REMARK VINA RESULT:      -8.7      2.109      7.802
REMARK  Name = 
REMARK  7 active torsions:
REMARK  status: ('A' for Active; 'I' for Inactive)
REMARK    1  A    between atoms: C_1  and  C_2
REMARK    2  A    between atoms: N_4  and  C_5
REMARK    3  A    between atoms: C_5  and  C_6
REMARK    4  A    between atoms: C_6  and  C_7
REMARK    5  A    between atoms: C_11  and  C_12
REMARK    6  A    between atoms: N_18  and  C_19
REMARK    7  A    between atoms: C_23  and  C_24
REMARK                            x       y       z     vdW  Elec       q    Type
REMARK                         _______ _______ _______ _____ _____    ______ ____
ROOT
ATOM      1  C   UNL     1       1.908   6.304  20.213  0.00  0.00    +0.000 A 
ATOM      2  C   UNL     1       2.726   6.829  19.207  0.00  0.00    +0.000 A 
ATOM      3  C   UNL     1       3.331   5.940  18.339  0.00  0.00    +0.000 A 
ATOM      4  C   UNL     1       3.169   4.562  18.431  0.00  0.00    +0.000 A 
ATOM      5  C   UNL     1       2.381   4.007  19.432  0.00  0.00    +0.000 A 
ATOM      6  C   UNL     1       1.738   4.902  20.311  0.00  0.00    +0.000 A 
ATOM      7  C   UNL     1       3.937   3.903  17.333  0.00  0.00    +0.000 C 
ATOM      8  N   UNL     1       4.556   5.016  16.628  0.00  0.00    +0.000 N 
ATOM      9  C   UNL     1       4.218   6.239  17.213  0.00  0.00    +0.000 C 
ATOM     10  O   UNL     1       4.535   7.379  16.930  0.00  0.00    +0.000 OA
ENDROOT
BRANCH   8  11
ATOM     11  C   UNL     1       5.431   4.819  15.526  0.00  0.00    +0.000 A 
ATOM     12  C   UNL     1       6.751   5.283  15.550  0.00  0.00    +0.000 A 
ATOM     13  C   UNL     1       7.619   5.048  14.481  0.00  0.00    +0.000 A 
ATOM     14  C   UNL     1       7.179   4.355  13.357  0.00  0.00    +0.000 A 
ATOM     15  C   UNL     1       5.863   3.899  13.304  0.00  0.00    +0.000 A 
ATOM     16  C   UNL     1       4.996   4.132  14.383  0.00  0.00    +0.000 A 
BRANCH  15  17
ATOM     17  C   UNL     1       5.319   3.162  12.147  0.00  0.00    +0.000 C 
ATOM     18  N   UNL     1       4.158   3.341  11.603  0.00  0.00    +0.000 NA
ATOM     19  H   UNL     1       3.614   4.074  12.059  0.00  0.00    +0.000 HD
ENDBRANCH  15  17
ENDBRANCH   8  11
BRANCH   5  20
ATOM     20  C   UNL     1       2.209   2.522  19.610  0.00  0.00    +0.000 C 
ATOM     21  F   UNL     1       1.630   1.908  18.541  0.00  0.00    +0.000 F 
ATOM     22  F   UNL     1       3.398   1.886  19.803  0.00  0.00    +0.000 F 
ATOM     23  F   UNL     1       1.435   2.211  20.683  0.00  0.00    +0.000 F 
ENDBRANCH   5  20
BRANCH   1  24
ATOM     24  C   UNL     1       1.196   7.238  21.166  0.00  0.00    +0.000 C 
BRANCH  24  25
ATOM     25  C   UNL     1       1.154   8.686  20.654  0.00  0.00    +0.000 C 
BRANCH  25  29
ATOM     26  C   UNL     1      -1.357  11.505  22.923  0.00  0.00    +0.000 C 
ATOM     27  C   UNL     1      -0.631  10.498  22.060  0.00  0.00    +0.000 C 
ATOM     28  C   UNL     1       0.221   9.425  22.772  0.00  0.00    +0.000 C 
ATOM     29  N   UNL     1       1.297   9.634  21.771  0.00  0.00    +0.000 NA
ATOM     30  C   UNL     1       0.703  10.950  21.430  0.00  0.00    +0.000 C 
ENDBRANCH  25  29
ENDBRANCH  24  25
ENDBRANCH   1  24
TORSDOF 6
ENDMDL
MODEL 9
REMARK VINA RESULT:      -8.6      1.184      1.567
REMARK  Name = 
REMARK  7 active torsions:
REMARK  status: ('A' for Active; 'I' for Inactive)
REMARK    1  A    between atoms: C_1  and  C_2
REMARK    2  A    between atoms: N_4  and  C_5
REMARK    3  A    between atoms: C_5  and  C_6
REMARK    4  A    between atoms: C_6  and  C_7
REMARK    5  A    between atoms: C_11  and  C_12
REMARK    6  A    between atoms: N_18  and  C_19
REMARK    7  A    between atoms: C_23  and  C_24
REMARK                            x       y       z     vdW  Elec       q    Type
REMARK                         _______ _______ _______ _____ _____    ______ ____
ROOT
ATOM      1  C   UNL     1       3.695   6.840  17.479  0.00  0.00    +0.000 A 
ATOM      2  C   UNL     1       3.106   8.094  17.673  0.00  0.00    +0.000 A 
ATOM      3  C   UNL     1       2.267   8.250  18.760  0.00  0.00    +0.000 A 
ATOM      4  C   UNL     1       1.982   7.221  19.651  0.00  0.00    +0.000 A 
ATOM      5  C   UNL     1       2.533   5.958  19.475  0.00  0.00    +0.000 A 
ATOM      6  C   UNL     1       3.410   5.789  18.384  0.00  0.00    +0.000 A 
ATOM      7  C   UNL     1       1.067   7.732  20.715  0.00  0.00    +0.000 C 
ATOM      8  N   UNL     1       0.847   9.122  20.342  0.00  0.00    +0.000 N 
ATOM      9  C   UNL     1       1.543   9.452  19.177  0.00  0.00    +0.000 C 
ATOM     10  O   UNL     1       1.610  10.492  18.549  0.00  0.00    +0.000 OA
ENDROOT
BRANCH   8  11
ATOM     11  C   UNL     1      -0.024   9.972  21.076  0.00  0.00    +0.000 A 
ATOM     12  C   UNL     1      -0.244   9.785  22.445  0.00  0.00    +0.000 A 
ATOM     13  C   UNL     1      -1.067  10.651  23.169  0.00  0.00    +0.000 A 
ATOM     14  C   UNL     1      -1.699  11.716  22.534  0.00  0.00    +0.000 A 
ATOM     15  C   UNL     1      -1.508  11.911  21.167  0.00  0.00    +0.000 A 
ATOM     16  C   UNL     1      -0.676  11.042  20.445  0.00  0.00    +0.000 A 
BRANCH  15  17
ATOM     17  C   UNL     1      -2.147  13.012  20.420  0.00  0.00    +0.000 C 
ATOM     18  N   UNL     1      -3.368  13.040  19.992  0.00  0.00    +0.000 NA
ATOM     19  H   UNL     1      -3.889  12.194  20.224  0.00  0.00    +0.000 HD
ENDBRANCH  15  17
ENDBRANCH   8  11
BRANCH   5  20
ATOM     20  C   UNL     1       2.222   4.795  20.379  0.00  0.00    +0.000 C 
ATOM     21  F   UNL     1       0.910   4.432  20.367  0.00  0.00    +0.000 F 
ATOM     22  F   UNL     1       2.919   3.677  20.037  0.00  0.00    +0.000 F 
ATOM     23  F   UNL     1       2.527   5.048  21.679  0.00  0.00    +0.000 F 
ENDBRANCH   5  20
BRANCH   1  24
ATOM     24  C   UNL     1       4.648   6.628  16.324  0.00  0.00    +0.000 C 
BRANCH  24  25
ATOM     25  C   UNL     1       5.394   5.287  16.412  0.00  0.00    +0.000 C 
BRANCH  25  29
ATOM     26  C   UNL     1       8.248   5.743  19.736  0.00  0.00    +0.000 C 
ATOM     27  C   UNL     1       7.152   5.564  18.709  0.00  0.00    +0.000 C 
ATOM     28  C   UNL     1       7.389   4.540  17.578  0.00  0.00    +0.000 C 
ATOM     29  N   UNL     1       6.837   5.510  16.601  0.00  0.00    +0.000 NA
ATOM     30  C   UNL     1       7.083   6.605  17.572  0.00  0.00    +0.000 C 
ENDBRANCH  25  29
ENDBRANCH  24  25
ENDBRANCH   1  24
TORSDOF 6
ENDMDL
