MODEL 1
REMARK VINA RESULT:      -8.7      0.000      0.000
REMARK  Name = 
REMARK  3 active torsions:
REMARK  status: ('A' for Active; 'I' for Inactive)
REMARK    1  A    between atoms: C_1  and  C_2
REMARK    2  A    between atoms: C_5  and  C_6
REMARK    3  A    between atoms: C_11  and  C_12
REMARK                            x       y       z     vdW  Elec       q    Type
REMARK                         _______ _______ _______ _____ _____    ______ ____
ROOT
ATOM      1  C   UNL     1       1.113  10.444  19.305  0.00  0.00    +0.000 C 
ATOM      2  C   UNL     1       1.432   9.146  19.404  0.00  0.00    +0.000 A 
ATOM      3  S   UNL     1       1.275   8.119  20.821  0.00  0.00    +0.000 S 
ATOM      4  C   UNL     1       1.974   6.822  19.945  0.00  0.00    +0.000 A 
ATOM      5  N   UNL     1       2.357   5.613  20.227  0.00  0.00    +0.000 NA
ATOM      6  C   UNL     1       2.884   5.191  19.012  0.00  0.00    +0.000 A 
ATOM      7  N   UNL     1       2.848   6.115  18.026  0.00  0.00    +0.000 NA
ATOM      8  N   UNL     1       2.267   7.144  18.670  0.00  0.00    +0.000 N 
ATOM      9  C   UNL     1       2.011   8.425  18.232  0.00  0.00    +0.000 A 
ATOM     10  O   UNL     1       2.255   8.830  17.114  0.00  0.00    +0.000 OA
ENDROOT
BRANCH   6  11
ATOM     11  C   UNL     1       3.514   3.834  18.817  0.00  0.00    +0.000 C 
ATOM     12  C   UNL     1       4.749   3.620  19.691  0.00  0.00    +0.000 C 
ATOM     13  O   UNL     1       5.846   4.459  19.311  0.00  0.00    +0.000 OA
ATOM     14  C   UNL     1       5.960   4.581  17.951  0.00  0.00    +0.000 A 
ATOM     15  C   UNL     1       7.082   5.258  17.480  0.00  0.00    +0.000 A 
ATOM     16  C   UNL     1       7.279   5.408  16.106  0.00  0.00    +0.000 A 
ATOM     17  C   UNL     1       6.358   4.873  15.205  0.00  0.00    +0.000 A 
ATOM     18  C   UNL     1       5.220   4.217  15.676  0.00  0.00    +0.000 A 
ATOM     19  C   UNL     1       5.008   4.099  17.049  0.00  0.00    +0.000 A 
ATOM     20  O   UNL     1       3.823   3.530  17.441  0.00  0.00    +0.000 OA
ENDBRANCH   6  11
BRANCH   1  25
ATOM     21  C   UNL     1      -1.265  13.737  23.392  0.00  0.00    +0.000 C 
ATOM     22  C   UNL     1      -0.614  12.849  22.374  0.00  0.00    +0.000 A 
ATOM     23  C   UNL     1      -1.110  11.566  22.124  0.00  0.00    +0.000 A 
ATOM     24  C   UNL     1      -0.524  10.761  21.146  0.00  0.00    +0.000 A 
ATOM     25  C   UNL     1       0.557  11.237  20.401  0.00  0.00    +0.000 A 
ATOM     26  C   UNL     1       1.076  12.507  20.666  0.00  0.00    +0.000 A 
ATOM     27  C   UNL     1       0.492  13.307  21.650  0.00  0.00    +0.000 A 
ENDBRANCH   1  25
TORSDOF 2
ENDMDL
MODEL 2
REMARK VINA RESULT:      -8.6      1.797      2.369
REMARK  Name = 
REMARK  3 active torsions:
REMARK  status: ('A' for Active; 'I' for Inactive)
REMARK    1  A    between atoms: C_1  and  C_2
REMARK    2  A    between atoms: C_5  and  C_6
REMARK    3  A    between atoms: C_11  and  C_12
REMARK                            x       y       z     vdW  Elec       q    Type
REMARK                         _______ _______ _______ _____ _____    ______ ____
ROOT
ATOM      1  C   UNL     1       0.793  10.426  20.588  0.00  0.00    +0.000 C 
ATOM      2  C   UNL     1       1.322   9.346  19.995  0.00  0.00    +0.000 A 
ATOM      3  S   UNL     1       1.908   9.223  18.343  0.00  0.00    +0.000 S 
ATOM      4  C   UNL     1       2.250   7.564  18.600  0.00  0.00    +0.000 A 
ATOM      5  N   UNL     1       2.654   6.575  17.860  0.00  0.00    +0.000 NA
ATOM      6  C   UNL     1       2.637   5.518  18.763  0.00  0.00    +0.000 A 
ATOM      7  N   UNL     1       2.216   5.840  20.006  0.00  0.00    +0.000 NA
ATOM      8  N   UNL     1       1.972   7.155  19.852  0.00  0.00    +0.000 N 
ATOM      9  C   UNL     1       1.443   8.062  20.745  0.00  0.00    +0.000 A 
ATOM     10  O   UNL     1       1.134   7.798  21.890  0.00  0.00    +0.000 OA
ENDROOT
BRANCH   6  11
ATOM     11  C   UNL     1       2.992   4.103  18.378  0.00  0.00    +0.000 C 
ATOM     12  C   UNL     1       3.961   3.445  19.358  0.00  0.00    +0.000 C 
ATOM     13  O   UNL     1       5.263   4.043  19.330  0.00  0.00    +0.000 OA
ATOM     14  C   UNL     1       5.660   4.367  18.060  0.00  0.00    +0.000 A 
ATOM     15  C   UNL     1       6.969   4.819  17.914  0.00  0.00    +0.000 A 
ATOM     16  C   UNL     1       7.453   5.151  16.647  0.00  0.00    +0.000 A 
ATOM     17  C   UNL     1       6.631   5.022  15.527  0.00  0.00    +0.000 A 
ATOM     18  C   UNL     1       5.311   4.594  15.676  0.00  0.00    +0.000 A 
ATOM     19  C   UNL     1       4.819   4.295  16.946  0.00  0.00    +0.000 A 
ATOM     20  O   UNL     1       3.488   3.975  17.029  0.00  0.00    +0.000 OA
ENDBRANCH   6  11
BRANCH   1  25
ATOM     21  C   UNL     1      -0.058  15.632  18.273  0.00  0.00    +0.000 C 
ATOM     22  C   UNL     1       0.196  14.261  18.823  0.00  0.00    +0.000 A 
ATOM     23  C   UNL     1       1.408  13.958  19.453  0.00  0.00    +0.000 A 
ATOM     24  C   UNL     1       1.622  12.692  19.998  0.00  0.00    +0.000 A 
ATOM     25  C   UNL     1       0.620  11.720  19.931  0.00  0.00    +0.000 A 
ATOM     26  C   UNL     1      -0.581  12.007  19.278  0.00  0.00    +0.000 A 
ATOM     27  C   UNL     1      -0.789  13.272  18.726  0.00  0.00    +0.000 A 
ENDBRANCH   1  25
TORSDOF 2
ENDMDL
MODEL 3
REMARK VINA RESULT:      -8.4      1.908      3.560
REMARK  Name = 
REMARK  3 active torsions:
REMARK  status: ('A' for Active; 'I' for Inactive)
REMARK    1  A    between atoms: C_1  and  C_2
REMARK    2  A    between atoms: C_5  and  C_6
REMARK    3  A    between atoms: C_11  and  C_12
REMARK                            x       y       z     vdW  Elec       q    Type
REMARK                         _______ _______ _______ _____ _____    ______ ____
ROOT
ATOM      1  C   UNL     1      -0.014  11.673  19.578  0.00  0.00    +0.000 C 
ATOM      2  C   UNL     1       0.582  10.472  19.577  0.00  0.00    +0.000 A 
ATOM      3  S   UNL     1       0.459   9.224  20.809  0.00  0.00    +0.000 S 
ATOM      4  C   UNL     1       1.567   8.260  19.926  0.00  0.00    +0.000 A 
ATOM      5  N   UNL     1       2.176   7.130  20.126  0.00  0.00    +0.000 NA
ATOM      6  C   UNL     1       2.965   7.026  18.986  0.00  0.00    +0.000 A 
ATOM      7  N   UNL     1       2.862   8.065  18.128  0.00  0.00    +0.000 NA
ATOM      8  N   UNL     1       1.965   8.833  18.774  0.00  0.00    +0.000 N 
ATOM      9  C   UNL     1       1.484  10.083  18.453  0.00  0.00    +0.000 A 
ATOM     10  O   UNL     1       1.792  10.702  17.454  0.00  0.00    +0.000 OA
ENDROOT
BRANCH   6  11
ATOM     11  C   UNL     1       3.918   5.881  18.748  0.00  0.00    +0.000 C 
ATOM     12  C   UNL     1       3.665   5.161  17.424  0.00  0.00    +0.000 C 
ATOM     13  O   UNL     1       2.419   4.453  17.411  0.00  0.00    +0.000 OA
ATOM     14  C   UNL     1       2.158   3.838  18.607  0.00  0.00    +0.000 A 
ATOM     15  C   UNL     1       1.042   3.005  18.647  0.00  0.00    +0.000 A 
ATOM     16  C   UNL     1       0.721   2.328  19.824  0.00  0.00    +0.000 A 
ATOM     17  C   UNL     1       1.521   2.477  20.958  0.00  0.00    +0.000 A 
ATOM     18  C   UNL     1       2.624   3.331  20.926  0.00  0.00    +0.000 A 
ATOM     19  C   UNL     1       2.923   4.033  19.760  0.00  0.00    +0.000 A 
ATOM     20  O   UNL     1       3.961   4.927  19.830  0.00  0.00    +0.000 OA
ENDBRANCH   6  11
BRANCH   1  25
ATOM     21  C   UNL     1      -3.584  13.218  23.828  0.00  0.00    +0.000 C 
ATOM     22  C   UNL     1      -2.641  12.878  22.714  0.00  0.00    +0.000 A 
ATOM     23  C   UNL     1      -1.265  12.785  22.946  0.00  0.00    +0.000 A 
ATOM     24  C   UNL     1      -0.397  12.428  21.913  0.00  0.00    +0.000 A 
ATOM     25  C   UNL     1      -0.900  12.147  20.641  0.00  0.00    +0.000 A 
ATOM     26  C   UNL     1      -2.270  12.266  20.395  0.00  0.00    +0.000 A 
ATOM     27  C   UNL     1      -3.134  12.631  21.428  0.00  0.00    +0.000 A 
ENDBRANCH   1  25
TORSDOF 2
ENDMDL
MODEL 4
REMARK VINA RESULT:      -8.3      2.012      2.638
REMARK  Name = 
REMARK  3 active torsions:
REMARK  status: ('A' for Active; 'I' for Inactive)
REMARK    1  A    between atoms: C_1  and  C_2
REMARK    2  A    between atoms: C_5  and  C_6
REMARK    3  A    between atoms: C_11  and  C_12
REMARK                            x       y       z     vdW  Elec       q    Type
REMARK                         _______ _______ _______ _____ _____    ______ ____
ROOT
ATOM      1  C   UNL     1       0.244  10.919  21.257  0.00  0.00    +0.000 C 
ATOM      2  C   UNL     1       0.856  10.044  20.446  0.00  0.00    +0.000 A 
ATOM      3  S   UNL     1       1.304  10.289  18.764  0.00  0.00    +0.000 S 
ATOM      4  C   UNL     1       1.882   8.677  18.695  0.00  0.00    +0.000 A 
ATOM      5  N   UNL     1       2.344   7.897  17.764  0.00  0.00    +0.000 NA
ATOM      6  C   UNL     1       2.546   6.712  18.461  0.00  0.00    +0.000 A 
ATOM      7  N   UNL     1       2.198   6.753  19.767  0.00  0.00    +0.000 NA
ATOM      8  N   UNL     1       1.771   8.026  19.869  0.00  0.00    +0.000 N 
ATOM      9  C   UNL     1       1.209   8.682  20.942  0.00  0.00    +0.000 A 
ATOM     10  O   UNL     1       1.039   8.186  22.038  0.00  0.00    +0.000 OA
ENDROOT
BRANCH   6  11
ATOM     11  C   UNL     1       3.047   5.448  17.805  0.00  0.00    +0.000 C 
ATOM     12  C   UNL     1       3.430   4.366  18.813  0.00  0.00    +0.000 C 
ATOM     13  O   UNL     1       4.584   4.718  19.588  0.00  0.00    +0.000 OA
ATOM     14  C   UNL     1       5.540   5.350  18.839  0.00  0.00    +0.000 A 
ATOM     15  C   UNL     1       6.757   5.602  19.468  0.00  0.00    +0.000 A 
ATOM     16  C   UNL     1       7.788   6.227  18.764  0.00  0.00    +0.000 A 
ATOM     17  C   UNL     1       7.604   6.592  17.430  0.00  0.00    +0.000 A 
ATOM     18  C   UNL     1       6.377   6.364  16.807  0.00  0.00    +0.000 A 
ATOM     19  C   UNL     1       5.337   5.771  17.521  0.00  0.00    +0.000 A 
ATOM     20  O   UNL     1       4.130   5.667  16.877  0.00  0.00    +0.000 OA
ENDBRANCH   6  11
BRANCH   1  25
ATOM     21  C   UNL     1      -1.443  16.281  19.994  0.00  0.00    +0.000 C 
ATOM     22  C   UNL     1      -0.981  14.881  20.264  0.00  0.00    +0.000 A 
ATOM     23  C   UNL     1       0.352  14.619  20.594  0.00  0.00    +0.000 A 
ATOM     24  C   UNL     1       0.766  13.318  20.883  0.00  0.00    +0.000 A 
ATOM     25  C   UNL     1      -0.154  12.268  20.856  0.00  0.00    +0.000 A 
ATOM     26  C   UNL     1      -1.481  12.517  20.499  0.00  0.00    +0.000 A 
ATOM     27  C   UNL     1      -1.890  13.819  20.203  0.00  0.00    +0.000 A 
ENDBRANCH   1  25
TORSDOF 2
ENDMDL
MODEL 5
REMARK VINA RESULT:      -8.3      2.062      2.595
REMARK  Name = 
REMARK  3 active torsions:
REMARK  status: ('A' for Active; 'I' for Inactive)
REMARK    1  A    between atoms: C_1  and  C_2
REMARK    2  A    between atoms: C_5  and  C_6
REMARK    3  A    between atoms: C_11  and  C_12
REMARK                            x       y       z     vdW  Elec       q    Type
REMARK                         _______ _______ _______ _____ _____    ______ ____
ROOT
ATOM      1  C   UNL     1       0.477  11.218  20.995  0.00  0.00    +0.000 C 
ATOM      2  C   UNL     1       1.020  10.222  20.280  0.00  0.00    +0.000 A 
ATOM      3  S   UNL     1       1.509  10.270  18.593  0.00  0.00    +0.000 S 
ATOM      4  C   UNL     1       1.946   8.616  18.685  0.00  0.00    +0.000 A 
ATOM      5  N   UNL     1       2.351   7.716  17.839  0.00  0.00    +0.000 NA
ATOM      6  C   UNL     1       2.440   6.588  18.646  0.00  0.00    +0.000 A 
ATOM      7  N   UNL     1       2.081   6.781  19.935  0.00  0.00    +0.000 NA
ATOM      8  N   UNL     1       1.765   8.089  19.910  0.00  0.00    +0.000 N 
ATOM      9  C   UNL     1       1.248   8.888  20.907  0.00  0.00    +0.000 A 
ATOM     10  O   UNL     1       1.023   8.513  22.041  0.00  0.00    +0.000 OA
ENDROOT
BRANCH   6  11
ATOM     11  C   UNL     1       2.839   5.231  18.119  0.00  0.00    +0.000 C 
ATOM     12  C   UNL     1       3.323   4.285  19.218  0.00  0.00    +0.000 C 
ATOM     13  O   UNL     1       4.567   4.702  19.795  0.00  0.00    +0.000 OA
ATOM     14  C   UNL     1       5.436   5.195  18.857  0.00  0.00    +0.000 A 
ATOM     15  C   UNL     1       6.724   5.490  19.298  0.00  0.00    +0.000 A 
ATOM     16  C   UNL     1       7.672   5.979  18.398  0.00  0.00    +0.000 A 
ATOM     17  C   UNL     1       7.335   6.162  17.056  0.00  0.00    +0.000 A 
ATOM     18  C   UNL     1       6.038   5.892  16.620  0.00  0.00    +0.000 A 
ATOM     19  C   UNL     1       5.082   5.437  17.527  0.00  0.00    +0.000 A 
ATOM     20  O   UNL     1       3.806   5.284  17.050  0.00  0.00    +0.000 OA
ENDBRANCH   6  11
BRANCH   1  25
ATOM     21  C   UNL     1      -0.464  16.378  18.610  0.00  0.00    +0.000 C 
ATOM     22  C   UNL     1      -0.249  15.056  19.283  0.00  0.00    +0.000 A 
ATOM     23  C   UNL     1      -1.270  14.102  19.327  0.00  0.00    +0.000 A 
ATOM     24  C   UNL     1      -1.049  12.858  19.920  0.00  0.00    +0.000 A 
ATOM     25  C   UNL     1       0.201  12.553  20.463  0.00  0.00    +0.000 A 
ATOM     26  C   UNL     1       1.217  13.512  20.448  0.00  0.00    +0.000 A 
ATOM     27  C   UNL     1       0.990  14.758  19.862  0.00  0.00    +0.000 A 
ENDBRANCH   1  25
TORSDOF 2
ENDMDL
MODEL 6
REMARK VINA RESULT:      -8.0      2.885      8.968
REMARK  Name = 
REMARK  3 active torsions:
REMARK  status: ('A' for Active; 'I' for Inactive)
REMARK    1  A    between atoms: C_1  and  C_2
REMARK    2  A    between atoms: C_5  and  C_6
REMARK    3  A    between atoms: C_11  and  C_12
REMARK                            x       y       z     vdW  Elec       q    Type
REMARK                         _______ _______ _______ _____ _____    ______ ____
ROOT
ATOM      1  C   UNL     1       2.930   6.436  19.318  0.00  0.00    +0.000 C 
ATOM      2  C   UNL     1       2.228   7.576  19.251  0.00  0.00    +0.000 A 
ATOM      3  S   UNL     1       2.007   8.606  17.844  0.00  0.00    +0.000 S 
ATOM      4  C   UNL     1       1.109   9.705  18.805  0.00  0.00    +0.000 A 
ATOM      5  N   UNL     1       0.584  10.880  18.624  0.00  0.00    +0.000 NA
ATOM      6  C   UNL     1       0.069  11.159  19.884  0.00  0.00    +0.000 A 
ATOM      7  N   UNL     1       0.289  10.201  20.813  0.00  0.00    +0.000 NA
ATOM      8  N   UNL     1       0.965   9.296  20.080  0.00  0.00    +0.000 N 
ATOM      9  C   UNL     1       1.547   8.109  20.467  0.00  0.00    +0.000 A 
ATOM     10  O   UNL     1       1.501   7.656  21.593  0.00  0.00    +0.000 OA
ENDROOT
BRANCH   6  11
ATOM     11  C   UNL     1      -0.624  12.457  20.220  0.00  0.00    +0.000 C 
ATOM     12  C   UNL     1      -0.964  13.286  18.983  0.00  0.00    +0.000 C 
ATOM     13  O   UNL     1       0.202  13.792  18.321  0.00  0.00    +0.000 OA
ATOM     14  C   UNL     1       1.162  14.208  19.204  0.00  0.00    +0.000 A 
ATOM     15  C   UNL     1       2.272  14.849  18.659  0.00  0.00    +0.000 A 
ATOM     16  C   UNL     1       3.285  15.319  19.497  0.00  0.00    +0.000 A 
ATOM     17  C   UNL     1       3.183  15.156  20.879  0.00  0.00    +0.000 A 
ATOM     18  C   UNL     1       2.084  14.490  21.423  0.00  0.00    +0.000 A 
ATOM     19  C   UNL     1       1.090  13.991  20.583  0.00  0.00    +0.000 A 
ATOM     20  O   UNL     1       0.090  13.265  21.178  0.00  0.00    +0.000 OA
ENDBRANCH   6  11
BRANCH   1  25
ATOM     21  C   UNL     1       5.971   3.992  15.077  0.00  0.00    +0.000 C 
ATOM     22  C   UNL     1       5.137   4.647  16.138  0.00  0.00    +0.000 A 
ATOM     23  C   UNL     1       4.025   3.992  16.677  0.00  0.00    +0.000 A 
ATOM     24  C   UNL     1       3.277   4.590  17.692  0.00  0.00    +0.000 A 
ATOM     25  C   UNL     1       3.643   5.844  18.186  0.00  0.00    +0.000 A 
ATOM     26  C   UNL     1       4.735   6.517  17.631  0.00  0.00    +0.000 A 
ATOM     27  C   UNL     1       5.475   5.919  16.610  0.00  0.00    +0.000 A 
ENDBRANCH   1  25
TORSDOF 2
ENDMDL
MODEL 7
REMARK VINA RESULT:      -8.0      2.847      9.009
REMARK  Name = 
REMARK  3 active torsions:
REMARK  status: ('A' for Active; 'I' for Inactive)
REMARK    1  A    between atoms: C_1  and  C_2
REMARK    2  A    between atoms: C_5  and  C_6
REMARK    3  A    between atoms: C_11  and  C_12
REMARK                            x       y       z     vdW  Elec       q    Type
REMARK                         _______ _______ _______ _____ _____    ______ ____
ROOT
ATOM      1  C   UNL     1       2.584   6.913  17.940  0.00  0.00    +0.000 C 
ATOM      2  C   UNL     1       2.060   7.729  18.866  0.00  0.00    +0.000 A 
ATOM      3  S   UNL     1       1.594   7.310  20.508  0.00  0.00    +0.000 S 
ATOM      4  C   UNL     1       1.032   8.912  20.744  0.00  0.00    +0.000 A 
ATOM      5  N   UNL     1       0.402   9.543  21.689  0.00  0.00    +0.000 NA
ATOM      6  C   UNL     1       0.241  10.805  21.130  0.00  0.00    +0.000 A 
ATOM      7  N   UNL     1       0.733  10.939  19.878  0.00  0.00    +0.000 NA
ATOM      8  N   UNL     1       1.220   9.701  19.670  0.00  0.00    +0.000 N 
ATOM      9  C   UNL     1       1.793   9.160  18.539  0.00  0.00    +0.000 A 
ATOM     10  O   UNL     1       1.989   9.772  17.509  0.00  0.00    +0.000 OA
ENDROOT
BRANCH   6  11
ATOM     11  C   UNL     1      -0.487  11.927  21.830  0.00  0.00    +0.000 C 
ATOM     12  C   UNL     1      -1.746  12.372  21.089  0.00  0.00    +0.000 C 
ATOM     13  O   UNL     1      -1.454  13.008  19.838  0.00  0.00    +0.000 OA
ATOM     14  C   UNL     1      -0.357  13.825  19.915  0.00  0.00    +0.000 A 
ATOM     15  C   UNL     1      -0.080  14.600  18.791  0.00  0.00    +0.000 A 
ATOM     16  C   UNL     1       1.011  15.471  18.798  0.00  0.00    +0.000 A 
ATOM     17  C   UNL     1       1.817  15.574  19.932  0.00  0.00    +0.000 A 
ATOM     18  C   UNL     1       1.555  14.780  21.049  0.00  0.00    +0.000 A 
ATOM     19  C   UNL     1       0.486  13.885  21.027  0.00  0.00    +0.000 A 
ATOM     20  O   UNL     1       0.347  13.068  22.120  0.00  0.00    +0.000 OA
ENDBRANCH   6  11
BRANCH   1  25
ATOM     21  C   UNL     1       3.778   1.303  18.482  0.00  0.00    +0.000 C 
ATOM     22  C   UNL     1       3.454   2.765  18.403  0.00  0.00    +0.000 A 
ATOM     23  C   UNL     1       4.402   3.727  18.766  0.00  0.00    +0.000 A 
ATOM     24  C   UNL     1       4.108   5.086  18.652  0.00  0.00    +0.000 A 
ATOM     25  C   UNL     1       2.866   5.496  18.161  0.00  0.00    +0.000 A 
ATOM     26  C   UNL     1       1.904   4.540  17.824  0.00  0.00    +0.000 A 
ATOM     27  C   UNL     1       2.199   3.182  17.947  0.00  0.00    +0.000 A 
ENDBRANCH   1  25
TORSDOF 2
ENDMDL
MODEL 8
REMARK VINA RESULT:      -7.8      2.280      8.780
REMARK  Name = 
REMARK  3 active torsions:
REMARK  status: ('A' for Active; 'I' for Inactive)
REMARK    1  A    between atoms: C_1  and  C_2
REMARK    2  A    between atoms: C_5  and  C_6
REMARK    3  A    between atoms: C_11  and  C_12
REMARK                            x       y       z     vdW  Elec       q    Type
REMARK                         _______ _______ _______ _____ _____    ______ ____
ROOT
ATOM      1  C   UNL     1       3.851   5.312  18.718  0.00  0.00    +0.000 C 
ATOM      2  C   UNL     1       3.099   6.406  18.908  0.00  0.00    +0.000 A 
ATOM      3  S   UNL     1       3.004   7.823  17.873  0.00  0.00    +0.000 S 
ATOM      4  C   UNL     1       1.926   8.551  18.988  0.00  0.00    +0.000 A 
ATOM      5  N   UNL     1       1.361   9.716  19.106  0.00  0.00    +0.000 NA
ATOM      6  C   UNL     1       0.670   9.577  20.304  0.00  0.00    +0.000 A 
ATOM      7  N   UNL     1       0.823   8.379  20.913  0.00  0.00    +0.000 NA
ATOM      8  N   UNL     1       1.640   7.760  20.040  0.00  0.00    +0.000 N 
ATOM      9  C   UNL     1       2.234   6.520  20.120  0.00  0.00    +0.000 A 
ATOM     10  O   UNL     1       2.067   5.735  21.032  0.00  0.00    +0.000 OA
ENDROOT
BRANCH   6  11
ATOM     11  C   UNL     1      -0.134  10.693  20.923  0.00  0.00    +0.000 C 
ATOM     12  C   UNL     1      -1.151  11.300  19.956  0.00  0.00    +0.000 C 
ATOM     13  O   UNL     1      -0.529  12.010  18.878  0.00  0.00    +0.000 OA
ATOM     14  C   UNL     1       0.564  12.725  19.288  0.00  0.00    +0.000 A 
ATOM     15  C   UNL     1       1.149  13.564  18.342  0.00  0.00    +0.000 A 
ATOM     16  C   UNL     1       2.257  14.339  18.689  0.00  0.00    +0.000 A 
ATOM     17  C   UNL     1       2.773  14.282  19.984  0.00  0.00    +0.000 A 
ATOM     18  C   UNL     1       2.204  13.423  20.925  0.00  0.00    +0.000 A 
ATOM     19  C   UNL     1       1.119  12.624  20.566  0.00  0.00    +0.000 A 
ATOM     20  O   UNL     1       0.673  11.735  21.510  0.00  0.00    +0.000 OA
ENDBRANCH   6  11
BRANCH   1  25
ATOM     21  C   UNL     1       7.157   4.766  14.032  0.00  0.00    +0.000 C 
ATOM     22  C   UNL     1       6.336   4.868  15.281  0.00  0.00    +0.000 A 
ATOM     23  C   UNL     1       6.725   5.713  16.325  0.00  0.00    +0.000 A 
ATOM     24  C   UNL     1       5.933   5.833  17.468  0.00  0.00    +0.000 A 
ATOM     25  C   UNL     1       4.739   5.117  17.572  0.00  0.00    +0.000 A 
ATOM     26  C   UNL     1       4.359   4.249  16.546  0.00  0.00    +0.000 A 
ATOM     27  C   UNL     1       5.157   4.125  15.408  0.00  0.00    +0.000 A 
ENDBRANCH   1  25
TORSDOF 2
ENDMDL
MODEL 9
REMARK VINA RESULT:      -7.8      4.561     10.458
REMARK  Name = 
REMARK  3 active torsions:
REMARK  status: ('A' for Active; 'I' for Inactive)
REMARK    1  A    between atoms: C_1  and  C_2
REMARK    2  A    between atoms: C_5  and  C_6
REMARK    3  A    between atoms: C_11  and  C_12
REMARK                            x       y       z     vdW  Elec       q    Type
REMARK                         _______ _______ _______ _____ _____    ______ ____
ROOT
ATOM      1  C   UNL     1       1.142   8.070  21.632  0.00  0.00    +0.000 C 
ATOM      2  C   UNL     1       0.379   9.160  21.465  0.00  0.00    +0.000 A 
ATOM      3  S   UNL     1      -0.230   9.809  19.950  0.00  0.00    +0.000 S 
ATOM      4  C   UNL     1      -0.936  11.115  20.806  0.00  0.00    +0.000 A 
ATOM      5  N   UNL     1      -1.556  12.209  20.481  0.00  0.00    +0.000 NA
ATOM      6  C   UNL     1      -1.773  12.794  21.723  0.00  0.00    +0.000 A 
ATOM      7  N   UNL     1      -1.283  12.096  22.772  0.00  0.00    +0.000 NA
ATOM      8  N   UNL     1      -0.749  11.036  22.138  0.00  0.00    +0.000 N 
ATOM      9  C   UNL     1      -0.024   9.980  22.645  0.00  0.00    +0.000 A 
ATOM     10  O   UNL     1       0.225   9.821  23.824  0.00  0.00    +0.000 OA
ENDROOT
BRANCH   6  11
ATOM     11  C   UNL     1      -2.440  14.136  21.894  0.00  0.00    +0.000 C 
ATOM     12  C   UNL     1      -3.053  14.323  23.281  0.00  0.00    +0.000 C 
ATOM     13  O   UNL     1      -4.173  13.459  23.510  0.00  0.00    +0.000 OA
ATOM     14  C   UNL     1      -4.968  13.334  22.402  0.00  0.00    +0.000 A 
ATOM     15  C   UNL     1      -6.159  12.631  22.568  0.00  0.00    +0.000 A 
ATOM     16  C   UNL     1      -7.031  12.476  21.489  0.00  0.00    +0.000 A 
ATOM     17  C   UNL     1      -6.716  13.031  20.248  0.00  0.00    +0.000 A 
ATOM     18  C   UNL     1      -5.510  13.712  20.075  0.00  0.00    +0.000 A 
ATOM     19  C   UNL     1      -4.625  13.836  21.144  0.00  0.00    +0.000 A 
ATOM     20  O   UNL     1      -3.419  14.432  20.877  0.00  0.00    +0.000 OA
ENDBRANCH   6  11
BRANCH   1  25
ATOM     21  C   UNL     1       3.254   4.717  17.449  0.00  0.00    +0.000 C 
ATOM     22  C   UNL     1       2.646   5.583  18.512  0.00  0.00    +0.000 A 
ATOM     23  C   UNL     1       2.009   5.014  19.619  0.00  0.00    +0.000 A 
ATOM     24  C   UNL     1       1.481   5.825  20.624  0.00  0.00    +0.000 A 
ATOM     25  C   UNL     1       1.598   7.214  20.537  0.00  0.00    +0.000 A 
ATOM     26  C   UNL     1       2.208   7.790  19.420  0.00  0.00    +0.000 A 
ATOM     27  C   UNL     1       2.728   6.976  18.413  0.00  0.00    +0.000 A 
ENDBRANCH   1  25
TORSDOF 2
ENDMDL
