MODEL 1
REMARK VINA RESULT:      -9.6      0.000      0.000
REMARK  Name = 
REMARK  4 active torsions:
REMARK  status: ('A' for Active; 'I' for Inactive)
REMARK    1  A    between atoms: C_1  and  C_2
REMARK    2  A    between atoms: C_7  and  C_8
REMARK    3  A    between atoms: C_12  and  N_13
REMARK    4  A    between atoms: C_14  and  C_16
REMARK                            x       y       z     vdW  Elec       q    Type
REMARK                         _______ _______ _______ _____ _____    ______ ____
ROOT
ATOM      1  C   UNL     1       5.273   4.644  17.733  0.00  0.00    +0.000 A 
ATOM      2  C   UNL     1       5.396   4.045  16.474  0.00  0.00    +0.000 A 
ATOM      3  C   UNL     1       6.108   4.677  15.469  0.00  0.00    +0.000 A 
ATOM      4  C   UNL     1       6.684   5.923  15.714  0.00  0.00    +0.000 A 
ATOM      5  C   UNL     1       6.542   6.561  16.956  0.00  0.00    +0.000 A 
ATOM      6  C   UNL     1       5.863   5.897  17.981  0.00  0.00    +0.000 A 
ENDROOT
BRANCH   1  13
ATOM      7  C   UNL     1       1.111   3.974  20.098  0.00  0.00    +0.000 C 
ATOM      8  C   UNL     1       2.548   3.562  19.939  0.00  0.00    +0.000 A 
ATOM      9  C   UNL     1       3.101   2.631  20.727  0.00  0.00    +0.000 A 
ATOM     10  C   UNL     1       4.513   2.291  20.506  0.00  0.00    +0.000 A 
ATOM     11  O   UNL     1       5.104   1.497  21.224  0.00  0.00    +0.000 OA
ATOM     12  N   UNL     1       5.114   2.932  19.466  0.00  0.00    +0.000 N 
ATOM     13  C   UNL     1       4.471   3.907  18.744  0.00  0.00    +0.000 A 
ATOM     14  N   UNL     1       3.233   4.226  18.953  0.00  0.00    +0.000 NA
ATOM     15  H   UNL     1       6.096   2.741  19.353  0.00  0.00    +0.000 HD
ENDBRANCH   1  13
BRANCH   5  16
ATOM     16  N   UNL     1       7.048   7.865  17.196  0.00  0.00    +0.000 N 
ATOM     17  C   UNL     1       8.022   8.164  18.144  0.00  0.00    +0.000 C 
ATOM     18  O   UNL     1       8.577   7.348  18.870  0.00  0.00    +0.000 OA
ATOM     19  H   UNL     1       6.812   8.582  16.520  0.00  0.00    +0.000 HD
BRANCH  17  20
ATOM     20  C   UNL     1       8.484   9.574  18.240  0.00  0.00    +0.000 A 
ATOM     21  C   UNL     1       7.996  10.608  17.423  0.00  0.00    +0.000 A 
ATOM     22  C   UNL     1       8.436  11.927  17.614  0.00  0.00    +0.000 A 
ATOM     23  C   UNL     1       9.335  12.193  18.638  0.00  0.00    +0.000 A 
ATOM     24  C   UNL     1       9.790  11.176  19.472  0.00  0.00    +0.000 A 
ATOM     25  C   UNL     1       9.395   9.866  19.272  0.00  0.00    +0.000 A 
ATOM     26  C   UNL     1      10.694  11.690  20.545  0.00  0.00    +0.000 C 
ATOM     27  C   UNL     1      10.590  13.212  20.370  0.00  0.00    +0.000 C 
ATOM     28  C   UNL     1       9.970  13.499  18.993  0.00  0.00    +0.000 C 
ENDBRANCH  17  20
ENDBRANCH   5  16
TORSDOF 3
ENDMDL
MODEL 2
REMARK VINA RESULT:      -9.1      5.009      7.400
REMARK  Name = 
REMARK  4 active torsions:
REMARK  status: ('A' for Active; 'I' for Inactive)
REMARK    1  A    between atoms: C_1  and  C_2
REMARK    2  A    between atoms: C_7  and  C_8
REMARK    3  A    between atoms: C_12  and  N_13
REMARK    4  A    between atoms: C_14  and  C_16
REMARK                            x       y       z     vdW  Elec       q    Type
REMARK                         _______ _______ _______ _____ _____    ______ ____
ROOT
ATOM      1  C   UNL     1       3.695   4.614  19.209  0.00  0.00    +0.000 A 
ATOM      2  C   UNL     1       3.161   3.340  19.432  0.00  0.00    +0.000 A 
ATOM      3  C   UNL     1       1.983   3.193  20.144  0.00  0.00    +0.000 A 
ATOM      4  C   UNL     1       1.344   4.322  20.656  0.00  0.00    +0.000 A 
ATOM      5  C   UNL     1       1.881   5.606  20.479  0.00  0.00    +0.000 A 
ATOM      6  C   UNL     1       3.043   5.752  19.719  0.00  0.00    +0.000 A 
ENDROOT
BRANCH   1  13
ATOM      7  C   UNL     1       6.170   4.003  15.102  0.00  0.00    +0.000 C 
ATOM      8  C   UNL     1       6.222   4.364  16.561  0.00  0.00    +0.000 A 
ATOM      9  C   UNL     1       7.379   4.649  17.171  0.00  0.00    +0.000 A 
ATOM     10  C   UNL     1       7.340   4.987  18.599  0.00  0.00    +0.000 A 
ATOM     11  O   UNL     1       8.362   5.199  19.239  0.00  0.00    +0.000 OA
ATOM     12  N   UNL     1       6.100   5.030  19.158  0.00  0.00    +0.000 N 
ATOM     13  C   UNL     1       4.974   4.676  18.456  0.00  0.00    +0.000 A 
ATOM     14  N   UNL     1       5.009   4.354  17.201  0.00  0.00    +0.000 NA
ATOM     15  H   UNL     1       6.080   5.205  20.149  0.00  0.00    +0.000 HD
ENDBRANCH   1  13
BRANCH   5  16
ATOM     16  N   UNL     1       1.291   6.758  21.065  0.00  0.00    +0.000 N 
ATOM     17  C   UNL     1       1.314   8.026  20.493  0.00  0.00    +0.000 C 
ATOM     18  O   UNL     1       1.821   8.306  19.413  0.00  0.00    +0.000 OA
ATOM     19  H   UNL     1       0.672   6.606  21.853  0.00  0.00    +0.000 HD
BRANCH  17  20
ATOM     20  C   UNL     1       0.605   9.120  21.208  0.00  0.00    +0.000 A 
ATOM     21  C   UNL     1      -0.053   8.945  22.437  0.00  0.00    +0.000 A 
ATOM     22  C   UNL     1      -0.649  10.040  23.082  0.00  0.00    +0.000 A 
ATOM     23  C   UNL     1      -0.550  11.297  22.499  0.00  0.00    +0.000 A 
ATOM     24  C   UNL     1       0.135  11.478  21.302  0.00  0.00    +0.000 A 
ATOM     25  C   UNL     1       0.693  10.402  20.636  0.00  0.00    +0.000 A 
ATOM     26  C   UNL     1       0.179  12.913  20.889  0.00  0.00    +0.000 C 
ATOM     27  C   UNL     1      -0.424  13.630  22.106  0.00  0.00    +0.000 C 
ATOM     28  C   UNL     1      -1.140  12.584  22.977  0.00  0.00    +0.000 C 
ENDBRANCH  17  20
ENDBRANCH   5  16
TORSDOF 3
ENDMDL
MODEL 3
REMARK VINA RESULT:      -9.1      1.226      1.625
REMARK  Name = 
REMARK  4 active torsions:
REMARK  status: ('A' for Active; 'I' for Inactive)
REMARK    1  A    between atoms: C_1  and  C_2
REMARK    2  A    between atoms: C_7  and  C_8
REMARK    3  A    between atoms: C_12  and  N_13
REMARK    4  A    between atoms: C_14  and  C_16
REMARK                            x       y       z     vdW  Elec       q    Type
REMARK                         _______ _______ _______ _____ _____    ______ ____
ROOT
ATOM      1  C   UNL     1       5.716   4.848  18.272  0.00  0.00    +0.000 A 
ATOM      2  C   UNL     1       5.701   4.526  16.910  0.00  0.00    +0.000 A 
ATOM      3  C   UNL     1       6.539   5.187  16.029  0.00  0.00    +0.000 A 
ATOM      4  C   UNL     1       7.382   6.191  16.504  0.00  0.00    +0.000 A 
ATOM      5  C   UNL     1       7.387   6.558  17.858  0.00  0.00    +0.000 A 
ATOM      6  C   UNL     1       6.575   5.854  18.750  0.00  0.00    +0.000 A 
ENDROOT
BRANCH   1  13
ATOM      7  C   UNL     1       1.381   4.472  20.377  0.00  0.00    +0.000 C 
ATOM      8  C   UNL     1       2.754   3.883  20.210  0.00  0.00    +0.000 A 
ATOM      9  C   UNL     1       3.131   2.785  20.878  0.00  0.00    +0.000 A 
ATOM     10  C   UNL     1       4.491   2.278  20.659  0.00  0.00    +0.000 A 
ATOM     11  O   UNL     1       4.929   1.317  21.278  0.00  0.00    +0.000 OA
ATOM     12  N   UNL     1       5.230   2.960  19.740  0.00  0.00    +0.000 N 
ATOM     13  C   UNL     1       4.768   4.105  19.141  0.00  0.00    +0.000 A 
ATOM     14  N   UNL     1       3.575   4.568  19.351  0.00  0.00    +0.000 NA
ATOM     15  H   UNL     1       6.181   2.646  19.635  0.00  0.00    +0.000 HD
ENDBRANCH   1  13
BRANCH   5  16
ATOM     16  N   UNL     1       8.175   7.634  18.344  0.00  0.00    +0.000 N 
ATOM     17  C   UNL     1       8.028   8.958  17.942  0.00  0.00    +0.000 C 
ATOM     18  O   UNL     1       7.194   9.365  17.141  0.00  0.00    +0.000 OA
ATOM     19  H   UNL     1       8.755   7.449  19.155  0.00  0.00    +0.000 HD
BRANCH  17  20
ATOM     20  C   UNL     1       8.899   9.977  18.584  0.00  0.00    +0.000 A 
ATOM     21  C   UNL     1       9.068  10.090  19.975  0.00  0.00    +0.000 A 
ATOM     22  C   UNL     1       9.956  11.038  20.504  0.00  0.00    +0.000 A 
ATOM     23  C   UNL     1      10.682  11.838  19.632  0.00  0.00    +0.000 A 
ATOM     24  C   UNL     1      10.545  11.701  18.254  0.00  0.00    +0.000 A 
ATOM     25  C   UNL     1       9.645  10.798  17.719  0.00  0.00    +0.000 A 
ATOM     26  C   UNL     1      11.464  12.609  17.504  0.00  0.00    +0.000 C 
ATOM     27  C   UNL     1      12.333  13.204  18.621  0.00  0.00    +0.000 C 
ATOM     28  C   UNL     1      11.639  12.936  19.967  0.00  0.00    +0.000 C 
ENDBRANCH  17  20
ENDBRANCH   5  16
TORSDOF 3
ENDMDL
MODEL 4
REMARK VINA RESULT:      -9.0      1.520      1.553
REMARK  Name = 
REMARK  4 active torsions:
REMARK  status: ('A' for Active; 'I' for Inactive)
REMARK    1  A    between atoms: C_1  and  C_2
REMARK    2  A    between atoms: C_7  and  C_8
REMARK    3  A    between atoms: C_12  and  N_13
REMARK    4  A    between atoms: C_14  and  C_16
REMARK                            x       y       z     vdW  Elec       q    Type
REMARK                         _______ _______ _______ _____ _____    ______ ____
ROOT
ATOM      1  C   UNL     1       4.941   5.155  17.393  0.00  0.00    +0.000 A 
ATOM      2  C   UNL     1       5.523   4.302  16.448  0.00  0.00    +0.000 A 
ATOM      3  C   UNL     1       6.688   4.673  15.799  0.00  0.00    +0.000 A 
ATOM      4  C   UNL     1       7.264   5.913  16.077  0.00  0.00    +0.000 A 
ATOM      5  C   UNL     1       6.678   6.801  16.990  0.00  0.00    +0.000 A 
ATOM      6  C   UNL     1       5.530   6.400  17.678  0.00  0.00    +0.000 A 
ENDROOT
BRANCH   1  13
ATOM      7  C   UNL     1       1.536   5.617  20.793  0.00  0.00    +0.000 C 
ATOM      8  C   UNL     1       2.056   4.812  19.634  0.00  0.00    +0.000 A 
ATOM      9  C   UNL     1       1.456   3.682  19.241  0.00  0.00    +0.000 A 
ATOM     10  C   UNL     1       2.032   2.956  18.102  0.00  0.00    +0.000 A 
ATOM     11  O   UNL     1       1.577   1.885  17.724  0.00  0.00    +0.000 OA
ATOM     12  N   UNL     1       3.110   3.546  17.515  0.00  0.00    +0.000 N 
ATOM     13  C   UNL     1       3.680   4.687  18.023  0.00  0.00    +0.000 A 
ATOM     14  N   UNL     1       3.187   5.316  19.043  0.00  0.00    +0.000 NA
ATOM     15  H   UNL     1       3.538   3.018  16.773  0.00  0.00    +0.000 HD
ENDBRANCH   1  13
BRANCH   5  16
ATOM     16  N   UNL     1       7.203   8.099  17.223  0.00  0.00    +0.000 N 
ATOM     17  C   UNL     1       8.141   8.400  18.206  0.00  0.00    +0.000 C 
ATOM     18  O   UNL     1       8.645   7.590  18.975  0.00  0.00    +0.000 OA
ATOM     19  H   UNL     1       7.014   8.804  16.520  0.00  0.00    +0.000 HD
BRANCH  17  20
ATOM     20  C   UNL     1       8.631   9.802  18.289  0.00  0.00    +0.000 A 
ATOM     21  C   UNL     1       8.141  10.844  17.483  0.00  0.00    +0.000 A 
ATOM     22  C   UNL     1       8.610  12.154  17.662  0.00  0.00    +0.000 A 
ATOM     23  C   UNL     1       9.539  12.404  18.664  0.00  0.00    +0.000 A 
ATOM     24  C   UNL     1       9.995  11.380  19.487  0.00  0.00    +0.000 A 
ATOM     25  C   UNL     1       9.572  10.078  19.298  0.00  0.00    +0.000 A 
ATOM     26  C   UNL     1      10.934  11.878  20.537  0.00  0.00    +0.000 C 
ATOM     27  C   UNL     1      10.853  13.401  20.364  0.00  0.00    +0.000 C 
ATOM     28  C   UNL     1      10.205  13.699  19.002  0.00  0.00    +0.000 C 
ENDBRANCH  17  20
ENDBRANCH   5  16
TORSDOF 3
ENDMDL
MODEL 5
REMARK VINA RESULT:      -8.9      1.606      1.803
REMARK  Name = 
REMARK  4 active torsions:
REMARK  status: ('A' for Active; 'I' for Inactive)
REMARK    1  A    between atoms: C_1  and  C_2
REMARK    2  A    between atoms: C_7  and  C_8
REMARK    3  A    between atoms: C_12  and  N_13
REMARK    4  A    between atoms: C_14  and  C_16
REMARK                            x       y       z     vdW  Elec       q    Type
REMARK                         _______ _______ _______ _____ _____    ______ ____
ROOT
ATOM      1  C   UNL     1       4.730   5.272  17.727  0.00  0.00    +0.000 A 
ATOM      2  C   UNL     1       5.157   4.414  16.707  0.00  0.00    +0.000 A 
ATOM      3  C   UNL     1       6.239   4.759  15.915  0.00  0.00    +0.000 A 
ATOM      4  C   UNL     1       6.886   5.977  16.127  0.00  0.00    +0.000 A 
ATOM      5  C   UNL     1       6.451   6.870  17.118  0.00  0.00    +0.000 A 
ATOM      6  C   UNL     1       5.389   6.495  17.945  0.00  0.00    +0.000 A 
ENDROOT
BRANCH   1  13
ATOM      7  C   UNL     1       1.212   2.061  18.557  0.00  0.00    +0.000 C 
ATOM      8  C   UNL     1       1.825   3.381  18.933  0.00  0.00    +0.000 A 
ATOM      9  C   UNL     1       1.282   4.162  19.876  0.00  0.00    +0.000 A 
ATOM     10  C   UNL     1       1.944   5.438  20.179  0.00  0.00    +0.000 A 
ATOM     11  O   UNL     1       1.474   6.232  20.982  0.00  0.00    +0.000 OA
ATOM     12  N   UNL     1       3.095   5.679  19.494  0.00  0.00    +0.000 N 
ATOM     13  C   UNL     1       3.547   4.833  18.511  0.00  0.00    +0.000 A 
ATOM     14  N   UNL     1       2.951   3.717  18.225  0.00  0.00    +0.000 NA
ATOM     15  H   UNL     1       3.515   6.578  19.660  0.00  0.00    +0.000 HD
ENDBRANCH   1  13
BRANCH   5  16
ATOM     16  N   UNL     1       7.042   8.149  17.292  0.00  0.00    +0.000 N 
ATOM     17  C   UNL     1       8.076   8.418  18.185  0.00  0.00    +0.000 C 
ATOM     18  O   UNL     1       8.617   7.592  18.911  0.00  0.00    +0.000 OA
ATOM     19  H   UNL     1       6.816   8.858  16.604  0.00  0.00    +0.000 HD
BRANCH  17  20
ATOM     20  C   UNL     1       8.622   9.801  18.213  0.00  0.00    +0.000 A 
ATOM     21  C   UNL     1       8.108  10.855  17.438  0.00  0.00    +0.000 A 
ATOM     22  C   UNL     1       8.638  12.148  17.564  0.00  0.00    +0.000 A 
ATOM     23  C   UNL     1       9.653  12.370  18.485  0.00  0.00    +0.000 A 
ATOM     24  C   UNL     1      10.136  11.336  19.281  0.00  0.00    +0.000 A 
ATOM     25  C   UNL     1       9.650  10.049  19.140  0.00  0.00    +0.000 A 
ATOM     26  C   UNL     1      11.174  11.806  20.247  0.00  0.00    +0.000 C 
ATOM     27  C   UNL     1      11.136  13.330  20.064  0.00  0.00    +0.000 C 
ATOM     28  C   UNL     1      10.392  13.641  18.755  0.00  0.00    +0.000 C 
ENDBRANCH  17  20
ENDBRANCH   5  16
TORSDOF 3
ENDMDL
MODEL 6
REMARK VINA RESULT:      -8.9      5.095      7.236
REMARK  Name = 
REMARK  4 active torsions:
REMARK  status: ('A' for Active; 'I' for Inactive)
REMARK    1  A    between atoms: C_1  and  C_2
REMARK    2  A    between atoms: C_7  and  C_8
REMARK    3  A    between atoms: C_12  and  N_13
REMARK    4  A    between atoms: C_14  and  C_16
REMARK                            x       y       z     vdW  Elec       q    Type
REMARK                         _______ _______ _______ _____ _____    ______ ____
ROOT
ATOM      1  C   UNL     1       3.892   4.887  18.622  0.00  0.00    +0.000 A 
ATOM      2  C   UNL     1       3.395   3.710  19.193  0.00  0.00    +0.000 A 
ATOM      3  C   UNL     1       2.360   3.765  20.111  0.00  0.00    +0.000 A 
ATOM      4  C   UNL     1       1.832   5.002  20.478  0.00  0.00    +0.000 A 
ATOM      5  C   UNL     1       2.341   6.198  19.949  0.00  0.00    +0.000 A 
ATOM      6  C   UNL     1       3.352   6.133  18.987  0.00  0.00    +0.000 A 
ENDROOT
BRANCH   1  13
ATOM      7  C   UNL     1       5.497   4.355  14.093  0.00  0.00    +0.000 C 
ATOM      8  C   UNL     1       5.851   4.434  15.552  0.00  0.00    +0.000 A 
ATOM      9  C   UNL     1       7.113   4.294  15.975  0.00  0.00    +0.000 A 
ATOM     10  C   UNL     1       7.370   4.381  17.418  0.00  0.00    +0.000 A 
ATOM     11  O   UNL     1       8.487   4.202  17.886  0.00  0.00    +0.000 OA
ATOM     12  N   UNL     1       6.284   4.654  18.192  0.00  0.00    +0.000 N 
ATOM     13  C   UNL     1       5.019   4.736  17.665  0.00  0.00    +0.000 A 
ATOM     14  N   UNL     1       4.786   4.636  16.394  0.00  0.00    +0.000 NA
ATOM     15  H   UNL     1       6.452   4.656  19.185  0.00  0.00    +0.000 HD
ENDBRANCH   1  13
BRANCH   5  16
ATOM     16  N   UNL     1       1.874   7.470  20.374  0.00  0.00    +0.000 N 
ATOM     17  C   UNL     1       1.544   8.511  19.512  0.00  0.00    +0.000 C 
ATOM     18  O   UNL     1       1.593   8.459  18.288  0.00  0.00    +0.000 OA
ATOM     19  H   UNL     1       1.602   7.558  21.346  0.00  0.00    +0.000 HD
BRANCH  17  20
ATOM     20  C   UNL     1       1.020   9.766  20.112  0.00  0.00    +0.000 A 
ATOM     21  C   UNL     1       1.125  11.025  19.495  0.00  0.00    +0.000 A 
ATOM     22  C   UNL     1       0.552  12.155  20.096  0.00  0.00    +0.000 A 
ATOM     23  C   UNL     1      -0.142  12.003  21.289  0.00  0.00    +0.000 A 
ATOM     24  C   UNL     1      -0.280  10.751  21.881  0.00  0.00    +0.000 A 
ATOM     25  C   UNL     1       0.312   9.635  21.321  0.00  0.00    +0.000 A 
ATOM     26  C   UNL     1      -1.117  10.802  23.117  0.00  0.00    +0.000 C 
ATOM     27  C   UNL     1      -1.640  12.246  23.109  0.00  0.00    +0.000 C 
ATOM     28  C   UNL     1      -0.787  13.062  22.124  0.00  0.00    +0.000 C 
ENDBRANCH  17  20
ENDBRANCH   5  16
TORSDOF 3
ENDMDL
MODEL 7
REMARK VINA RESULT:      -8.8      5.131      7.535
REMARK  Name = 
REMARK  4 active torsions:
REMARK  status: ('A' for Active; 'I' for Inactive)
REMARK    1  A    between atoms: C_1  and  C_2
REMARK    2  A    between atoms: C_7  and  C_8
REMARK    3  A    between atoms: C_12  and  N_13
REMARK    4  A    between atoms: C_14  and  C_16
REMARK                            x       y       z     vdW  Elec       q    Type
REMARK                         _______ _______ _______ _____ _____    ______ ____
ROOT
ATOM      1  C   UNL     1       3.865   4.876  19.039  0.00  0.00    +0.000 A 
ATOM      2  C   UNL     1       3.534   3.568  19.410  0.00  0.00    +0.000 A 
ATOM      3  C   UNL     1       2.490   3.337  20.288  0.00  0.00    +0.000 A 
ATOM      4  C   UNL     1       1.785   4.417  20.818  0.00  0.00    +0.000 A 
ATOM      5  C   UNL     1       2.124   5.739  20.492  0.00  0.00    +0.000 A 
ATOM      6  C   UNL     1       3.146   5.964  19.567  0.00  0.00    +0.000 A 
ENDROOT
BRANCH   1  13
ATOM      7  C   UNL     1       7.681   7.406  17.487  0.00  0.00    +0.000 C 
ATOM      8  C   UNL     1       6.806   6.200  17.288  0.00  0.00    +0.000 A 
ATOM      9  C   UNL     1       7.004   5.351  16.272  0.00  0.00    +0.000 A 
ATOM     10  C   UNL     1       6.100   4.200  16.149  0.00  0.00    +0.000 A 
ATOM     11  O   UNL     1       6.179   3.416  15.213  0.00  0.00    +0.000 OA
ATOM     12  N   UNL     1       5.165   4.081  17.132  0.00  0.00    +0.000 N 
ATOM     13  C   UNL     1       5.014   5.033  18.110  0.00  0.00    +0.000 A 
ATOM     14  N   UNL     1       5.795   6.062  18.206  0.00  0.00    +0.000 NA
ATOM     15  H   UNL     1       4.510   3.325  17.014  0.00  0.00    +0.000 HD
ENDBRANCH   1  13
BRANCH   5  16
ATOM     16  N   UNL     1       1.474   6.852  21.086  0.00  0.00    +0.000 N 
ATOM     17  C   UNL     1       1.356   8.102  20.485  0.00  0.00    +0.000 C 
ATOM     18  O   UNL     1       1.774   8.394  19.371  0.00  0.00    +0.000 OA
ATOM     19  H   UNL     1       0.917   6.671  21.913  0.00  0.00    +0.000 HD
BRANCH  17  20
ATOM     20  C   UNL     1       0.600   9.153  21.217  0.00  0.00    +0.000 A 
ATOM     21  C   UNL     1      -0.095   8.916  22.416  0.00  0.00    +0.000 A 
ATOM     22  C   UNL     1      -0.735   9.973  23.081  0.00  0.00    +0.000 A 
ATOM     23  C   UNL     1      -0.644  11.253  22.551  0.00  0.00    +0.000 A 
ATOM     24  C   UNL     1       0.077  11.495  21.386  0.00  0.00    +0.000 A 
ATOM     25  C   UNL     1       0.680  10.458  20.699  0.00  0.00    +0.000 A 
ATOM     26  C   UNL     1       0.103  12.946  21.031  0.00  0.00    +0.000 C 
ATOM     27  C   UNL     1      -0.555  13.602  22.253  0.00  0.00    +0.000 C 
ATOM     28  C   UNL     1      -1.278  12.509  23.058  0.00  0.00    +0.000 C 
ENDBRANCH  17  20
ENDBRANCH   5  16
TORSDOF 3
ENDMDL
MODEL 8
REMARK VINA RESULT:      -8.8      5.252      7.423
REMARK  Name = 
REMARK  4 active torsions:
REMARK  status: ('A' for Active; 'I' for Inactive)
REMARK    1  A    between atoms: C_1  and  C_2
REMARK    2  A    between atoms: C_7  and  C_8
REMARK    3  A    between atoms: C_12  and  N_13
REMARK    4  A    between atoms: C_14  and  C_16
REMARK                            x       y       z     vdW  Elec       q    Type
REMARK                         _______ _______ _______ _____ _____    ______ ____
ROOT
ATOM      1  C   UNL     1       5.710   4.964  16.200  0.00  0.00    +0.000 A 
ATOM      2  C   UNL     1       6.243   4.105  17.168  0.00  0.00    +0.000 A 
ATOM      3  C   UNL     1       5.849   4.215  18.489  0.00  0.00    +0.000 A 
ATOM      4  C   UNL     1       4.934   5.203  18.854  0.00  0.00    +0.000 A 
ATOM      5  C   UNL     1       4.416   6.101  17.909  0.00  0.00    +0.000 A 
ATOM      6  C   UNL     1       4.780   5.953  16.569  0.00  0.00    +0.000 A 
ENDROOT
BRANCH   1  13
ATOM      7  C   UNL     1       5.445   2.769  11.901  0.00  0.00    +0.000 C 
ATOM      8  C   UNL     1       6.174   3.760  12.765  0.00  0.00    +0.000 A 
ATOM      9  C   UNL     1       7.269   4.396  12.329  0.00  0.00    +0.000 A 
ATOM     10  C   UNL     1       7.922   5.345  13.240  0.00  0.00    +0.000 A 
ATOM     11  O   UNL     1       8.961   5.918  12.937  0.00  0.00    +0.000 OA
ATOM     12  N   UNL     1       7.305   5.526  14.440  0.00  0.00    +0.000 N 
ATOM     13  C   UNL     1       6.207   4.790  14.811  0.00  0.00    +0.000 A 
ATOM     14  N   UNL     1       5.643   3.934  14.018  0.00  0.00    +0.000 NA
ATOM     15  H   UNL     1       7.786   6.133  15.083  0.00  0.00    +0.000 HD
ENDBRANCH   1  13
BRANCH   5  16
ATOM     16  N   UNL     1       3.550   7.165  18.276  0.00  0.00    +0.000 N 
ATOM     17  C   UNL     1       2.518   7.050  19.202  0.00  0.00    +0.000 C 
ATOM     18  O   UNL     1       2.241   6.035  19.830  0.00  0.00    +0.000 OA
ATOM     19  H   UNL     1       3.813   8.096  17.974  0.00  0.00    +0.000 HD
BRANCH  17  20
ATOM     20  C   UNL     1       1.731   8.273  19.515  0.00  0.00    +0.000 A 
ATOM     21  C   UNL     1       1.306   9.192  18.542  0.00  0.00    +0.000 A 
ATOM     22  C   UNL     1       0.514  10.291  18.906  0.00  0.00    +0.000 A 
ATOM     23  C   UNL     1       0.136  10.435  20.235  0.00  0.00    +0.000 A 
ATOM     24  C   UNL     1       0.523   9.503  21.193  0.00  0.00    +0.000 A 
ATOM     25  C   UNL     1       1.336   8.437  20.855  0.00  0.00    +0.000 A 
ATOM     26  C   UNL     1      -0.046   9.810  22.540  0.00  0.00    +0.000 C 
ATOM     27  C   UNL     1      -1.003  10.973  22.241  0.00  0.00    +0.000 C 
ATOM     28  C   UNL     1      -0.658  11.540  20.855  0.00  0.00    +0.000 C 
ENDBRANCH  17  20
ENDBRANCH   5  16
TORSDOF 3
ENDMDL
MODEL 9
REMARK VINA RESULT:      -8.8      6.565      9.258
REMARK  Name = 
REMARK  4 active torsions:
REMARK  status: ('A' for Active; 'I' for Inactive)
REMARK    1  A    between atoms: C_1  and  C_2
REMARK    2  A    between atoms: C_7  and  C_8
REMARK    3  A    between atoms: C_12  and  N_13
REMARK    4  A    between atoms: C_14  and  C_16
REMARK                            x       y       z     vdW  Elec       q    Type
REMARK                         _______ _______ _______ _____ _____    ______ ____
ROOT
ATOM      1  C   UNL     1      -0.812  10.427  18.364  0.00  0.00    +0.000 A 
ATOM      2  C   UNL     1      -0.576  11.013  19.613  0.00  0.00    +0.000 A 
ATOM      3  C   UNL     1       0.573  10.704  20.320  0.00  0.00    +0.000 A 
ATOM      4  C   UNL     1       1.483   9.789  19.789  0.00  0.00    +0.000 A 
ATOM      5  C   UNL     1       1.248   9.160  18.557  0.00  0.00    +0.000 A 
ATOM      6  C   UNL     1       0.111   9.512  17.826  0.00  0.00    +0.000 A 
ENDROOT
BRANCH   1  13
ATOM      7  C   UNL     1      -5.365  12.037  18.590  0.00  0.00    +0.000 C 
ATOM      8  C   UNL     1      -4.260  11.506  17.720  0.00  0.00    +0.000 A 
ATOM      9  C   UNL     1      -4.439  11.300  16.409  0.00  0.00    +0.000 A 
ATOM     10  C   UNL     1      -3.307  10.776  15.634  0.00  0.00    +0.000 A 
ATOM     11  O   UNL     1      -3.412  10.503  14.445  0.00  0.00    +0.000 OA
ATOM     12  N   UNL     1      -2.151  10.598  16.330  0.00  0.00    +0.000 N 
ATOM     13  C   UNL     1      -2.082  10.797  17.687  0.00  0.00    +0.000 A 
ATOM     14  N   UNL     1      -3.086  11.237  18.378  0.00  0.00    +0.000 NA
ATOM     15  H   UNL     1      -1.395  10.184  15.810  0.00  0.00    +0.000 HD
ENDBRANCH   1  13
BRANCH   5  16
ATOM     16  N   UNL     1       2.119   8.165  18.041  0.00  0.00    +0.000 N 
ATOM     17  C   UNL     1       2.520   7.034  18.746  0.00  0.00    +0.000 C 
ATOM     18  O   UNL     1       2.161   6.743  19.881  0.00  0.00    +0.000 OA
ATOM     19  H   UNL     1       2.314   8.195  17.047  0.00  0.00    +0.000 HD
BRANCH  17  20
ATOM     20  C   UNL     1       3.397   6.058  18.046  0.00  0.00    +0.000 A 
ATOM     21  C   UNL     1       3.329   4.669  18.249  0.00  0.00    +0.000 A 
ATOM     22  C   UNL     1       4.149   3.806  17.505  0.00  0.00    +0.000 A 
ATOM     23  C   UNL     1       5.001   4.346  16.552  0.00  0.00    +0.000 A 
ATOM     24  C   UNL     1       5.042   5.718  16.323  0.00  0.00    +0.000 A 
ATOM     25  C   UNL     1       4.268   6.583  17.075  0.00  0.00    +0.000 A 
ATOM     26  C   UNL     1       5.974   6.077  15.212  0.00  0.00    +0.000 C 
ATOM     27  C   UNL     1       6.372   4.704  14.653  0.00  0.00    +0.000 C 
ATOM     28  C   UNL     1       5.988   3.631  15.685  0.00  0.00    +0.000 C 
ENDBRANCH  17  20
ENDBRANCH   5  16
TORSDOF 3
ENDMDL
