MODEL 1
REMARK VINA RESULT:      -9.8      0.000      0.000
REMARK  Name = 
REMARK  6 active torsions:
REMARK  status: ('A' for Active; 'I' for Inactive)
REMARK    1  A    between atoms: C_1  and  C_2
REMARK    2  A    between atoms: C_6  and  C_7
REMARK    3  A    between atoms: N_13  and  C_14
REMARK    4  A    between atoms: C_18  and  C_19
REMARK    5  A    between atoms: C_19  and  C_20
REMARK    6  A    between atoms: N_24  and  C_25
REMARK                            x       y       z     vdW  Elec       q    Type
REMARK                         _______ _______ _______ _____ _____    ______ ____
ROOT
ATOM      1  C   UNL     1       2.459   6.707  18.689  0.00  0.00    +0.000 A 
ATOM      2  C   UNL     1       1.909   5.461  19.011  0.00  0.00    +0.000 A 
ATOM      3  C   UNL     1       2.472   4.275  18.554  0.00  0.00    +0.000 A 
ATOM      4  C   UNL     1       3.631   4.312  17.795  0.00  0.00    +0.000 A 
ATOM      5  C   UNL     1       4.281   5.526  17.493  0.00  0.00    +0.000 A 
ATOM      6  C   UNL     1       3.637   6.718  17.919  0.00  0.00    +0.000 A 
ENDROOT
BRANCH   1  15
ATOM      7  C   UNL     1      -0.499  13.475  19.489  0.00  0.00    +0.000 C 
ATOM      8  C   UNL     1      -0.061  12.081  19.829  0.00  0.00    +0.000 A 
ATOM      9  C   UNL     1       0.636  11.325  18.890  0.00  0.00    +0.000 A 
ATOM     10  C   UNL     1       1.009  10.042  19.243  0.00  0.00    +0.000 A 
ATOM     11  C   UNL     1       0.734   9.464  20.476  0.00  0.00    +0.000 A 
ATOM     12  C   UNL     1       0.055  10.204  21.440  0.00  0.00    +0.000 A 
ATOM     13  C   UNL     1      -0.340  11.521  21.095  0.00  0.00    +0.000 A 
ATOM     14  C   UNL     1       1.267   8.059  20.485  0.00  0.00    +0.000 C 
ATOM     15  N   UNL     1       1.857   7.909  19.157  0.00  0.00    +0.000 N 
ATOM     16  C   UNL     1       1.725   9.083  18.411  0.00  0.00    +0.000 C 
ATOM     17  O   UNL     1       2.081   9.379  17.287  0.00  0.00    +0.000 OA
BRANCH  12  18
ATOM     18  C   UNL     1      -0.264   9.671  22.812  0.00  0.00    +0.000 C 
ATOM     19  F   UNL     1      -0.921   8.478  22.796  0.00  0.00    +0.000 F 
ATOM     20  F   UNL     1       0.853   9.472  23.563  0.00  0.00    +0.000 F 
ATOM     21  F   UNL     1      -1.052  10.518  23.530  0.00  0.00    +0.000 F 
ENDBRANCH  12  18
ENDBRANCH   1  15
BRANCH   5  22
ATOM     22  C   UNL     1       5.723   5.503  16.786  0.00  0.00    +0.000 C 
ATOM     23  C   UNL     1       5.694   5.540  15.223  0.00  0.00    +0.000 C 
ATOM     24  O   UNL     1       6.610   4.425  15.127  0.00  0.00    +0.000 OA
ATOM     25  C   UNL     1       6.360   4.109  16.518  0.00  0.00    +0.000 C 
BRANCH  22  26
ATOM     26  C   UNL     1       6.716   6.539  17.375  0.00  0.00    +0.000 A 
ATOM     27  N   UNL     1       6.996   7.671  16.756  0.00  0.00    +0.000 NA
ATOM     28  N   UNL     1       7.978   8.325  17.456  0.00  0.00    +0.000 NA
ATOM     29  C   UNL     1       8.278   7.588  18.496  0.00  0.00    +0.000 A 
ATOM     30  N   UNL     1       7.483   6.480  18.518  0.00  0.00    +0.000 N 
ATOM     31  C   UNL     1       7.518   5.483  19.555  0.00  0.00    +0.000 C 
ENDBRANCH  22  26
ENDBRANCH   5  22
TORSDOF 4
ENDMDL
MODEL 2
REMARK VINA RESULT:      -9.5      0.726      1.400
REMARK  Name = 
REMARK  6 active torsions:
REMARK  status: ('A' for Active; 'I' for Inactive)
REMARK    1  A    between atoms: C_1  and  C_2
REMARK    2  A    between atoms: C_6  and  C_7
REMARK    3  A    between atoms: N_13  and  C_14
REMARK    4  A    between atoms: C_18  and  C_19
REMARK    5  A    between atoms: C_19  and  C_20
REMARK    6  A    between atoms: N_24  and  C_25
REMARK                            x       y       z     vdW  Elec       q    Type
REMARK                         _______ _______ _______ _____ _____    ______ ____
ROOT
ATOM      1  C   UNL     1       2.421   6.465  18.506  0.00  0.00    +0.000 A 
ATOM      2  C   UNL     1       1.723   5.274  18.734  0.00  0.00    +0.000 A 
ATOM      3  C   UNL     1       2.186   4.054  18.253  0.00  0.00    +0.000 A 
ATOM      4  C   UNL     1       3.388   3.998  17.566  0.00  0.00    +0.000 A 
ATOM      5  C   UNL     1       4.180   5.146  17.362  0.00  0.00    +0.000 A 
ATOM      6  C   UNL     1       3.640   6.381  17.808  0.00  0.00    +0.000 A 
ENDROOT
BRANCH   1  15
ATOM      7  C   UNL     1       0.022  13.436  19.431  0.00  0.00    +0.000 C 
ATOM      8  C   UNL     1       0.349  12.006  19.747  0.00  0.00    +0.000 A 
ATOM      9  C   UNL     1       0.977  11.211  18.791  0.00  0.00    +0.000 A 
ATOM     10  C   UNL     1       1.248   9.897  19.122  0.00  0.00    +0.000 A 
ATOM     11  C   UNL     1       0.934   9.323  20.348  0.00  0.00    +0.000 A 
ATOM     12  C   UNL     1       0.323  10.101  21.328  0.00  0.00    +0.000 A 
ATOM     13  C   UNL     1       0.033  11.450  21.007  0.00  0.00    +0.000 A 
ATOM     14  C   UNL     1       1.353   7.880  20.332  0.00  0.00    +0.000 C 
ATOM     15  N   UNL     1       1.921   7.704  18.998  0.00  0.00    +0.000 N 
ATOM     16  C   UNL     1       1.879   8.896  18.270  0.00  0.00    +0.000 C 
ATOM     17  O   UNL     1       2.251   9.181  17.148  0.00  0.00    +0.000 OA
BRANCH  12  18
ATOM     18  C   UNL     1      -0.029   9.573  22.694  0.00  0.00    +0.000 C 
ATOM     19  F   UNL     1      -0.686  10.475  23.475  0.00  0.00    +0.000 F 
ATOM     20  F   UNL     1      -0.832   8.477  22.635  0.00  0.00    +0.000 F 
ATOM     21  F   UNL     1       1.068   9.198  23.406  0.00  0.00    +0.000 F 
ENDBRANCH  12  18
ENDBRANCH   1  15
BRANCH   5  22
ATOM     22  C   UNL     1       5.654   4.997  16.740  0.00  0.00    +0.000 C 
ATOM     23  C   UNL     1       5.855   5.679  15.348  0.00  0.00    +0.000 C 
ATOM     24  O   UNL     1       6.461   4.490  14.793  0.00  0.00    +0.000 OA
ATOM     25  C   UNL     1       5.946   3.717  15.904  0.00  0.00    +0.000 C 
BRANCH  22  26
ATOM     26  C   UNL     1       6.785   5.362  17.737  0.00  0.00    +0.000 A 
ATOM     27  N   UNL     1       7.325   4.466  18.542  0.00  0.00    +0.000 NA
ATOM     28  N   UNL     1       8.212   5.099  19.375  0.00  0.00    +0.000 NA
ATOM     29  C   UNL     1       8.207   6.371  19.061  0.00  0.00    +0.000 A 
ATOM     30  N   UNL     1       7.365   6.581  18.010  0.00  0.00    +0.000 N 
ATOM     31  C   UNL     1       7.162   7.860  17.383  0.00  0.00    +0.000 C 
ENDBRANCH  22  26
ENDBRANCH   5  22
TORSDOF 4
ENDMDL
MODEL 3
REMARK VINA RESULT:      -9.1      2.116      2.750
REMARK  Name = 
REMARK  6 active torsions:
REMARK  status: ('A' for Active; 'I' for Inactive)
REMARK    1  A    between atoms: C_1  and  C_2
REMARK    2  A    between atoms: C_6  and  C_7
REMARK    3  A    between atoms: N_13  and  C_14
REMARK    4  A    between atoms: C_18  and  C_19
REMARK    5  A    between atoms: C_19  and  C_20
REMARK    6  A    between atoms: N_24  and  C_25
REMARK                            x       y       z     vdW  Elec       q    Type
REMARK                         _______ _______ _______ _____ _____    ______ ____
ROOT
ATOM      1  C   UNL     1       2.822   6.212  18.321  0.00  0.00    +0.000 A 
ATOM      2  C   UNL     1       2.262   4.938  18.170  0.00  0.00    +0.000 A 
ATOM      3  C   UNL     1       2.909   3.936  17.456  0.00  0.00    +0.000 A 
ATOM      4  C   UNL     1       4.160   4.179  16.911  0.00  0.00    +0.000 A 
ATOM      5  C   UNL     1       4.817   5.414  17.084  0.00  0.00    +0.000 A 
ATOM      6  C   UNL     1       4.094   6.432  17.760  0.00  0.00    +0.000 A 
ENDROOT
BRANCH   1  15
ATOM      7  C   UNL     1      -0.736  10.334  23.375  0.00  0.00    +0.000 C 
ATOM      8  C   UNL     1      -0.058   9.957  22.091  0.00  0.00    +0.000 A 
ATOM      9  C   UNL     1       0.385   8.650  21.899  0.00  0.00    +0.000 A 
ATOM     10  C   UNL     1       1.015   8.351  20.706  0.00  0.00    +0.000 A 
ATOM     11  C   UNL     1       1.230   9.273  19.688  0.00  0.00    +0.000 A 
ATOM     12  C   UNL     1       0.781  10.581  19.846  0.00  0.00    +0.000 A 
ATOM     13  C   UNL     1       0.136  10.908  21.065  0.00  0.00    +0.000 A 
ATOM     14  C   UNL     1       1.963   8.594  18.565  0.00  0.00    +0.000 C 
ATOM     15  N   UNL     1       2.134   7.226  19.045  0.00  0.00    +0.000 N 
ATOM     16  C   UNL     1       1.565   7.060  20.310  0.00  0.00    +0.000 C 
ATOM     17  O   UNL     1       1.479   6.096  21.046  0.00  0.00    +0.000 OA
BRANCH  12  18
ATOM     18  C   UNL     1       0.946  11.640  18.788  0.00  0.00    +0.000 C 
ATOM     19  F   UNL     1      -0.080  11.683  17.893  0.00  0.00    +0.000 F 
ATOM     20  F   UNL     1       1.033  12.891  19.316  0.00  0.00    +0.000 F 
ATOM     21  F   UNL     1       2.075  11.466  18.048  0.00  0.00    +0.000 F 
ENDBRANCH  12  18
ENDBRANCH   1  15
BRANCH   5  22
ATOM     22  C   UNL     1       6.343   5.579  16.609  0.00  0.00    +0.000 C 
ATOM     23  C   UNL     1       6.544   5.698  15.064  0.00  0.00    +0.000 C 
ATOM     24  O   UNL     1       7.582   4.691  15.068  0.00  0.00    +0.000 OA
ATOM     25  C   UNL     1       7.162   4.274  16.389  0.00  0.00    +0.000 C 
BRANCH  22  26
ATOM     26  C   UNL     1       7.116   6.678  17.384  0.00  0.00    +0.000 A 
ATOM     27  N   UNL     1       7.282   7.893  16.897  0.00  0.00    +0.000 NA
ATOM     28  N   UNL     1       8.091   8.603  17.748  0.00  0.00    +0.000 NA
ATOM     29  C   UNL     1       8.399   7.814  18.747  0.00  0.00    +0.000 A 
ATOM     30  N   UNL     1       7.776   6.611  18.592  0.00  0.00    +0.000 N 
ATOM     31  C   UNL     1       7.861   5.531  19.538  0.00  0.00    +0.000 C 
ENDBRANCH  22  26
ENDBRANCH   5  22
TORSDOF 4
ENDMDL
MODEL 4
REMARK VINA RESULT:      -9.0      3.524      8.513
REMARK  Name = 
REMARK  6 active torsions:
REMARK  status: ('A' for Active; 'I' for Inactive)
REMARK    1  A    between atoms: C_1  and  C_2
REMARK    2  A    between atoms: C_6  and  C_7
REMARK    3  A    between atoms: N_13  and  C_14
REMARK    4  A    between atoms: C_18  and  C_19
REMARK    5  A    between atoms: C_19  and  C_20
REMARK    6  A    between atoms: N_24  and  C_25
REMARK                            x       y       z     vdW  Elec       q    Type
REMARK                         _______ _______ _______ _____ _____    ______ ____
ROOT
ATOM      1  C   UNL     1       0.756   8.998  20.756  0.00  0.00    +0.000 A 
ATOM      2  C   UNL     1       0.487   9.042  22.129  0.00  0.00    +0.000 A 
ATOM      3  C   UNL     1      -0.149  10.132  22.713  0.00  0.00    +0.000 A 
ATOM      4  C   UNL     1      -0.570  11.188  21.920  0.00  0.00    +0.000 A 
ATOM      5  C   UNL     1      -0.397  11.179  20.521  0.00  0.00    +0.000 A 
ATOM      6  C   UNL     1       0.317  10.081  19.973  0.00  0.00    +0.000 A 
ENDROOT
BRANCH   1  15
ATOM      7  C   UNL     1       4.910   4.343  16.722  0.00  0.00    +0.000 C 
ATOM      8  C   UNL     1       3.986   4.833  17.798  0.00  0.00    +0.000 A 
ATOM      9  C   UNL     1       3.569   6.162  17.801  0.00  0.00    +0.000 A 
ATOM     10  C   UNL     1       2.728   6.571  18.819  0.00  0.00    +0.000 A 
ATOM     11  C   UNL     1       2.272   5.739  19.834  0.00  0.00    +0.000 A 
ATOM     12  C   UNL     1       2.659   4.401  19.843  0.00  0.00    +0.000 A 
ATOM     13  C   UNL     1       3.525   3.963  18.810  0.00  0.00    +0.000 A 
ATOM     14  C   UNL     1       1.405   6.537  20.765  0.00  0.00    +0.000 C 
ATOM     15  N   UNL     1       1.420   7.877  20.183  0.00  0.00    +0.000 N 
ATOM     16  C   UNL     1       2.190   7.912  19.018  0.00  0.00    +0.000 C 
ATOM     17  O   UNL     1       2.449   8.808  18.238  0.00  0.00    +0.000 OA
BRANCH  12  18
ATOM     18  C   UNL     1       2.194   3.419  20.886  0.00  0.00    +0.000 C 
ATOM     19  F   UNL     1       2.428   3.828  22.164  0.00  0.00    +0.000 F 
ATOM     20  F   UNL     1       0.857   3.178  20.811  0.00  0.00    +0.000 F 
ATOM     21  F   UNL     1       2.802   2.207  20.768  0.00  0.00    +0.000 F 
ENDBRANCH  12  18
ENDBRANCH   1  15
BRANCH   5  22
ATOM     22  C   UNL     1      -1.079  12.327  19.627  0.00  0.00    +0.000 C 
ATOM     23  C   UNL     1      -0.160  12.933  18.516  0.00  0.00    +0.000 C 
ATOM     24  O   UNL     1      -0.480  14.285  18.914  0.00  0.00    +0.000 OA
ATOM     25  C   UNL     1      -1.006  13.785  20.167  0.00  0.00    +0.000 C 
BRANCH  22  26
ATOM     26  C   UNL     1      -2.475  11.935  19.078  0.00  0.00    +0.000 A 
ATOM     27  N   UNL     1      -3.591  12.426  19.585  0.00  0.00    +0.000 NA
ATOM     28  N   UNL     1      -4.658  11.819  18.974  0.00  0.00    +0.000 NA
ATOM     29  C   UNL     1      -4.180  10.973  18.097  0.00  0.00    +0.000 A 
ATOM     30  N   UNL     1      -2.818  11.040  18.088  0.00  0.00    +0.000 N 
ATOM     31  C   UNL     1      -1.979  10.276  17.204  0.00  0.00    +0.000 C 
ENDBRANCH  22  26
ENDBRANCH   5  22
TORSDOF 4
ENDMDL
MODEL 5
REMARK VINA RESULT:      -8.9      2.386      4.026
REMARK  Name = 
REMARK  6 active torsions:
REMARK  status: ('A' for Active; 'I' for Inactive)
REMARK    1  A    between atoms: C_1  and  C_2
REMARK    2  A    between atoms: C_6  and  C_7
REMARK    3  A    between atoms: N_13  and  C_14
REMARK    4  A    between atoms: C_18  and  C_19
REMARK    5  A    between atoms: C_19  and  C_20
REMARK    6  A    between atoms: N_24  and  C_25
REMARK                            x       y       z     vdW  Elec       q    Type
REMARK                         _______ _______ _______ _____ _____    ______ ____
ROOT
ATOM      1  C   UNL     1       2.921   7.154  18.423  0.00  0.00    +0.000 A 
ATOM      2  C   UNL     1       3.848   7.394  17.401  0.00  0.00    +0.000 A 
ATOM      3  C   UNL     1       4.650   6.380  16.891  0.00  0.00    +0.000 A 
ATOM      4  C   UNL     1       4.508   5.086  17.367  0.00  0.00    +0.000 A 
ATOM      5  C   UNL     1       3.546   4.756  18.343  0.00  0.00    +0.000 A 
ATOM      6  C   UNL     1       2.795   5.831  18.887  0.00  0.00    +0.000 A 
ENDROOT
BRANCH   1  15
ATOM      7  C   UNL     1      -1.157  13.270  19.498  0.00  0.00    +0.000 C 
ATOM      8  C   UNL     1      -0.489  11.956  19.778  0.00  0.00    +0.000 A 
ATOM      9  C   UNL     1       0.334  11.377  18.815  0.00  0.00    +0.000 A 
ATOM     10  C   UNL     1       0.918  10.161  19.112  0.00  0.00    +0.000 A 
ATOM     11  C   UNL     1       0.736   9.483  20.312  0.00  0.00    +0.000 A 
ATOM     12  C   UNL     1      -0.068  10.048  21.298  0.00  0.00    +0.000 A 
ATOM     13  C   UNL     1      -0.679  11.294  21.011  0.00  0.00    +0.000 A 
ATOM     14  C   UNL     1       1.501   8.191  20.262  0.00  0.00    +0.000 C 
ATOM     15  N   UNL     1       2.120   8.210  18.938  0.00  0.00    +0.000 N 
ATOM     16  C   UNL     1       1.795   9.380  18.247  0.00  0.00    +0.000 C 
ATOM     17  O   UNL     1       2.104   9.789  17.145  0.00  0.00    +0.000 OA
BRANCH  12  18
ATOM     18  C   UNL     1      -0.302   9.400  22.638  0.00  0.00    +0.000 C 
ATOM     19  F   UNL     1      -1.097  10.131  23.467  0.00  0.00    +0.000 F 
ATOM     20  F   UNL     1      -0.898   8.182  22.527  0.00  0.00    +0.000 F 
ATOM     21  F   UNL     1       0.855   9.190  23.324  0.00  0.00    +0.000 F 
ENDBRANCH  12  18
ENDBRANCH   1  15
BRANCH   5  22
ATOM     22  C   UNL     1       3.283   3.215  18.714  0.00  0.00    +0.000 C 
ATOM     23  C   UNL     1       4.503   2.263  18.489  0.00  0.00    +0.000 C 
ATOM     24  O   UNL     1       3.692   1.309  17.766  0.00  0.00    +0.000 OA
ATOM     25  C   UNL     1       2.662   2.314  17.607  0.00  0.00    +0.000 C 
BRANCH  22  26
ATOM     26  C   UNL     1       2.640   3.017  20.112  0.00  0.00    +0.000 A 
ATOM     27  N   UNL     1       3.360   2.721  21.179  0.00  0.00    +0.000 NA
ATOM     28  N   UNL     1       2.513   2.502  22.235  0.00  0.00    +0.000 NA
ATOM     29  C   UNL     1       1.290   2.676  21.802  0.00  0.00    +0.000 A 
ATOM     30  N   UNL     1       1.316   3.047  20.489  0.00  0.00    +0.000 N 
ATOM     31  C   UNL     1       0.144   3.365  19.718  0.00  0.00    +0.000 C 
ENDBRANCH  22  26
ENDBRANCH   5  22
TORSDOF 4
ENDMDL
MODEL 6
REMARK VINA RESULT:      -8.9      3.531      8.584
REMARK  Name = 
REMARK  6 active torsions:
REMARK  status: ('A' for Active; 'I' for Inactive)
REMARK    1  A    between atoms: C_1  and  C_2
REMARK    2  A    between atoms: C_6  and  C_7
REMARK    3  A    between atoms: N_13  and  C_14
REMARK    4  A    between atoms: C_18  and  C_19
REMARK    5  A    between atoms: C_19  and  C_20
REMARK    6  A    between atoms: N_24  and  C_25
REMARK                            x       y       z     vdW  Elec       q    Type
REMARK                         _______ _______ _______ _____ _____    ______ ____
ROOT
ATOM      1  C   UNL     1       0.799   9.006  20.767  0.00  0.00    +0.000 A 
ATOM      2  C   UNL     1       0.517   9.039  22.137  0.00  0.00    +0.000 A 
ATOM      3  C   UNL     1      -0.098  10.137  22.729  0.00  0.00    +0.000 A 
ATOM      4  C   UNL     1      -0.483  11.214  21.946  0.00  0.00    +0.000 A 
ATOM      5  C   UNL     1      -0.297  11.219  20.549  0.00  0.00    +0.000 A 
ATOM      6  C   UNL     1       0.395  10.111  19.993  0.00  0.00    +0.000 A 
ENDROOT
BRANCH   1  15
ATOM      7  C   UNL     1       4.852   4.298  16.692  0.00  0.00    +0.000 C 
ATOM      8  C   UNL     1       3.942   4.799  17.774  0.00  0.00    +0.000 A 
ATOM      9  C   UNL     1       3.549   6.135  17.786  0.00  0.00    +0.000 A 
ATOM     10  C   UNL     1       2.720   6.555  18.809  0.00  0.00    +0.000 A 
ATOM     11  C   UNL     1       2.253   5.726  19.822  0.00  0.00    +0.000 A 
ATOM     12  C   UNL     1       2.616   4.381  19.823  0.00  0.00    +0.000 A 
ATOM     13  C   UNL     1       3.470   3.933  18.785  0.00  0.00    +0.000 A 
ATOM     14  C   UNL     1       1.404   6.535  20.761  0.00  0.00    +0.000 C 
ATOM     15  N   UNL     1       1.441   7.877  20.185  0.00  0.00    +0.000 N 
ATOM     16  C   UNL     1       2.206   7.904  19.017  0.00  0.00    +0.000 C 
ATOM     17  O   UNL     1       2.477   8.799  18.240  0.00  0.00    +0.000 OA
BRANCH  12  18
ATOM     18  C   UNL     1       2.138   3.403  20.864  0.00  0.00    +0.000 C 
ATOM     19  F   UNL     1       0.790   3.210  20.855  0.00  0.00    +0.000 F 
ATOM     20  F   UNL     1       2.692   2.170  20.708  0.00  0.00    +0.000 F 
ATOM     21  F   UNL     1       2.448   3.796  22.130  0.00  0.00    +0.000 F 
ENDBRANCH  12  18
ENDBRANCH   1  15
BRANCH   5  22
ATOM     22  C   UNL     1      -0.940  12.396  19.663  0.00  0.00    +0.000 C 
ATOM     23  C   UNL     1      -0.018  12.947  18.527  0.00  0.00    +0.000 C 
ATOM     24  O   UNL     1      -0.259  14.316  18.923  0.00  0.00    +0.000 OA
ATOM     25  C   UNL     1      -0.779  13.851  20.192  0.00  0.00    +0.000 C 
BRANCH  22  26
ATOM     26  C   UNL     1      -2.368  12.073  19.150  0.00  0.00    +0.000 A 
ATOM     27  N   UNL     1      -2.583  11.570  17.949  0.00  0.00    +0.000 NA
ATOM     28  N   UNL     1      -3.936  11.495  17.738  0.00  0.00    +0.000 NA
ATOM     29  C   UNL     1      -4.528  11.944  18.817  0.00  0.00    +0.000 A 
ATOM     30  N   UNL     1      -3.590  12.275  19.750  0.00  0.00    +0.000 N 
ATOM     31  C   UNL     1      -3.902  12.756  21.070  0.00  0.00    +0.000 C 
ENDBRANCH  22  26
ENDBRANCH   5  22
TORSDOF 4
ENDMDL
MODEL 7
REMARK VINA RESULT:      -8.8      1.428      2.265
REMARK  Name = 
REMARK  6 active torsions:
REMARK  status: ('A' for Active; 'I' for Inactive)
REMARK    1  A    between atoms: C_1  and  C_2
REMARK    2  A    between atoms: C_6  and  C_7
REMARK    3  A    between atoms: N_13  and  C_14
REMARK    4  A    between atoms: C_18  and  C_19
REMARK    5  A    between atoms: C_19  and  C_20
REMARK    6  A    between atoms: N_24  and  C_25
REMARK                            x       y       z     vdW  Elec       q    Type
REMARK                         _______ _______ _______ _____ _____    ______ ____
ROOT
ATOM      1  C   UNL     1       2.626   6.747  18.566  0.00  0.00    +0.000 A 
ATOM      2  C   UNL     1       1.892   5.564  18.420  0.00  0.00    +0.000 A 
ATOM      3  C   UNL     1       2.478   4.395  17.948  0.00  0.00    +0.000 A 
ATOM      4  C   UNL     1       3.832   4.376  17.652  0.00  0.00    +0.000 A 
ATOM      5  C   UNL     1       4.649   5.508  17.844  0.00  0.00    +0.000 A 
ATOM      6  C   UNL     1       4.000   6.700  18.262  0.00  0.00    +0.000 A 
ENDROOT
BRANCH   1  15
ATOM      7  C   UNL     1      -0.463  13.452  19.390  0.00  0.00    +0.000 C 
ATOM      8  C   UNL     1       0.003  12.067  19.725  0.00  0.00    +0.000 A 
ATOM      9  C   UNL     1       0.713  11.327  18.783  0.00  0.00    +0.000 A 
ATOM     10  C   UNL     1       1.112  10.051  19.132  0.00  0.00    +0.000 A 
ATOM     11  C   UNL     1       0.849   9.463  20.364  0.00  0.00    +0.000 A 
ATOM     12  C   UNL     1       0.157  10.187  21.331  0.00  0.00    +0.000 A 
ATOM     13  C   UNL     1      -0.264  11.497  20.990  0.00  0.00    +0.000 A 
ATOM     14  C   UNL     1       1.410   8.069  20.368  0.00  0.00    +0.000 C 
ATOM     15  N   UNL     1       2.002   7.935  19.039  0.00  0.00    +0.000 N 
ATOM     16  C   UNL     1       1.846   9.108  18.297  0.00  0.00    +0.000 C 
ATOM     17  O   UNL     1       2.195   9.415  17.173  0.00  0.00    +0.000 OA
BRANCH  12  18
ATOM     18  C   UNL     1      -0.150   9.644  22.701  0.00  0.00    +0.000 C 
ATOM     19  F   UNL     1       0.959   9.327  23.424  0.00  0.00    +0.000 F 
ATOM     20  F   UNL     1      -0.852  10.526  23.463  0.00  0.00    +0.000 F 
ATOM     21  F   UNL     1      -0.899   8.508  22.655  0.00  0.00    +0.000 F 
ENDBRANCH  12  18
ENDBRANCH   1  15
BRANCH   5  22
ATOM     22  C   UNL     1       6.242   5.379  17.680  0.00  0.00    +0.000 C 
ATOM     23  C   UNL     1       6.933   4.403  18.687  0.00  0.00    +0.000 C 
ATOM     24  O   UNL     1       7.936   5.384  19.032  0.00  0.00    +0.000 OA
ATOM     25  C   UNL     1       7.120   6.420  18.434  0.00  0.00    +0.000 C 
BRANCH  22  26
ATOM     26  C   UNL     1       6.694   5.124  16.218  0.00  0.00    +0.000 A 
ATOM     27  N   UNL     1       7.556   5.913  15.604  0.00  0.00    +0.000 NA
ATOM     28  N   UNL     1       7.677   5.505  14.300  0.00  0.00    +0.000 NA
ATOM     29  C   UNL     1       6.894   4.467  14.139  0.00  0.00    +0.000 A 
ATOM     30  N   UNL     1       6.291   4.159  15.323  0.00  0.00    +0.000 N 
ATOM     31  C   UNL     1       5.404   3.041  15.508  0.00  0.00    +0.000 C 
ENDBRANCH  22  26
ENDBRANCH   5  22
TORSDOF 4
ENDMDL
MODEL 8
REMARK VINA RESULT:      -8.7      3.439      8.096
REMARK  Name = 
REMARK  6 active torsions:
REMARK  status: ('A' for Active; 'I' for Inactive)
REMARK    1  A    between atoms: C_1  and  C_2
REMARK    2  A    between atoms: C_6  and  C_7
REMARK    3  A    between atoms: N_13  and  C_14
REMARK    4  A    between atoms: C_18  and  C_19
REMARK    5  A    between atoms: C_19  and  C_20
REMARK    6  A    between atoms: N_24  and  C_25
REMARK                            x       y       z     vdW  Elec       q    Type
REMARK                         _______ _______ _______ _____ _____    ______ ____
ROOT
ATOM      1  C   UNL     1       1.069   8.730  20.580  0.00  0.00    +0.000 A 
ATOM      2  C   UNL     1       0.914   8.853  21.965  0.00  0.00    +0.000 A 
ATOM      3  C   UNL     1       0.294   9.959  22.534  0.00  0.00    +0.000 A 
ATOM      4  C   UNL     1      -0.226  10.951  21.718  0.00  0.00    +0.000 A 
ATOM      5  C   UNL     1      -0.172  10.860  20.313  0.00  0.00    +0.000 A 
ATOM      6  C   UNL     1       0.530   9.749  19.773  0.00  0.00    +0.000 A 
ENDROOT
BRANCH   1  15
ATOM      7  C   UNL     1       5.082   3.961  16.537  0.00  0.00    +0.000 C 
ATOM      8  C   UNL     1       4.205   4.484  17.636  0.00  0.00    +0.000 A 
ATOM      9  C   UNL     1       3.772   5.807  17.607  0.00  0.00    +0.000 A 
ATOM     10  C   UNL     1       2.976   6.249  18.647  0.00  0.00    +0.000 A 
ATOM     11  C   UNL     1       2.582   5.453  19.716  0.00  0.00    +0.000 A 
ATOM     12  C   UNL     1       2.986   4.122  19.761  0.00  0.00    +0.000 A 
ATOM     13  C   UNL     1       3.806   3.651  18.705  0.00  0.00    +0.000 A 
ATOM     14  C   UNL     1       1.751   6.280  20.657  0.00  0.00    +0.000 C 
ATOM     15  N   UNL     1       1.719   7.594  20.020  0.00  0.00    +0.000 N 
ATOM     16  C   UNL     1       2.430   7.590  18.818  0.00  0.00    +0.000 C 
ATOM     17  O   UNL     1       2.638   8.456  17.990  0.00  0.00    +0.000 OA
BRANCH  12  18
ATOM     18  C   UNL     1       2.587   3.179  20.865  0.00  0.00    +0.000 C 
ATOM     19  F   UNL     1       2.351   3.799  22.055  0.00  0.00    +0.000 F 
ATOM     20  F   UNL     1       1.451   2.490  20.572  0.00  0.00    +0.000 F 
ATOM     21  F   UNL     1       3.540   2.241  21.119  0.00  0.00    +0.000 F 
ENDBRANCH  12  18
ENDBRANCH   1  15
BRANCH   5  22
ATOM     22  C   UNL     1      -0.963  11.930  19.412  0.00  0.00    +0.000 C 
ATOM     23  C   UNL     1      -2.493  12.045  19.714  0.00  0.00    +0.000 C 
ATOM     24  O   UNL     1      -2.831  11.938  18.313  0.00  0.00    +0.000 OA
ATOM     25  C   UNL     1      -1.500  11.440  18.036  0.00  0.00    +0.000 C 
BRANCH  22  26
ATOM     26  C   UNL     1      -0.274  13.318  19.355  0.00  0.00    +0.000 A 
ATOM     27  N   UNL     1      -0.876  14.417  19.772  0.00  0.00    +0.000 NA
ATOM     28  N   UNL     1      -0.071  15.493  19.498  0.00  0.00    +0.000 NA
ATOM     29  C   UNL     1       1.015  15.036  18.925  0.00  0.00    +0.000 A 
ATOM     30  N   UNL     1       0.958  13.675  18.854  0.00  0.00    +0.000 N 
ATOM     31  C   UNL     1       2.012  12.851  18.324  0.00  0.00    +0.000 C 
ENDBRANCH  22  26
ENDBRANCH   5  22
TORSDOF 4
ENDMDL
MODEL 9
REMARK VINA RESULT:      -8.6      3.574      8.350
REMARK  Name = 
REMARK  6 active torsions:
REMARK  status: ('A' for Active; 'I' for Inactive)
REMARK    1  A    between atoms: C_1  and  C_2
REMARK    2  A    between atoms: C_6  and  C_7
REMARK    3  A    between atoms: N_13  and  C_14
REMARK    4  A    between atoms: C_18  and  C_19
REMARK    5  A    between atoms: C_19  and  C_20
REMARK    6  A    between atoms: N_24  and  C_25
REMARK                            x       y       z     vdW  Elec       q    Type
REMARK                         _______ _______ _______ _____ _____    ______ ____
ROOT
ATOM      1  C   UNL     1       1.479   8.212  20.148  0.00  0.00    +0.000 A 
ATOM      2  C   UNL     1       1.028   7.961  21.449  0.00  0.00    +0.000 A 
ATOM      3  C   UNL     1       0.356   8.928  22.187  0.00  0.00    +0.000 A 
ATOM      4  C   UNL     1       0.081  10.161  21.617  0.00  0.00    +0.000 A 
ATOM      5  C   UNL     1       0.440  10.459  20.287  0.00  0.00    +0.000 A 
ATOM      6  C   UNL     1       1.185   9.471  19.590  0.00  0.00    +0.000 A 
ENDROOT
BRANCH   1  15
ATOM      7  C   UNL     1       5.788   4.344  15.494  0.00  0.00    +0.000 C 
ATOM      8  C   UNL     1       4.842   4.638  16.620  0.00  0.00    +0.000 A 
ATOM      9  C   UNL     1       4.391   5.940  16.825  0.00  0.00    +0.000 A 
ATOM     10  C   UNL     1       3.531   6.166  17.883  0.00  0.00    +0.000 A 
ATOM     11  C   UNL     1       3.087   5.174  18.750  0.00  0.00    +0.000 A 
ATOM     12  C   UNL     1       3.508   3.861  18.556  0.00  0.00    +0.000 A 
ATOM     13  C   UNL     1       4.394   3.610  17.479  0.00  0.00    +0.000 A 
ATOM     14  C   UNL     1       2.191   5.797  19.783  0.00  0.00    +0.000 C 
ATOM     15  N   UNL     1       2.177   7.211  19.416  0.00  0.00    +0.000 N 
ATOM     16  C   UNL     1       2.957   7.445  18.281  0.00  0.00    +0.000 C 
ATOM     17  O   UNL     1       3.199   8.458  17.653  0.00  0.00    +0.000 OA
BRANCH  12  18
ATOM     18  C   UNL     1       3.059   2.718  19.428  0.00  0.00    +0.000 C 
ATOM     19  F   UNL     1       3.520   1.504  19.017  0.00  0.00    +0.000 F 
ATOM     20  F   UNL     1       3.471   2.857  20.717  0.00  0.00    +0.000 F 
ATOM     21  F   UNL     1       1.704   2.601  19.477  0.00  0.00    +0.000 F 
ENDBRANCH  12  18
ENDBRANCH   1  15
BRANCH   5  22
ATOM     22  C   UNL     1      -0.076  11.820  19.607  0.00  0.00    +0.000 C 
ATOM     23  C   UNL     1       0.847  12.387  18.479  0.00  0.00    +0.000 C 
ATOM     24  O   UNL     1       0.833  13.711  19.060  0.00  0.00    +0.000 OA
ATOM     25  C   UNL     1       0.327  13.155  20.298  0.00  0.00    +0.000 C 
BRANCH  22  26
ATOM     26  C   UNL     1      -1.564  11.768  19.171  0.00  0.00    +0.000 A 
ATOM     27  N   UNL     1      -2.492  12.499  19.761  0.00  0.00    +0.000 NA
ATOM     28  N   UNL     1      -3.715  12.162  19.240  0.00  0.00    +0.000 NA
ATOM     29  C   UNL     1      -3.516  11.237  18.334  0.00  0.00    +0.000 A 
ATOM     30  N   UNL     1      -2.180  10.988  18.219  0.00  0.00    +0.000 N 
ATOM     31  C   UNL     1      -1.611  10.060  17.277  0.00  0.00    +0.000 C 
ENDBRANCH  22  26
ENDBRANCH   5  22
TORSDOF 4
ENDMDL
