MODEL 1
REMARK VINA RESULT:      -7.8      0.000      0.000
REMARK  Name = 
REMARK  7 active torsions:
REMARK  status: ('A' for Active; 'I' for Inactive)
REMARK    1  A    between atoms: C_1  and  C_2
REMARK    2  A    between atoms: C_2  and  C_3
REMARK    3  A    between atoms: C_2  and  C_4
REMARK    4  A    between atoms: C_4  and  C_5
REMARK    5  A    between atoms: C_9  and  N_10
REMARK    6  A    between atoms: C_13  and  C_14
REMARK    7  A    between atoms: C_17  and  C_18
REMARK                            x       y       z     vdW  Elec       q    Type
REMARK                         _______ _______ _______ _____ _____    ______ ____
ROOT
ATOM      1  N   UNL     1       0.781   8.276  21.202  0.00  0.00    +0.000 N 
ATOM      2  C   UNL     1      -0.490   8.587  20.493  0.00  0.00    +0.000 C 
ATOM      3  C   UNL     1      -0.288  10.034  20.151  0.00  0.00    +0.000 A 
ATOM      4  C   UNL     1      -0.514  10.708  18.954  0.00  0.00    +0.000 A 
ATOM      5  C   UNL     1       0.108  11.960  18.803  0.00  0.00    +0.000 A 
ATOM      6  C   UNL     1       0.928  12.490  19.821  0.00  0.00    +0.000 A 
ATOM      7  C   UNL     1       1.143  11.817  21.019  0.00  0.00    +0.000 A 
ATOM      8  C   UNL     1       0.536  10.581  21.142  0.00  0.00    +0.000 A 
ATOM      9  C   UNL     1       1.094   9.453  21.927  0.00  0.00    +0.000 C 
ATOM     10  O   UNL     1       1.859   9.591  22.864  0.00  0.00    +0.000 OA
ENDROOT
BRANCH   1  15
ATOM     11  C   UNL     1       2.350   5.762  19.084  0.00  0.00    +0.000 A 
ATOM     12  C   UNL     1       2.354   6.507  17.885  0.00  0.00    +0.000 A 
ATOM     13  C   UNL     1       2.242   7.897  17.879  0.00  0.00    +0.000 A 
ATOM     14  C   UNL     1       2.010   8.575  19.068  0.00  0.00    +0.000 A 
ATOM     15  C   UNL     1       1.793   7.843  20.242  0.00  0.00    +0.000 A 
ATOM     16  C   UNL     1       2.147   6.491  20.269  0.00  0.00    +0.000 A 
BRANCH  11  17
ATOM     17  C   UNL     1       2.480   4.135  19.084  0.00  0.00    +0.000 C 
ATOM     18  C   UNL     1       3.009   3.468  17.767  0.00  0.00    +0.000 C 
ATOM     19  O   UNL     1       4.358   3.413  18.291  0.00  0.00    +0.000 OA
ATOM     20  C   UNL     1       3.861   3.629  19.633  0.00  0.00    +0.000 C 
BRANCH  17  22
ATOM     21  C   UNL     1       0.613   2.433  18.830  0.00  0.00    +0.000 C 
ATOM     22  C   UNL     1       1.193   3.542  19.718  0.00  0.00    +0.000 C 
ATOM     23  C   UNL     1       1.393   3.000  21.133  0.00  0.00    +0.000 C 
ENDBRANCH  17  22
ENDBRANCH  11  17
ENDBRANCH   1  15
BRANCH   6  24
ATOM     24  C   UNL     1       1.696  13.635  19.535  0.00  0.00    +0.000 C 
ATOM     25  N   UNL     1       1.666  14.866  19.238  0.00  0.00    +0.000 NA
ATOM     26  N   UNL     1       2.904  14.141  19.344  0.00  0.00    +0.000 N 
ATOM     27  H   UNL     1       3.423  14.384  20.185  0.00  0.00    +0.000 HD
ENDBRANCH   6  24
BRANCH   4  28
ATOM     28  C   UNL     1      -1.174  10.049  17.774  0.00  0.00    +0.000 C 
ATOM     29  F   UNL     1      -2.447   9.647  18.038  0.00  0.00    +0.000 F 
ENDBRANCH   4  28
TORSDOF 5
ENDMDL
MODEL 2
REMARK VINA RESULT:      -7.6      5.027      7.994
REMARK  Name = 
REMARK  7 active torsions:
REMARK  status: ('A' for Active; 'I' for Inactive)
REMARK    1  A    between atoms: C_1  and  C_2
REMARK    2  A    between atoms: C_2  and  C_3
REMARK    3  A    between atoms: C_2  and  C_4
REMARK    4  A    between atoms: C_4  and  C_5
REMARK    5  A    between atoms: C_9  and  N_10
REMARK    6  A    between atoms: C_13  and  C_14
REMARK    7  A    between atoms: C_17  and  C_18
REMARK                            x       y       z     vdW  Elec       q    Type
REMARK                         _______ _______ _______ _____ _____    ______ ____
ROOT
ATOM      1  N   UNL     1      -0.516  12.100  19.120  0.00  0.00    +0.000 N 
ATOM      2  C   UNL     1       0.348  11.309  20.039  0.00  0.00    +0.000 C 
ATOM      3  C   UNL     1      -0.336  11.539  21.354  0.00  0.00    +0.000 A 
ATOM      4  C   UNL     1      -0.672  10.632  22.356  0.00  0.00    +0.000 A 
ATOM      5  C   UNL     1      -1.630  11.051  23.297  0.00  0.00    +0.000 A 
ATOM      6  C   UNL     1      -2.221  12.328  23.211  0.00  0.00    +0.000 A 
ATOM      7  C   UNL     1      -1.875  13.234  22.214  0.00  0.00    +0.000 A 
ATOM      8  C   UNL     1      -0.944  12.799  21.290  0.00  0.00    +0.000 A 
ATOM      9  C   UNL     1      -0.910  13.235  19.872  0.00  0.00    +0.000 C 
ATOM     10  O   UNL     1      -1.367  14.292  19.476  0.00  0.00    +0.000 OA
ENDROOT
BRANCH   1  15
ATOM     11  C   UNL     1      -4.020  11.527  18.304  0.00  0.00    +0.000 A 
ATOM     12  C   UNL     1      -3.829  11.056  16.988  0.00  0.00    +0.000 A 
ATOM     13  C   UNL     1      -2.602  10.554  16.554  0.00  0.00    +0.000 A 
ATOM     14  C   UNL     1      -1.498  10.613  17.393  0.00  0.00    +0.000 A 
ATOM     15  C   UNL     1      -1.610  11.266  18.626  0.00  0.00    +0.000 A 
ATOM     16  C   UNL     1      -2.883  11.538  19.133  0.00  0.00    +0.000 A 
BRANCH  11  17
ATOM     17  C   UNL     1      -5.458  12.115  18.806  0.00  0.00    +0.000 C 
ATOM     18  C   UNL     1      -6.186  13.116  17.843  0.00  0.00    +0.000 C 
ATOM     19  O   UNL     1      -6.998  12.052  17.289  0.00  0.00    +0.000 OA
ATOM     20  C   UNL     1      -6.669  11.197  18.410  0.00  0.00    +0.000 C 
BRANCH  17  22
ATOM     21  C   UNL     1      -5.131  14.043  20.425  0.00  0.00    +0.000 C 
ATOM     22  C   UNL     1      -5.325  12.526  20.296  0.00  0.00    +0.000 C 
ATOM     23  C   UNL     1      -6.508  12.096  21.165  0.00  0.00    +0.000 C 
ENDBRANCH  17  22
ENDBRANCH  11  17
ENDBRANCH   1  15
BRANCH   6  24
ATOM     24  C   UNL     1      -3.323  12.613  24.039  0.00  0.00    +0.000 C 
ATOM     25  N   UNL     1      -4.463  12.223  24.434  0.00  0.00    +0.000 NA
ATOM     26  N   UNL     1      -3.890  13.468  24.876  0.00  0.00    +0.000 N 
ATOM     27  H   UNL     1      -3.571  13.425  25.841  0.00  0.00    +0.000 HD
ENDBRANCH   6  24
BRANCH   4  28
ATOM     28  C   UNL     1      -0.240   9.192  22.312  0.00  0.00    +0.000 C 
ATOM     29  F   UNL     1      -0.795   8.506  21.276  0.00  0.00    +0.000 F 
ENDBRANCH   4  28
TORSDOF 5
ENDMDL
MODEL 3
REMARK VINA RESULT:      -7.5      1.017      1.716
REMARK  Name = 
REMARK  7 active torsions:
REMARK  status: ('A' for Active; 'I' for Inactive)
REMARK    1  A    between atoms: C_1  and  C_2
REMARK    2  A    between atoms: C_2  and  C_3
REMARK    3  A    between atoms: C_2  and  C_4
REMARK    4  A    between atoms: C_4  and  C_5
REMARK    5  A    between atoms: C_9  and  N_10
REMARK    6  A    between atoms: C_13  and  C_14
REMARK    7  A    between atoms: C_17  and  C_18
REMARK                            x       y       z     vdW  Elec       q    Type
REMARK                         _______ _______ _______ _____ _____    ______ ____
ROOT
ATOM      1  N   UNL     1       0.754   8.206  21.326  0.00  0.00    +0.000 N 
ATOM      2  C   UNL     1      -0.484   8.544  20.572  0.00  0.00    +0.000 C 
ATOM      3  C   UNL     1      -0.195   9.955  20.151  0.00  0.00    +0.000 A 
ATOM      4  C   UNL     1      -0.361  10.569  18.913  0.00  0.00    +0.000 A 
ATOM      5  C   UNL     1       0.334  11.774  18.703  0.00  0.00    +0.000 A 
ATOM      6  C   UNL     1       1.164  12.317  19.706  0.00  0.00    +0.000 A 
ATOM      7  C   UNL     1       1.319  11.705  20.945  0.00  0.00    +0.000 A 
ATOM      8  C   UNL     1       0.641  10.514  21.126  0.00  0.00    +0.000 A 
ATOM      9  C   UNL     1       1.120   9.405  21.987  0.00  0.00    +0.000 C 
ATOM     10  O   UNL     1       1.874   9.556  22.931  0.00  0.00    +0.000 OA
ENDROOT
BRANCH   1  15
ATOM     11  C   UNL     1       2.267   5.471  19.454  0.00  0.00    +0.000 A 
ATOM     12  C   UNL     1       2.292   6.102  18.192  0.00  0.00    +0.000 A 
ATOM     13  C   UNL     1       2.214   7.487  18.057  0.00  0.00    +0.000 A 
ATOM     14  C   UNL     1       1.995   8.278  19.178  0.00  0.00    +0.000 A 
ATOM     15  C   UNL     1       1.758   7.663  20.413  0.00  0.00    +0.000 A 
ATOM     16  C   UNL     1       2.079   6.311  20.567  0.00  0.00    +0.000 A 
BRANCH  11  17
ATOM     17  C   UNL     1       2.357   3.848  19.605  0.00  0.00    +0.000 C 
ATOM     18  C   UNL     1       2.433   3.277  21.063  0.00  0.00    +0.000 C 
ATOM     19  O   UNL     1       1.005   3.037  21.084  0.00  0.00    +0.000 OA
ATOM     20  C   UNL     1       0.949   3.155  19.643  0.00  0.00    +0.000 C 
BRANCH  17  22
ATOM     21  C   UNL     1       4.823   3.598  19.053  0.00  0.00    +0.000 C 
ATOM     22  C   UNL     1       3.392   3.318  18.576  0.00  0.00    +0.000 C 
ATOM     23  C   UNL     1       3.248   1.828  18.265  0.00  0.00    +0.000 C 
ENDBRANCH  17  22
ENDBRANCH  11  17
ENDBRANCH   1  15
BRANCH   6  24
ATOM     24  C   UNL     1       2.000  13.399  19.370  0.00  0.00    +0.000 C 
ATOM     25  N   UNL     1       2.777  14.296  19.814  0.00  0.00    +0.000 NA
ATOM     26  N   UNL     1       2.462  14.188  18.414  0.00  0.00    +0.000 N 
ATOM     27  H   UNL     1       3.240  13.821  17.871  0.00  0.00    +0.000 HD
ENDBRANCH   6  24
BRANCH   4  28
ATOM     28  C   UNL     1      -1.036   9.879  17.759  0.00  0.00    +0.000 C 
ATOM     29  F   UNL     1      -2.388   9.820  17.898  0.00  0.00    +0.000 F 
ENDBRANCH   4  28
TORSDOF 5
ENDMDL
MODEL 4
REMARK VINA RESULT:      -7.5      4.419      7.966
REMARK  Name = 
REMARK  7 active torsions:
REMARK  status: ('A' for Active; 'I' for Inactive)
REMARK    1  A    between atoms: C_1  and  C_2
REMARK    2  A    between atoms: C_2  and  C_3
REMARK    3  A    between atoms: C_2  and  C_4
REMARK    4  A    between atoms: C_4  and  C_5
REMARK    5  A    between atoms: C_9  and  N_10
REMARK    6  A    between atoms: C_13  and  C_14
REMARK    7  A    between atoms: C_17  and  C_18
REMARK                            x       y       z     vdW  Elec       q    Type
REMARK                         _______ _______ _______ _____ _____    ______ ____
ROOT
ATOM      1  N   UNL     1       3.548   5.207  19.027  0.00  0.00    +0.000 N 
ATOM      2  C   UNL     1       4.940   5.581  19.399  0.00  0.00    +0.000 C 
ATOM      3  C   UNL     1       5.694   5.158  18.173  0.00  0.00    +0.000 A 
ATOM      4  C   UNL     1       6.673   5.834  17.450  0.00  0.00    +0.000 A 
ATOM      5  C   UNL     1       6.934   5.371  16.147  0.00  0.00    +0.000 A 
ATOM      6  C   UNL     1       6.222   4.279  15.609  0.00  0.00    +0.000 A 
ATOM      7  C   UNL     1       5.252   3.601  16.339  0.00  0.00    +0.000 A 
ATOM      8  C   UNL     1       4.999   4.080  17.611  0.00  0.00    +0.000 A 
ATOM      9  C   UNL     1       3.677   4.009  18.280  0.00  0.00    +0.000 C 
ATOM     10  O   UNL     1       2.825   3.180  18.015  0.00  0.00    +0.000 OA
ENDROOT
BRANCH   1  15
ATOM     11  C   UNL     1       1.850   8.429  18.958  0.00  0.00    +0.000 A 
ATOM     12  C   UNL     1       2.678   9.055  18.002  0.00  0.00    +0.000 A 
ATOM     13  C   UNL     1       3.476   8.322  17.124  0.00  0.00    +0.000 A 
ATOM     14  C   UNL     1       3.554   6.941  17.252  0.00  0.00    +0.000 A 
ATOM     15  C   UNL     1       2.906   6.316  18.325  0.00  0.00    +0.000 A 
ATOM     16  C   UNL     1       1.933   7.027  19.032  0.00  0.00    +0.000 A 
BRANCH  11  17
ATOM     17  C   UNL     1       0.920   9.294  19.985  0.00  0.00    +0.000 C 
ATOM     18  C   UNL     1       1.219  10.829  20.087  0.00  0.00    +0.000 C 
ATOM     19  O   UNL     1       0.171  11.136  19.136  0.00  0.00    +0.000 OA
ATOM     20  C   UNL     1      -0.402   9.819  19.321  0.00  0.00    +0.000 C 
BRANCH  17  22
ATOM     21  C   UNL     1       1.636   9.151  22.416  0.00  0.00    +0.000 C 
ATOM     22  C   UNL     1       0.791   8.501  21.313  0.00  0.00    +0.000 C 
ATOM     23  C   UNL     1      -0.648   8.349  21.806  0.00  0.00    +0.000 C 
ENDBRANCH  17  22
ENDBRANCH  11  17
ENDBRANCH   1  15
BRANCH   6  24
ATOM     24  C   UNL     1       6.365   3.997  14.238  0.00  0.00    +0.000 C 
ATOM     25  N   UNL     1       6.865   4.381  13.138  0.00  0.00    +0.000 NA
ATOM     26  N   UNL     1       6.042   3.204  13.229  0.00  0.00    +0.000 N 
ATOM     27  H   UNL     1       6.583   2.346  13.145  0.00  0.00    +0.000 HD
ENDBRANCH   6  24
BRANCH   4  28
ATOM     28  C   UNL     1       7.255   7.141  17.915  0.00  0.00    +0.000 C 
ATOM     29  F   UNL     1       8.349   6.979  18.707  0.00  0.00    +0.000 F 
ENDBRANCH   4  28
TORSDOF 5
ENDMDL
MODEL 5
REMARK VINA RESULT:      -7.5      4.235      7.909
REMARK  Name = 
REMARK  7 active torsions:
REMARK  status: ('A' for Active; 'I' for Inactive)
REMARK    1  A    between atoms: C_1  and  C_2
REMARK    2  A    between atoms: C_2  and  C_3
REMARK    3  A    between atoms: C_2  and  C_4
REMARK    4  A    between atoms: C_4  and  C_5
REMARK    5  A    between atoms: C_9  and  N_10
REMARK    6  A    between atoms: C_13  and  C_14
REMARK    7  A    between atoms: C_17  and  C_18
REMARK                            x       y       z     vdW  Elec       q    Type
REMARK                         _______ _______ _______ _____ _____    ______ ____
ROOT
ATOM      1  N   UNL     1       3.733   5.283  19.316  0.00  0.00    +0.000 N 
ATOM      2  C   UNL     1       5.132   5.774  19.443  0.00  0.00    +0.000 C 
ATOM      3  C   UNL     1       5.724   5.311  18.144  0.00  0.00    +0.000 A 
ATOM      4  C   UNL     1       6.529   5.993  17.236  0.00  0.00    +0.000 A 
ATOM      5  C   UNL     1       6.625   5.452  15.941  0.00  0.00    +0.000 A 
ATOM      6  C   UNL     1       5.925   4.279  15.591  0.00  0.00    +0.000 A 
ATOM      7  C   UNL     1       5.129   3.595  16.505  0.00  0.00    +0.000 A 
ATOM      8  C   UNL     1       5.035   4.151  17.767  0.00  0.00    +0.000 A 
ATOM      9  C   UNL     1       3.839   4.044  18.637  0.00  0.00    +0.000 C 
ATOM     10  O   UNL     1       3.022   3.144  18.561  0.00  0.00    +0.000 OA
ENDROOT
BRANCH   1  15
ATOM     11  C   UNL     1       1.775   8.356  19.315  0.00  0.00    +0.000 A 
ATOM     12  C   UNL     1       2.411   8.979  18.220  0.00  0.00    +0.000 A 
ATOM     13  C   UNL     1       3.141   8.254  17.279  0.00  0.00    +0.000 A 
ATOM     14  C   UNL     1       3.351   6.895  17.468  0.00  0.00    +0.000 A 
ATOM     15  C   UNL     1       2.910   6.293  18.653  0.00  0.00    +0.000 A 
ATOM     16  C   UNL     1       1.986   6.971  19.451  0.00  0.00    +0.000 A 
BRANCH  11  17
ATOM     17  C   UNL     1       0.923   9.211  20.414  0.00  0.00    +0.000 C 
ATOM     18  C   UNL     1      -0.120   8.416  21.273  0.00  0.00    +0.000 C 
ATOM     19  O   UNL     1       0.827   8.272  22.359  0.00  0.00    +0.000 OA
ATOM     20  C   UNL     1       1.650   9.324  21.801  0.00  0.00    +0.000 C 
BRANCH  17  22
ATOM     21  C   UNL     1      -0.948  10.342  19.124  0.00  0.00    +0.000 C 
ATOM     22  C   UNL     1       0.443  10.527  19.744  0.00  0.00    +0.000 C 
ATOM     23  C   UNL     1       0.416  11.728  20.689  0.00  0.00    +0.000 C 
ENDBRANCH  17  22
ENDBRANCH  11  17
ENDBRANCH   1  15
BRANCH   6  24
ATOM     24  C   UNL     1       5.881   3.904  14.235  0.00  0.00    +0.000 C 
ATOM     25  N   UNL     1       5.211   3.948  13.159  0.00  0.00    +0.000 NA
ATOM     26  N   UNL     1       6.463   3.243  13.247  0.00  0.00    +0.000 N 
ATOM     27  H   UNL     1       7.216   3.730  12.767  0.00  0.00    +0.000 HD
ENDBRANCH   6  24
BRANCH   4  28
ATOM     28  C   UNL     1       7.073   7.366  17.520  0.00  0.00    +0.000 C 
ATOM     29  F   UNL     1       8.177   7.342  18.314  0.00  0.00    +0.000 F 
ENDBRANCH   4  28
TORSDOF 5
ENDMDL
MODEL 6
REMARK VINA RESULT:      -7.4      0.841      1.147
REMARK  Name = 
REMARK  7 active torsions:
REMARK  status: ('A' for Active; 'I' for Inactive)
REMARK    1  A    between atoms: C_1  and  C_2
REMARK    2  A    between atoms: C_2  and  C_3
REMARK    3  A    between atoms: C_2  and  C_4
REMARK    4  A    between atoms: C_4  and  C_5
REMARK    5  A    between atoms: C_9  and  N_10
REMARK    6  A    between atoms: C_13  and  C_14
REMARK    7  A    between atoms: C_17  and  C_18
REMARK                            x       y       z     vdW  Elec       q    Type
REMARK                         _______ _______ _______ _____ _____    ______ ____
ROOT
ATOM      1  N   UNL     1       0.835   8.202  21.358  0.00  0.00    +0.000 N 
ATOM      2  C   UNL     1      -0.483   8.487  20.727  0.00  0.00    +0.000 C 
ATOM      3  C   UNL     1      -0.329   9.935  20.367  0.00  0.00    +0.000 A 
ATOM      4  C   UNL     1      -0.641  10.599  19.184  0.00  0.00    +0.000 A 
ATOM      5  C   UNL     1      -0.052  11.861  18.988  0.00  0.00    +0.000 A 
ATOM      6  C   UNL     1       0.820  12.411  19.950  0.00  0.00    +0.000 A 
ATOM      7  C   UNL     1       1.122  11.748  21.135  0.00  0.00    +0.000 A 
ATOM      8  C   UNL     1       0.546  10.503  21.302  0.00  0.00    +0.000 A 
ATOM      9  C   UNL     1       1.172   9.389  22.056  0.00  0.00    +0.000 C 
ATOM     10  O   UNL     1       1.991   9.546  22.943  0.00  0.00    +0.000 OA
ENDROOT
BRANCH   1  15
ATOM     11  C   UNL     1       2.248   5.733  19.081  0.00  0.00    +0.000 A 
ATOM     12  C   UNL     1       2.217   6.522  17.911  0.00  0.00    +0.000 A 
ATOM     13  C   UNL     1       2.139   7.913  17.960  0.00  0.00    +0.000 A 
ATOM     14  C   UNL     1       1.976   8.552  19.182  0.00  0.00    +0.000 A 
ATOM     15  C   UNL     1       1.793   7.783  20.337  0.00  0.00    +0.000 A 
ATOM     16  C   UNL     1       2.114   6.423  20.301  0.00  0.00    +0.000 A 
BRANCH  11  17
ATOM     17  C   UNL     1       2.337   4.105  19.017  0.00  0.00    +0.000 C 
ATOM     18  C   UNL     1       1.213   3.367  18.209  0.00  0.00    +0.000 C 
ATOM     19  O   UNL     1       2.053   3.298  17.031  0.00  0.00    +0.000 OA
ATOM     20  C   UNL     1       3.225   3.584  17.832  0.00  0.00    +0.000 C 
BRANCH  17  22
ATOM     21  C   UNL     1       1.406   2.962  21.085  0.00  0.00    +0.000 C 
ATOM     22  C   UNL     1       2.656   3.576  20.441  0.00  0.00    +0.000 C 
ATOM     23  C   UNL     1       3.795   2.556  20.481  0.00  0.00    +0.000 C 
ENDBRANCH  17  22
ENDBRANCH  11  17
ENDBRANCH   1  15
BRANCH   6  24
ATOM     24  C   UNL     1       1.548  13.567  19.611  0.00  0.00    +0.000 C 
ATOM     25  N   UNL     1       2.150  14.189  18.685  0.00  0.00    +0.000 NA
ATOM     26  N   UNL     1       2.102  14.693  20.033  0.00  0.00    +0.000 N 
ATOM     27  H   UNL     1       1.476  15.490  20.125  0.00  0.00    +0.000 HD
ENDBRANCH   6  24
BRANCH   4  28
ATOM     28  C   UNL     1      -1.362   9.921  18.050  0.00  0.00    +0.000 C 
ATOM     29  F   UNL     1      -0.514   9.414  17.115  0.00  0.00    +0.000 F 
ENDBRANCH   4  28
TORSDOF 5
ENDMDL
MODEL 7
REMARK VINA RESULT:      -7.4      0.824      1.560
REMARK  Name = 
REMARK  7 active torsions:
REMARK  status: ('A' for Active; 'I' for Inactive)
REMARK    1  A    between atoms: C_1  and  C_2
REMARK    2  A    between atoms: C_2  and  C_3
REMARK    3  A    between atoms: C_2  and  C_4
REMARK    4  A    between atoms: C_4  and  C_5
REMARK    5  A    between atoms: C_9  and  N_10
REMARK    6  A    between atoms: C_13  and  C_14
REMARK    7  A    between atoms: C_17  and  C_18
REMARK                            x       y       z     vdW  Elec       q    Type
REMARK                         _______ _______ _______ _____ _____    ______ ____
ROOT
ATOM      1  N   UNL     1       0.804   8.260  21.186  0.00  0.00    +0.000 N 
ATOM      2  C   UNL     1      -0.487   8.543  20.501  0.00  0.00    +0.000 C 
ATOM      3  C   UNL     1      -0.340  10.004  20.192  0.00  0.00    +0.000 A 
ATOM      4  C   UNL     1      -0.606  10.699  19.015  0.00  0.00    +0.000 A 
ATOM      5  C   UNL     1      -0.029  11.975  18.886  0.00  0.00    +0.000 A 
ATOM      6  C   UNL     1       0.787  12.508  19.905  0.00  0.00    +0.000 A 
ATOM      7  C   UNL     1       1.042  11.814  21.084  0.00  0.00    +0.000 A 
ATOM      8  C   UNL     1       0.479  10.556  21.185  0.00  0.00    +0.000 A 
ATOM      9  C   UNL     1       1.087   9.430  21.935  0.00  0.00    +0.000 C 
ATOM     10  O   UNL     1       1.860   9.571  22.865  0.00  0.00    +0.000 OA
ENDROOT
BRANCH   1  15
ATOM     11  C   UNL     1       2.427   5.853  18.985  0.00  0.00    +0.000 A 
ATOM     12  C   UNL     1       2.389   6.627  17.805  0.00  0.00    +0.000 A 
ATOM     13  C   UNL     1       2.230   8.012  17.835  0.00  0.00    +0.000 A 
ATOM     14  C   UNL     1       1.992   8.653  19.044  0.00  0.00    +0.000 A 
ATOM     15  C   UNL     1       1.816   7.885  20.202  0.00  0.00    +0.000 A 
ATOM     16  C   UNL     1       2.215   6.546  20.191  0.00  0.00    +0.000 A 
BRANCH  11  17
ATOM     17  C   UNL     1       2.611   4.232  18.943  0.00  0.00    +0.000 C 
ATOM     18  C   UNL     1       1.347   3.368  19.283  0.00  0.00    +0.000 C 
ATOM     19  O   UNL     1       1.033   3.206  17.879  0.00  0.00    +0.000 OA
ATOM     20  C   UNL     1       2.371   3.623  17.516  0.00  0.00    +0.000 C 
BRANCH  17  22
ATOM     21  C   UNL     1       4.097   2.350  19.778  0.00  0.00    +0.000 C 
ATOM     22  C   UNL     1       3.938   3.872  19.664  0.00  0.00    +0.000 C 
ATOM     23  C   UNL     1       5.183   4.459  18.999  0.00  0.00    +0.000 C 
ENDBRANCH  17  22
ENDBRANCH  11  17
ENDBRANCH   1  15
BRANCH   6  24
ATOM     24  C   UNL     1       1.511  13.685  19.637  0.00  0.00    +0.000 C 
ATOM     25  N   UNL     1       2.285  14.568  20.114  0.00  0.00    +0.000 NA
ATOM     26  N   UNL     1       1.805  14.631  18.759  0.00  0.00    +0.000 N 
ATOM     27  H   UNL     1       2.529  14.401  18.082  0.00  0.00    +0.000 HD
ENDBRANCH   6  24
BRANCH   4  28
ATOM     28  C   UNL     1      -1.260  10.045  17.829  0.00  0.00    +0.000 C 
ATOM     29  F   UNL     1      -2.535   9.645  18.083  0.00  0.00    +0.000 F 
ENDBRANCH   4  28
TORSDOF 5
ENDMDL
MODEL 8
REMARK VINA RESULT:      -7.3      5.372      8.270
REMARK  Name = 
REMARK  7 active torsions:
REMARK  status: ('A' for Active; 'I' for Inactive)
REMARK    1  A    between atoms: C_1  and  C_2
REMARK    2  A    between atoms: C_2  and  C_3
REMARK    3  A    between atoms: C_2  and  C_4
REMARK    4  A    between atoms: C_4  and  C_5
REMARK    5  A    between atoms: C_9  and  N_10
REMARK    6  A    between atoms: C_13  and  C_14
REMARK    7  A    between atoms: C_17  and  C_18
REMARK                            x       y       z     vdW  Elec       q    Type
REMARK                         _______ _______ _______ _____ _____    ______ ____
ROOT
ATOM      1  N   UNL     1      -0.900  12.603  19.238  0.00  0.00    +0.000 N 
ATOM      2  C   UNL     1       0.060  11.868  20.106  0.00  0.00    +0.000 C 
ATOM      3  C   UNL     1      -0.624  11.955  21.439  0.00  0.00    +0.000 A 
ATOM      4  C   UNL     1      -0.842  10.968  22.396  0.00  0.00    +0.000 A 
ATOM      5  C   UNL     1      -1.825  11.231  23.367  0.00  0.00    +0.000 A 
ATOM      6  C   UNL     1      -2.554  12.437  23.353  0.00  0.00    +0.000 A 
ATOM      7  C   UNL     1      -2.326  13.425  22.400  0.00  0.00    +0.000 A 
ATOM      8  C   UNL     1      -1.367  13.142  21.445  0.00  0.00    +0.000 A 
ATOM      9  C   UNL     1      -1.404  13.648  20.052  0.00  0.00    +0.000 C 
ATOM     10  O   UNL     1      -1.981  14.667  19.714  0.00  0.00    +0.000 OA
ENDROOT
BRANCH   1  15
ATOM     11  C   UNL     1      -4.312  11.742  18.296  0.00  0.00    +0.000 A 
ATOM     12  C   UNL     1      -4.032  11.274  16.994  0.00  0.00    +0.000 A 
ATOM     13  C   UNL     1      -2.754  10.869  16.614  0.00  0.00    +0.000 A 
ATOM     14  C   UNL     1      -1.691  11.024  17.494  0.00  0.00    +0.000 A 
ATOM     15  C   UNL     1      -1.903  11.678  18.714  0.00  0.00    +0.000 A 
ATOM     16  C   UNL     1      -3.214  11.852  19.168  0.00  0.00    +0.000 A 
BRANCH  11  17
ATOM     17  C   UNL     1      -5.812  12.217  18.734  0.00  0.00    +0.000 C 
ATOM     18  C   UNL     1      -6.003  13.739  19.060  0.00  0.00    +0.000 C 
ATOM     19  O   UNL     1      -6.486  14.004  17.721  0.00  0.00    +0.000 OA
ATOM     20  C   UNL     1      -6.719  12.591  17.509  0.00  0.00    +0.000 C 
BRANCH  17  22
ATOM     21  C   UNL     1      -7.518  11.806  20.568  0.00  0.00    +0.000 C 
ATOM     22  C   UNL     1      -6.371  11.192  19.756  0.00  0.00    +0.000 C 
ATOM     23  C   UNL     1      -6.847   9.883  19.124  0.00  0.00    +0.000 C 
ENDBRANCH  17  22
ENDBRANCH  11  17
ENDBRANCH   1  15
BRANCH   6  24
ATOM     24  C   UNL     1      -3.667  12.558  24.206  0.00  0.00    +0.000 C 
ATOM     25  N   UNL     1      -4.741  12.016  24.605  0.00  0.00    +0.000 NA
ATOM     26  N   UNL     1      -4.321  13.309  25.078  0.00  0.00    +0.000 N 
ATOM     27  H   UNL     1      -3.980  13.278  26.036  0.00  0.00    +0.000 HD
ENDBRANCH   6  24
BRANCH   4  28
ATOM     28  C   UNL     1      -0.254   9.588  22.274  0.00  0.00    +0.000 C 
ATOM     29  F   UNL     1       0.059   9.040  23.479  0.00  0.00    +0.000 F 
ENDBRANCH   4  28
TORSDOF 5
ENDMDL
MODEL 9
REMARK VINA RESULT:      -7.3      3.315      7.573
REMARK  Name = 
REMARK  7 active torsions:
REMARK  status: ('A' for Active; 'I' for Inactive)
REMARK    1  A    between atoms: C_1  and  C_2
REMARK    2  A    between atoms: C_2  and  C_3
REMARK    3  A    between atoms: C_2  and  C_4
REMARK    4  A    between atoms: C_4  and  C_5
REMARK    5  A    between atoms: C_9  and  N_10
REMARK    6  A    between atoms: C_13  and  C_14
REMARK    7  A    between atoms: C_17  and  C_18
REMARK                            x       y       z     vdW  Elec       q    Type
REMARK                         _______ _______ _______ _____ _____    ______ ____
ROOT
ATOM      1  N   UNL     1       2.025   7.112  17.972  0.00  0.00    +0.000 N 
ATOM      2  C   UNL     1       1.781   5.654  18.141  0.00  0.00    +0.000 C 
ATOM      3  C   UNL     1       3.174   5.148  18.377  0.00  0.00    +0.000 A 
ATOM      4  C   UNL     1       3.649   4.256  19.334  0.00  0.00    +0.000 A 
ATOM      5  C   UNL     1       5.036   4.252  19.565  0.00  0.00    +0.000 A 
ATOM      6  C   UNL     1       5.892   5.124  18.860  0.00  0.00    +0.000 A 
ATOM      7  C   UNL     1       5.413   6.007  17.898  0.00  0.00    +0.000 A 
ATOM      8  C   UNL     1       4.046   6.007  17.696  0.00  0.00    +0.000 A 
ATOM      9  C   UNL     1       3.264   7.200  17.289  0.00  0.00    +0.000 C 
ATOM     10  O   UNL     1       3.734   8.144  16.679  0.00  0.00    +0.000 OA
ENDROOT
BRANCH   1  15
ATOM     11  C   UNL     1       0.791   9.686  20.236  0.00  0.00    +0.000 A 
ATOM     12  C   UNL     1       0.421   8.835  21.299  0.00  0.00    +0.000 A 
ATOM     13  C   UNL     1       0.941   7.548  21.431  0.00  0.00    +0.000 A 
ATOM     14  C   UNL     1       1.765   7.032  20.439  0.00  0.00    +0.000 A 
ATOM     15  C   UNL     1       1.979   7.777  19.273  0.00  0.00    +0.000 A 
ATOM     16  C   UNL     1       1.654   9.136  19.270  0.00  0.00    +0.000 A 
BRANCH  11  17
ATOM     17  C   UNL     1       0.176  11.191  20.087  0.00  0.00    +0.000 C 
ATOM     18  C   UNL     1      -0.690  11.721  21.282  0.00  0.00    +0.000 C 
ATOM     19  O   UNL     1       0.448  12.418  21.847  0.00  0.00    +0.000 OA
ATOM     20  C   UNL     1       1.158  12.308  20.590  0.00  0.00    +0.000 C 
BRANCH  17  22
ATOM     21  C   UNL     1      -1.662  10.467  18.492  0.00  0.00    +0.000 C 
ATOM     22  C   UNL     1      -0.411  11.339  18.658  0.00  0.00    +0.000 C 
ATOM     23  C   UNL     1      -0.749  12.780  18.274  0.00  0.00    +0.000 C 
ENDBRANCH  17  22
ENDBRANCH  11  17
ENDBRANCH   1  15
BRANCH   6  24
ATOM     24  C   UNL     1       7.231   5.233  19.281  0.00  0.00    +0.000 C 
ATOM     25  N   UNL     1       8.436   4.945  19.016  0.00  0.00    +0.000 NA
ATOM     26  N   UNL     1       8.070   5.648  20.217  0.00  0.00    +0.000 N 
ATOM     27  H   UNL     1       8.325   6.633  20.181  0.00  0.00    +0.000 HD
ENDBRANCH   6  24
BRANCH   4  28
ATOM     28  C   UNL     1       2.730   3.509  20.261  0.00  0.00    +0.000 C 
ATOM     29  F   UNL     1       2.507   4.169  21.429  0.00  0.00    +0.000 F 
ENDBRANCH   4  28
TORSDOF 5
ENDMDL
