MODEL 1
REMARK VINA RESULT:      -8.4      0.000      0.000
REMARK  Name = 
REMARK  6 active torsions:
REMARK  status: ('A' for Active; 'I' for Inactive)
REMARK    1  A    between atoms: C_1  and  C_2
REMARK    2  A    between atoms: C_4  and  C_5
REMARK    3  A    between atoms: N_6  and  C_7
REMARK    4  A    between atoms: C_7  and  C_8
REMARK    5  A    between atoms: C_12  and  C_13
REMARK    6  A    between atoms: N_15  and  C_16
REMARK                            x       y       z     vdW  Elec       q    Type
REMARK                         _______ _______ _______ _____ _____    ______ ____
ROOT
ATOM      1  C   UNL     1       4.285   5.427  17.040  0.00  0.00    +0.000 A 
ATOM      2  C   UNL     1       3.712   4.189  16.727  0.00  0.00    +0.000 A 
ATOM      3  C   UNL     1       2.611   3.713  17.454  0.00  0.00    +0.000 A 
ATOM      4  C   UNL     1       2.048   4.472  18.487  0.00  0.00    +0.000 A 
ATOM      5  C   UNL     1       2.609   5.715  18.794  0.00  0.00    +0.000 A 
ATOM      6  C   UNL     1       3.724   6.170  18.081  0.00  0.00    +0.000 A 
ENDROOT
BRANCH   5   7
ATOM      7  C   UNL     1       2.047   6.642  19.815  0.00  0.00    +0.000 C 
ATOM      8  O   UNL     1       1.564   6.116  20.811  0.00  0.00    +0.000 OA
ATOM      9  N   UNL     1       2.116   7.992  19.541  0.00  0.00    +0.000 N 
ATOM     10  H   UNL     1       2.549   8.322  18.694  0.00  0.00    +0.000 HD
BRANCH   9  11
ATOM     11  C   UNL     1       1.484   8.930  20.326  0.00  0.00    +0.000 A 
ATOM     12  C   UNL     1       0.817  10.044  19.850  0.00  0.00    +0.000 A 
ATOM     13  N   UNL     1       0.277  10.619  20.967  0.00  0.00    +0.000 N 
ATOM     14  C   UNL     1      -0.598  11.704  21.079  0.00  0.00    +0.000 A 
ATOM     15  C   UNL     1      -1.607  11.539  21.965  0.00  0.00    +0.000 A 
ATOM     16  C   UNL     1      -1.101  10.809  23.195  0.00  0.00    +0.000 A 
ATOM     17  N   UNL     1      -0.083  10.005  23.245  0.00  0.00    +0.000 NA
ATOM     18  C   UNL     1       0.537   9.785  22.047  0.00  0.00    +0.000 A 
ATOM     19  N   UNL     1       1.351   8.825  21.677  0.00  0.00    +0.000 NA
ENDBRANCH   9  11
ENDBRANCH   5   7
BRANCH   1  20
ATOM     20  C   UNL     1       5.487   5.951  16.280  0.00  0.00    +0.000 C 
BRANCH  20  26
ATOM     21  C   UNL     1       8.289   9.560  17.885  0.00  0.00    +0.000 C 
ATOM     22  C   UNL     1       7.738   8.189  17.783  0.00  0.00    +0.000 A 
ATOM     23  C   UNL     1       8.209   7.025  18.421  0.00  0.00    +0.000 A 
ATOM     24  C   UNL     1       7.394   6.006  17.973  0.00  0.00    +0.000 A 
ATOM     25  C   UNL     1       7.440   4.557  18.290  0.00  0.00    +0.000 C 
ATOM     26  N   UNL     1       6.475   6.597  17.132  0.00  0.00    +0.000 N 
ATOM     27  N   UNL     1       6.685   7.932  16.993  0.00  0.00    +0.000 NA
ENDBRANCH  20  26
ENDBRANCH   1  20
TORSDOF 4
ENDMDL
MODEL 2
REMARK VINA RESULT:      -8.3      1.693      2.603
REMARK  Name = 
REMARK  6 active torsions:
REMARK  status: ('A' for Active; 'I' for Inactive)
REMARK    1  A    between atoms: C_1  and  C_2
REMARK    2  A    between atoms: C_4  and  C_5
REMARK    3  A    between atoms: N_6  and  C_7
REMARK    4  A    between atoms: C_7  and  C_8
REMARK    5  A    between atoms: C_12  and  C_13
REMARK    6  A    between atoms: N_15  and  C_16
REMARK                            x       y       z     vdW  Elec       q    Type
REMARK                         _______ _______ _______ _____ _____    ______ ____
ROOT
ATOM      1  C   UNL     1       4.781   4.383  19.160  0.00  0.00    +0.000 A 
ATOM      2  C   UNL     1       4.108   3.215  19.539  0.00  0.00    +0.000 A 
ATOM      3  C   UNL     1       2.818   3.284  20.083  0.00  0.00    +0.000 A 
ATOM      4  C   UNL     1       2.166   4.514  20.236  0.00  0.00    +0.000 A 
ATOM      5  C   UNL     1       2.828   5.682  19.847  0.00  0.00    +0.000 A 
ATOM      6  C   UNL     1       4.127   5.605  19.330  0.00  0.00    +0.000 A 
ENDROOT
BRANCH   5   7
ATOM      7  C   UNL     1       2.206   7.033  19.887  0.00  0.00    +0.000 C 
ATOM      8  O   UNL     1       2.448   7.766  18.934  0.00  0.00    +0.000 OA
ATOM      9  N   UNL     1       1.429   7.333  20.986  0.00  0.00    +0.000 N 
ATOM     10  H   UNL     1       1.280   6.650  21.711  0.00  0.00    +0.000 HD
BRANCH   9  11
ATOM     11  C   UNL     1       0.942   8.601  21.213  0.00  0.00    +0.000 A 
ATOM     12  C   UNL     1       0.492   9.466  20.232  0.00  0.00    +0.000 A 
ATOM     13  N   UNL     1       0.022  10.549  20.923  0.00  0.00    +0.000 N 
ATOM     14  C   UNL     1      -0.657  11.679  20.457  0.00  0.00    +0.000 A 
ATOM     15  C   UNL     1      -1.708  12.069  21.214  0.00  0.00    +0.000 A 
ATOM     16  C   UNL     1      -1.377  11.903  22.685  0.00  0.00    +0.000 A 
ATOM     17  N   UNL     1      -0.515  11.073  23.188  0.00  0.00    +0.000 NA
ATOM     18  C   UNL     1       0.098  10.257  22.279  0.00  0.00    +0.000 A 
ATOM     19  N   UNL     1       0.747   9.130  22.452  0.00  0.00    +0.000 NA
ENDBRANCH   9  11
ENDBRANCH   5   7
BRANCH   1  20
ATOM     20  C   UNL     1       6.183   4.332  18.589  0.00  0.00    +0.000 C 
BRANCH  20  26
ATOM     21  C   UNL     1       5.936   3.820  13.780  0.00  0.00    +0.000 C 
ATOM     22  C   UNL     1       6.195   4.480  15.080  0.00  0.00    +0.000 A 
ATOM     23  C   UNL     1       6.808   5.729  15.302  0.00  0.00    +0.000 A 
ATOM     24  C   UNL     1       6.857   5.875  16.673  0.00  0.00    +0.000 A 
ATOM     25  C   UNL     1       7.420   6.985  17.480  0.00  0.00    +0.000 C 
ATOM     26  N   UNL     1       6.258   4.749  17.196  0.00  0.00    +0.000 N 
ATOM     27  N   UNL     1       5.863   3.878  16.231  0.00  0.00    +0.000 NA
ENDBRANCH  20  26
ENDBRANCH   1  20
TORSDOF 4
ENDMDL
MODEL 3
REMARK VINA RESULT:      -8.2      1.012      1.026
REMARK  Name = 
REMARK  6 active torsions:
REMARK  status: ('A' for Active; 'I' for Inactive)
REMARK    1  A    between atoms: C_1  and  C_2
REMARK    2  A    between atoms: C_4  and  C_5
REMARK    3  A    between atoms: N_6  and  C_7
REMARK    4  A    between atoms: C_7  and  C_8
REMARK    5  A    between atoms: C_12  and  C_13
REMARK    6  A    between atoms: N_15  and  C_16
REMARK                            x       y       z     vdW  Elec       q    Type
REMARK                         _______ _______ _______ _____ _____    ______ ____
ROOT
ATOM      1  C   UNL     1       5.044   5.678  17.054  0.00  0.00    +0.000 A 
ATOM      2  C   UNL     1       4.542   4.378  16.924  0.00  0.00    +0.000 A 
ATOM      3  C   UNL     1       3.270   4.055  17.417  0.00  0.00    +0.000 A 
ATOM      4  C   UNL     1       2.467   5.028  18.026  0.00  0.00    +0.000 A 
ATOM      5  C   UNL     1       2.958   6.331  18.145  0.00  0.00    +0.000 A 
ATOM      6  C   UNL     1       4.241   6.637  17.674  0.00  0.00    +0.000 A 
ENDROOT
BRANCH   5   7
ATOM      7  C   UNL     1       2.164   7.462  18.699  0.00  0.00    +0.000 C 
ATOM      8  O   UNL     1       1.699   8.245  17.878  0.00  0.00    +0.000 OA
ATOM      9  N   UNL     1       2.035   7.526  20.071  0.00  0.00    +0.000 N 
ATOM     10  H   UNL     1       2.448   6.819  20.658  0.00  0.00    +0.000 HD
BRANCH   9  11
ATOM     11  C   UNL     1       1.470   8.611  20.702  0.00  0.00    +0.000 A 
ATOM     12  C   UNL     1       1.023   9.755  20.066  0.00  0.00    +0.000 A 
ATOM     13  N   UNL     1       0.461  10.501  21.065  0.00  0.00    +0.000 N 
ATOM     14  C   UNL     1      -0.255  11.700  20.990  0.00  0.00    +0.000 A 
ATOM     15  C   UNL     1      -1.362  11.757  21.765  0.00  0.00    +0.000 A 
ATOM     16  C   UNL     1      -1.095  11.085  23.098  0.00  0.00    +0.000 A 
ATOM     17  N   UNL     1      -0.215  10.159  23.328  0.00  0.00    +0.000 NA
ATOM     18  C   UNL     1       0.485   9.745  22.230  0.00  0.00    +0.000 A 
ATOM     19  N   UNL     1       1.185   8.653  22.032  0.00  0.00    +0.000 NA
ENDBRANCH   9  11
ENDBRANCH   5   7
BRANCH   1  20
ATOM     20  C   UNL     1       6.425   6.042  16.546  0.00  0.00    +0.000 C 
BRANCH  20  26
ATOM     21  C   UNL     1       8.665  10.103  17.938  0.00  0.00    +0.000 C 
ATOM     22  C   UNL     1       8.189   8.702  18.010  0.00  0.00    +0.000 A 
ATOM     23  C   UNL     1       8.518   7.732  18.976  0.00  0.00    +0.000 A 
ATOM     24  C   UNL     1       7.860   6.584  18.582  0.00  0.00    +0.000 A 
ATOM     25  C   UNL     1       7.863   5.239  19.207  0.00  0.00    +0.000 C 
ATOM     26  N   UNL     1       7.160   6.921  17.444  0.00  0.00    +0.000 N 
ATOM     27  N   UNL     1       7.366   8.211  17.072  0.00  0.00    +0.000 NA
ENDBRANCH  20  26
ENDBRANCH   1  20
TORSDOF 4
ENDMDL
MODEL 4
REMARK VINA RESULT:      -8.1      3.316      8.767
REMARK  Name = 
REMARK  6 active torsions:
REMARK  status: ('A' for Active; 'I' for Inactive)
REMARK    1  A    between atoms: C_1  and  C_2
REMARK    2  A    between atoms: C_4  and  C_5
REMARK    3  A    between atoms: N_6  and  C_7
REMARK    4  A    between atoms: C_7  and  C_8
REMARK    5  A    between atoms: C_12  and  C_13
REMARK    6  A    between atoms: N_15  and  C_16
REMARK                            x       y       z     vdW  Elec       q    Type
REMARK                         _______ _______ _______ _____ _____    ______ ____
ROOT
ATOM      1  C   UNL     1      -0.442  11.206  20.413  0.00  0.00    +0.000 A 
ATOM      2  C   UNL     1      -0.647  11.352  21.790  0.00  0.00    +0.000 A 
ATOM      3  C   UNL     1      -0.208  10.363  22.683  0.00  0.00    +0.000 A 
ATOM      4  C   UNL     1       0.463   9.224  22.221  0.00  0.00    +0.000 A 
ATOM      5  C   UNL     1       0.682   9.080  20.849  0.00  0.00    +0.000 A 
ATOM      6  C   UNL     1       0.217  10.059  19.963  0.00  0.00    +0.000 A 
ENDROOT
BRANCH   5   7
ATOM      7  C   UNL     1       1.453   7.955  20.252  0.00  0.00    +0.000 C 
ATOM      8  O   UNL     1       1.986   8.181  19.171  0.00  0.00    +0.000 OA
ATOM      9  N   UNL     1       1.489   6.773  20.963  0.00  0.00    +0.000 N 
ATOM     10  H   UNL     1       1.027   6.696  21.854  0.00  0.00    +0.000 HD
BRANCH   9  11
ATOM     11  C   UNL     1       2.027   5.620  20.436  0.00  0.00    +0.000 A 
ATOM     12  C   UNL     1       1.346   4.426  20.280  0.00  0.00    +0.000 A 
ATOM     13  N   UNL     1       2.237   3.609  19.640  0.00  0.00    +0.000 N 
ATOM     14  C   UNL     1       2.056   2.323  19.121  0.00  0.00    +0.000 A 
ATOM     15  C   UNL     1       2.604   2.114  17.902  0.00  0.00    +0.000 A 
ATOM     16  C   UNL     1       3.946   2.815  17.811  0.00  0.00    +0.000 A 
ATOM     17  N   UNL     1       4.318   3.853  18.497  0.00  0.00    +0.000 NA
ATOM     18  C   UNL     1       3.365   4.360  19.335  0.00  0.00    +0.000 A 
ATOM     19  N   UNL     1       3.278   5.538  19.907  0.00  0.00    +0.000 NA
ENDBRANCH   9  11
ENDBRANCH   5   7
BRANCH   1  20
ATOM     20  C   UNL     1      -0.926  12.253  19.430  0.00  0.00    +0.000 C 
BRANCH  20  26
ATOM     21  C   UNL     1      -3.329  10.717  15.517  0.00  0.00    +0.000 C 
ATOM     22  C   UNL     1      -3.124  11.206  16.900  0.00  0.00    +0.000 A 
ATOM     23  C   UNL     1      -4.110  11.588  17.831  0.00  0.00    +0.000 A 
ATOM     24  C   UNL     1      -3.418  12.006  18.949  0.00  0.00    +0.000 A 
ATOM     25  C   UNL     1      -3.938  12.542  20.230  0.00  0.00    +0.000 C 
ATOM     26  N   UNL     1      -2.083  11.829  18.655  0.00  0.00    +0.000 N 
ATOM     27  N   UNL     1      -1.888  11.356  17.397  0.00  0.00    +0.000 NA
ENDBRANCH  20  26
ENDBRANCH   1  20
TORSDOF 4
ENDMDL
MODEL 5
REMARK VINA RESULT:      -8.1      2.512      8.709
REMARK  Name = 
REMARK  6 active torsions:
REMARK  status: ('A' for Active; 'I' for Inactive)
REMARK    1  A    between atoms: C_1  and  C_2
REMARK    2  A    between atoms: C_4  and  C_5
REMARK    3  A    between atoms: N_6  and  C_7
REMARK    4  A    between atoms: C_7  and  C_8
REMARK    5  A    between atoms: C_12  and  C_13
REMARK    6  A    between atoms: N_15  and  C_16
REMARK                            x       y       z     vdW  Elec       q    Type
REMARK                         _______ _______ _______ _____ _____    ______ ____
ROOT
ATOM      1  C   UNL     1       0.522  10.065  19.645  0.00  0.00    +0.000 A 
ATOM      2  C   UNL     1       0.154  10.048  20.996  0.00  0.00    +0.000 A 
ATOM      3  C   UNL     1       0.543   8.985  21.824  0.00  0.00    +0.000 A 
ATOM      4  C   UNL     1       1.323   7.934  21.327  0.00  0.00    +0.000 A 
ATOM      5  C   UNL     1       1.704   7.954  19.983  0.00  0.00    +0.000 A 
ATOM      6  C   UNL     1       1.289   9.005  19.157  0.00  0.00    +0.000 A 
ENDROOT
BRANCH   5   7
ATOM      7  C   UNL     1       2.598   6.936  19.366  0.00  0.00    +0.000 C 
ATOM      8  O   UNL     1       2.744   5.895  19.997  0.00  0.00    +0.000 OA
ATOM      9  N   UNL     1       3.179   7.261  18.158  0.00  0.00    +0.000 N 
ATOM     10  H   UNL     1       2.980   8.143  17.714  0.00  0.00    +0.000 HD
BRANCH   9  11
ATOM     11  C   UNL     1       4.148   6.474  17.577  0.00  0.00    +0.000 A 
ATOM     12  C   UNL     1       3.964   5.169  17.157  0.00  0.00    +0.000 A 
ATOM     13  N   UNL     1       5.151   4.832  16.567  0.00  0.00    +0.000 N 
ATOM     14  C   UNL     1       5.501   3.678  15.859  0.00  0.00    +0.000 A 
ATOM     15  C   UNL     1       6.211   3.891  14.728  0.00  0.00    +0.000 A 
ATOM     16  C   UNL     1       7.212   5.009  14.949  0.00  0.00    +0.000 A 
ATOM     17  N   UNL     1       7.111   5.969  15.817  0.00  0.00    +0.000 NA
ATOM     18  C   UNL     1       5.957   5.963  16.550  0.00  0.00    +0.000 A 
ATOM     19  N   UNL     1       5.392   6.918  17.251  0.00  0.00    +0.000 NA
ENDBRANCH   9  11
ENDBRANCH   5   7
BRANCH   1  20
ATOM     20  C   UNL     1       0.095  11.194  18.729  0.00  0.00    +0.000 C 
BRANCH  20  26
ATOM     21  C   UNL     1      -3.303   9.931  15.519  0.00  0.00    +0.000 C 
ATOM     22  C   UNL     1      -2.725  10.522  16.748  0.00  0.00    +0.000 A 
ATOM     23  C   UNL     1      -3.383  11.309  17.714  0.00  0.00    +0.000 A 
ATOM     24  C   UNL     1      -2.412  11.649  18.634  0.00  0.00    +0.000 A 
ATOM     25  C   UNL     1      -2.524  12.489  19.851  0.00  0.00    +0.000 C 
ATOM     26  N   UNL     1      -1.253  11.037  18.205  0.00  0.00    +0.000 N 
ATOM     27  N   UNL     1      -1.427  10.358  17.041  0.00  0.00    +0.000 NA
ENDBRANCH  20  26
ENDBRANCH   1  20
TORSDOF 4
ENDMDL
MODEL 6
REMARK VINA RESULT:      -8.1      4.296      8.135
REMARK  Name = 
REMARK  6 active torsions:
REMARK  status: ('A' for Active; 'I' for Inactive)
REMARK    1  A    between atoms: C_1  and  C_2
REMARK    2  A    between atoms: C_4  and  C_5
REMARK    3  A    between atoms: N_6  and  C_7
REMARK    4  A    between atoms: C_7  and  C_8
REMARK    5  A    between atoms: C_12  and  C_13
REMARK    6  A    between atoms: N_15  and  C_16
REMARK                            x       y       z     vdW  Elec       q    Type
REMARK                         _______ _______ _______ _____ _____    ______ ____
ROOT
ATOM      1  C   UNL     1       6.127   6.084  17.374  0.00  0.00    +0.000 A 
ATOM      2  C   UNL     1       6.744   5.167  18.233  0.00  0.00    +0.000 A 
ATOM      3  C   UNL     1       7.862   5.544  18.990  0.00  0.00    +0.000 A 
ATOM      4  C   UNL     1       8.370   6.848  18.923  0.00  0.00    +0.000 A 
ATOM      5  C   UNL     1       7.749   7.771  18.077  0.00  0.00    +0.000 A 
ATOM      6  C   UNL     1       6.649   7.377  17.305  0.00  0.00    +0.000 A 
ENDROOT
BRANCH   5   7
ATOM      7  C   UNL     1       8.148   9.202  17.985  0.00  0.00    +0.000 C 
ATOM      8  O   UNL     1       7.587   9.863  17.119  0.00  0.00    +0.000 OA
ATOM      9  N   UNL     1       9.109   9.643  18.872  0.00  0.00    +0.000 N 
ATOM     10  H   UNL     1       9.498   9.018  19.559  0.00  0.00    +0.000 HD
BRANCH   9  11
ATOM     11  C   UNL     1       9.675  10.894  18.774  0.00  0.00    +0.000 A 
ATOM     12  C   UNL     1      10.679  11.244  17.888  0.00  0.00    +0.000 A 
ATOM     13  N   UNL     1      10.850  12.587  18.082  0.00  0.00    +0.000 N 
ATOM     14  C   UNL     1      11.647  13.496  17.379  0.00  0.00    +0.000 A 
ATOM     15  C   UNL     1      11.058  14.682  17.104  0.00  0.00    +0.000 A 
ATOM     16  C   UNL     1      10.214  15.127  18.283  0.00  0.00    +0.000 A 
ATOM     17  N   UNL     1       9.680  14.354  19.180  0.00  0.00    +0.000 NA
ATOM     18  C   UNL     1       9.882  13.017  18.980  0.00  0.00    +0.000 A 
ATOM     19  N   UNL     1       9.246  11.980  19.473  0.00  0.00    +0.000 NA
ENDBRANCH   9  11
ENDBRANCH   5   7
BRANCH   1  20
ATOM     20  C   UNL     1       4.930   5.690  16.532  0.00  0.00    +0.000 C 
BRANCH  20  26
ATOM     21  C   UNL     1       1.946   2.204  18.079  0.00  0.00    +0.000 C 
ATOM     22  C   UNL     1       2.506   3.567  17.928  0.00  0.00    +0.000 A 
ATOM     23  C   UNL     1       1.960   4.777  18.399  0.00  0.00    +0.000 A 
ATOM     24  C   UNL     1       2.825   5.762  17.970  0.00  0.00    +0.000 A 
ATOM     25  C   UNL     1       2.740   7.232  18.152  0.00  0.00    +0.000 C 
ATOM     26  N   UNL     1       3.842   5.110  17.306  0.00  0.00    +0.000 N 
ATOM     27  N   UNL     1       3.651   3.767  17.258  0.00  0.00    +0.000 NA
ENDBRANCH  20  26
ENDBRANCH   1  20
TORSDOF 4
ENDMDL
MODEL 7
REMARK VINA RESULT:      -8.1      3.258      5.314
REMARK  Name = 
REMARK  6 active torsions:
REMARK  status: ('A' for Active; 'I' for Inactive)
REMARK    1  A    between atoms: C_1  and  C_2
REMARK    2  A    between atoms: C_4  and  C_5
REMARK    3  A    between atoms: N_6  and  C_7
REMARK    4  A    between atoms: C_7  and  C_8
REMARK    5  A    between atoms: C_12  and  C_13
REMARK    6  A    between atoms: N_15  and  C_16
REMARK                            x       y       z     vdW  Elec       q    Type
REMARK                         _______ _______ _______ _____ _____    ______ ____
ROOT
ATOM      1  C   UNL     1       2.475   7.254  19.279  0.00  0.00    +0.000 A 
ATOM      2  C   UNL     1       2.449   7.798  17.990  0.00  0.00    +0.000 A 
ATOM      3  C   UNL     1       1.757   8.991  17.736  0.00  0.00    +0.000 A 
ATOM      4  C   UNL     1       1.100   9.674  18.767  0.00  0.00    +0.000 A 
ATOM      5  C   UNL     1       1.134   9.142  20.059  0.00  0.00    +0.000 A 
ATOM      6  C   UNL     1       1.805   7.936  20.297  0.00  0.00    +0.000 A 
ENDROOT
BRANCH   5   7
ATOM      7  C   UNL     1       0.542   9.820  21.245  0.00  0.00    +0.000 C 
ATOM      8  O   UNL     1       0.639   9.221  22.310  0.00  0.00    +0.000 OA
ATOM      9  N   UNL     1      -0.060  11.042  21.032  0.00  0.00    +0.000 N 
ATOM     10  H   UNL     1      -0.072  11.455  20.114  0.00  0.00    +0.000 HD
BRANCH   9  11
ATOM     11  C   UNL     1      -0.783  11.681  22.014  0.00  0.00    +0.000 A 
ATOM     12  C   UNL     1      -0.581  12.986  22.427  0.00  0.00    +0.000 A 
ATOM     13  N   UNL     1      -1.577  13.213  23.336  0.00  0.00    +0.000 N 
ATOM     14  C   UNL     1      -1.938  14.396  23.989  0.00  0.00    +0.000 A 
ATOM     15  C   UNL     1      -3.268  14.632  24.055  0.00  0.00    +0.000 A 
ATOM     16  C   UNL     1      -4.012  13.335  24.312  0.00  0.00    +0.000 A 
ATOM     17  N   UNL     1      -3.601  12.141  24.009  0.00  0.00    +0.000 NA
ATOM     18  C   UNL     1      -2.401  12.095  23.356  0.00  0.00    +0.000 A 
ATOM     19  N   UNL     1      -1.862  11.137  22.640  0.00  0.00    +0.000 NA
ENDBRANCH   9  11
ENDBRANCH   5   7
BRANCH   1  20
ATOM     20  C   UNL     1       3.200   5.955  19.570  0.00  0.00    +0.000 C 
BRANCH  20  26
ATOM     21  C   UNL     1       1.216   2.422  22.222  0.00  0.00    +0.000 C 
ATOM     22  C   UNL     1       1.489   3.259  21.030  0.00  0.00    +0.000 A 
ATOM     23  C   UNL     1       1.041   3.047  19.711  0.00  0.00    +0.000 A 
ATOM     24  C   UNL     1       1.595   4.068  18.967  0.00  0.00    +0.000 A 
ATOM     25  C   UNL     1       1.487   4.335  17.512  0.00  0.00    +0.000 C 
ATOM     26  N   UNL     1       2.306   4.843  19.857  0.00  0.00    +0.000 N 
ATOM     27  N   UNL     1       2.264   4.349  21.122  0.00  0.00    +0.000 NA
ENDBRANCH  20  26
ENDBRANCH   1  20
TORSDOF 4
ENDMDL
MODEL 8
REMARK VINA RESULT:      -8.1      1.544      2.492
REMARK  Name = 
REMARK  6 active torsions:
REMARK  status: ('A' for Active; 'I' for Inactive)
REMARK    1  A    between atoms: C_1  and  C_2
REMARK    2  A    between atoms: C_4  and  C_5
REMARK    3  A    between atoms: N_6  and  C_7
REMARK    4  A    between atoms: C_7  and  C_8
REMARK    5  A    between atoms: C_12  and  C_13
REMARK    6  A    between atoms: N_15  and  C_16
REMARK                            x       y       z     vdW  Elec       q    Type
REMARK                         _______ _______ _______ _____ _____    ______ ____
ROOT
ATOM      1  C   UNL     1       4.292   3.987  18.212  0.00  0.00    +0.000 A 
ATOM      2  C   UNL     1       3.478   3.021  17.607  0.00  0.00    +0.000 A 
ATOM      3  C   UNL     1       2.103   2.980  17.879  0.00  0.00    +0.000 A 
ATOM      4  C   UNL     1       1.512   3.913  18.739  0.00  0.00    +0.000 A 
ATOM      5  C   UNL     1       2.317   4.887  19.335  0.00  0.00    +0.000 A 
ATOM      6  C   UNL     1       3.693   4.904  19.079  0.00  0.00    +0.000 A 
ENDROOT
BRANCH   5   7
ATOM      7  C   UNL     1       1.787   5.977  20.200  0.00  0.00    +0.000 C 
ATOM      8  O   UNL     1       1.044   5.628  21.110  0.00  0.00    +0.000 OA
ATOM      9  N   UNL     1       2.174   7.265  19.893  0.00  0.00    +0.000 N 
ATOM     10  H   UNL     1       2.804   7.443  19.128  0.00  0.00    +0.000 HD
BRANCH   9  11
ATOM     11  C   UNL     1       1.620   8.362  20.513  0.00  0.00    +0.000 A 
ATOM     12  C   UNL     1       1.038   9.434  19.860  0.00  0.00    +0.000 A 
ATOM     13  N   UNL     1       0.549  10.220  20.867  0.00  0.00    +0.000 N 
ATOM     14  C   UNL     1      -0.240  11.372  20.797  0.00  0.00    +0.000 A 
ATOM     15  C   UNL     1      -1.255  11.428  21.689  0.00  0.00    +0.000 A 
ATOM     16  C   UNL     1      -0.802  10.867  23.024  0.00  0.00    +0.000 A 
ATOM     17  N   UNL     1       0.152  10.006  23.210  0.00  0.00    +0.000 NA
ATOM     18  C   UNL     1       0.747   9.551  22.068  0.00  0.00    +0.000 A 
ATOM     19  N   UNL     1       1.484   8.484  21.862  0.00  0.00    +0.000 NA
ENDBRANCH   9  11
ENDBRANCH   5   7
BRANCH   1  20
ATOM     20  C   UNL     1       5.783   4.036  17.948  0.00  0.00    +0.000 C 
BRANCH  20  26
ATOM     21  C   UNL     1       6.335   3.672  13.151  0.00  0.00    +0.000 C 
ATOM     22  C   UNL     1       6.405   4.279  14.500  0.00  0.00    +0.000 A 
ATOM     23  C   UNL     1       7.040   5.481  14.870  0.00  0.00    +0.000 A 
ATOM     24  C   UNL     1       6.861   5.586  16.234  0.00  0.00    +0.000 A 
ATOM     25  C   UNL     1       7.340   6.637  17.166  0.00  0.00    +0.000 C 
ATOM     26  N   UNL     1       6.119   4.486  16.605  0.00  0.00    +0.000 N 
ATOM     27  N   UNL     1       5.847   3.667  15.555  0.00  0.00    +0.000 NA
ENDBRANCH  20  26
ENDBRANCH   1  20
TORSDOF 4
ENDMDL
MODEL 9
REMARK VINA RESULT:      -8.0      3.325      8.904
REMARK  Name = 
REMARK  6 active torsions:
REMARK  status: ('A' for Active; 'I' for Inactive)
REMARK    1  A    between atoms: C_1  and  C_2
REMARK    2  A    between atoms: C_4  and  C_5
REMARK    3  A    between atoms: N_6  and  C_7
REMARK    4  A    between atoms: C_7  and  C_8
REMARK    5  A    between atoms: C_12  and  C_13
REMARK    6  A    between atoms: N_15  and  C_16
REMARK                            x       y       z     vdW  Elec       q    Type
REMARK                         _______ _______ _______ _____ _____    ______ ____
ROOT
ATOM      1  C   UNL     1      -0.328  11.077  20.630  0.00  0.00    +0.000 A 
ATOM      2  C   UNL     1      -0.584  11.143  22.005  0.00  0.00    +0.000 A 
ATOM      3  C   UNL     1      -0.198  10.094  22.851  0.00  0.00    +0.000 A 
ATOM      4  C   UNL     1       0.470   8.972  22.345  0.00  0.00    +0.000 A 
ATOM      5  C   UNL     1       0.740   8.907  20.975  0.00  0.00    +0.000 A 
ATOM      6  C   UNL     1       0.327   9.948  20.135  0.00  0.00    +0.000 A 
ENDROOT
BRANCH   5   7
ATOM      7  C   UNL     1       1.514   7.805  20.340  0.00  0.00    +0.000 C 
ATOM      8  O   UNL     1       2.022   8.062  19.254  0.00  0.00    +0.000 OA
ATOM      9  N   UNL     1       1.578   6.609  21.023  0.00  0.00    +0.000 N 
ATOM     10  H   UNL     1       1.134   6.507  21.921  0.00  0.00    +0.000 HD
BRANCH   9  11
ATOM     11  C   UNL     1       2.120   5.474  20.462  0.00  0.00    +0.000 A 
ATOM     12  C   UNL     1       1.451   4.275  20.292  0.00  0.00    +0.000 A 
ATOM     13  N   UNL     1       2.339   3.484  19.618  0.00  0.00    +0.000 N 
ATOM     14  C   UNL     1       2.164   2.208  19.073  0.00  0.00    +0.000 A 
ATOM     15  C   UNL     1       2.691   2.032  17.840  0.00  0.00    +0.000 A 
ATOM     16  C   UNL     1       4.022   2.752  17.740  0.00  0.00    +0.000 A 
ATOM     17  N   UNL     1       4.394   3.779  18.441  0.00  0.00    +0.000 NA
ATOM     18  C   UNL     1       3.452   4.255  19.308  0.00  0.00    +0.000 A 
ATOM     19  N   UNL     1       3.361   5.420  19.907  0.00  0.00    +0.000 NA
ENDBRANCH   9  11
ENDBRANCH   5   7
BRANCH   1  20
ATOM     20  C   UNL     1      -0.755  12.192  19.697  0.00  0.00    +0.000 C 
BRANCH  20  26
ATOM     21  C   UNL     1      -5.537  12.811  20.142  0.00  0.00    +0.000 C 
ATOM     22  C   UNL     1      -4.260  12.350  19.550  0.00  0.00    +0.000 A 
ATOM     23  C   UNL     1      -4.085  11.486  18.451  0.00  0.00    +0.000 A 
ATOM     24  C   UNL     1      -2.721  11.330  18.320  0.00  0.00    +0.000 A 
ATOM     25  C   UNL     1      -1.958  10.509  17.347  0.00  0.00    +0.000 C 
ATOM     26  N   UNL     1      -2.154  12.114  19.302  0.00  0.00    +0.000 N 
ATOM     27  N   UNL     1      -3.086  12.730  20.074  0.00  0.00    +0.000 NA
ENDBRANCH  20  26
ENDBRANCH   1  20
TORSDOF 4
ENDMDL
