MODEL 1
REMARK VINA RESULT:      -8.4      0.000      0.000
REMARK  Name = 
REMARK  4 active torsions:
REMARK  status: ('A' for Active; 'I' for Inactive)
REMARK    1  A    between atoms: C_1  and  C_2
REMARK    2  A    between atoms: C_2  and  C_3
REMARK    3  A    between atoms: C_14  and  C_16
REMARK    4  A    between atoms: C_16  and  N_17
REMARK                            x       y       z     vdW  Elec       q    Type
REMARK                         _______ _______ _______ _____ _____    ______ ____
ROOT
ATOM      1  C   UNL     1       1.754   4.347  19.975  0.00  0.00    +0.000 C 
ATOM      2  C   UNL     1       2.567   4.277  18.675  0.00  0.00    +0.000 C 
ATOM      3  C   UNL     1       1.571   3.849  17.567  0.00  0.00    +0.000 C 
ATOM      4  C   UNL     1       3.565   3.105  18.888  0.00  0.00    +0.000 C 
ATOM      5  O   UNL     1       3.428   2.224  19.738  0.00  0.00    +0.000 OA
ATOM      6  N   UNL     1       4.531   2.954  17.942  0.00  0.00    +0.000 N 
ATOM      7  C   UNL     1       4.838   3.943  17.013  0.00  0.00    +0.000 A 
ATOM      8  C   UNL     1       5.768   3.614  16.017  0.00  0.00    +0.000 A 
ATOM      9  C   UNL     1       6.170   4.574  15.098  0.00  0.00    +0.000 A 
ATOM     10  C   UNL     1       5.644   5.854  15.178  0.00  0.00    +0.000 A 
ATOM     11  C   UNL     1       4.701   6.176  16.165  0.00  0.00    +0.000 A 
ATOM     12  C   UNL     1       4.281   5.231  17.118  0.00  0.00    +0.000 A 
ATOM     13  N   UNL     1       3.315   5.526  18.201  0.00  0.00    +0.000 N 
ATOM     14  C   UNL     1       3.141   6.860  18.594  0.00  0.00    +0.000 C 
ATOM     15  O   UNL     1       3.804   7.797  18.116  0.00  0.00    +0.000 OA
ATOM     16  H   UNL     1       5.076   2.103  17.989  0.00  0.00    +0.000 HD
ENDROOT
BRANCH  14  17
ATOM     17  C   UNL     1       2.272   7.291  19.777  0.00  0.00    +0.000 C 
BRANCH  17  18
ATOM     18  N   UNL     1       1.517   8.516  19.532  0.00  0.00    +0.000 N 
ATOM     19  C   UNL     1       1.207   8.900  18.236  0.00  0.00    +0.000 A 
ATOM     20  N   UNL     1       0.588   9.982  17.894  0.00  0.00    +0.000 NA
ATOM     21  C   UNL     1       0.140  10.718  18.937  0.00  0.00    +0.000 A 
ATOM     22  S   UNL     1      -0.660  12.205  18.697  0.00  0.00    +0.000 S 
ATOM     23  C   UNL     1      -1.105  12.291  20.347  0.00  0.00    +0.000 A 
ATOM     24  C   UNL     1      -0.553  11.265  21.086  0.00  0.00    +0.000 A 
ATOM     25  C   UNL     1       0.209  10.376  20.268  0.00  0.00    +0.000 A 
ATOM     26  C   UNL     1       0.949   9.178  20.626  0.00  0.00    +0.000 A 
ATOM     27  O   UNL     1       1.059   8.793  21.787  0.00  0.00    +0.000 OA
ENDBRANCH  17  18
ENDBRANCH  14  17
TORSDOF 2
ENDMDL
MODEL 2
REMARK VINA RESULT:      -8.3      3.814      7.541
REMARK  Name = 
REMARK  4 active torsions:
REMARK  status: ('A' for Active; 'I' for Inactive)
REMARK    1  A    between atoms: C_1  and  C_2
REMARK    2  A    between atoms: C_2  and  C_3
REMARK    3  A    between atoms: C_14  and  C_16
REMARK    4  A    between atoms: C_16  and  N_17
REMARK                            x       y       z     vdW  Elec       q    Type
REMARK                         _______ _______ _______ _____ _____    ______ ____
ROOT
ATOM      1  C   UNL     1       3.598   7.181  17.767  0.00  0.00    +0.000 C 
ATOM      2  C   UNL     1       2.968   6.030  18.565  0.00  0.00    +0.000 C 
ATOM      3  C   UNL     1       1.886   5.410  17.644  0.00  0.00    +0.000 C 
ATOM      4  C   UNL     1       2.239   6.717  19.753  0.00  0.00    +0.000 C 
ATOM      5  O   UNL     1       1.929   7.908  19.780  0.00  0.00    +0.000 OA
ATOM      6  N   UNL     1       1.750   5.892  20.719  0.00  0.00    +0.000 N 
ATOM      7  C   UNL     1       2.133   4.560  20.839  0.00  0.00    +0.000 A 
ATOM      8  C   UNL     1       1.464   3.790  21.800  0.00  0.00    +0.000 A 
ATOM      9  C   UNL     1       1.841   2.472  22.019  0.00  0.00    +0.000 A 
ATOM     10  C   UNL     1       2.882   1.931  21.279  0.00  0.00    +0.000 A 
ATOM     11  C   UNL     1       3.539   2.699  20.307  0.00  0.00    +0.000 A 
ATOM     12  C   UNL     1       3.190   4.040  20.069  0.00  0.00    +0.000 A 
ATOM     13  N   UNL     1       3.871   4.905  19.079  0.00  0.00    +0.000 N 
ATOM     14  C   UNL     1       5.172   4.567  18.681  0.00  0.00    +0.000 C 
ATOM     15  O   UNL     1       5.799   3.610  19.166  0.00  0.00    +0.000 OA
ATOM     16  H   UNL     1       1.139   6.317  21.403  0.00  0.00    +0.000 HD
ENDROOT
BRANCH  14  17
ATOM     17  C   UNL     1       6.033   5.438  17.765  0.00  0.00    +0.000 C 
BRANCH  17  18
ATOM     18  N   UNL     1       6.092   4.957  16.387  0.00  0.00    +0.000 N 
ATOM     19  C   UNL     1       5.091   4.138  15.889  0.00  0.00    +0.000 A 
ATOM     20  N   UNL     1       5.059   3.614  14.708  0.00  0.00    +0.000 NA
ATOM     21  C   UNL     1       6.065   4.013  13.896  0.00  0.00    +0.000 A 
ATOM     22  S   UNL     1       6.227   3.400  12.313  0.00  0.00    +0.000 S 
ATOM     23  C   UNL     1       7.440   4.546  11.937  0.00  0.00    +0.000 A 
ATOM     24  C   UNL     1       7.796   5.303  13.035  0.00  0.00    +0.000 A 
ATOM     25  C   UNL     1       7.023   4.958  14.186  0.00  0.00    +0.000 A 
ATOM     26  C   UNL     1       7.062   5.496  15.535  0.00  0.00    +0.000 A 
ATOM     27  O   UNL     1       7.878   6.345  15.882  0.00  0.00    +0.000 OA
ENDBRANCH  17  18
ENDBRANCH  14  17
TORSDOF 2
ENDMDL
MODEL 3
REMARK VINA RESULT:      -7.9      2.346      3.976
REMARK  Name = 
REMARK  4 active torsions:
REMARK  status: ('A' for Active; 'I' for Inactive)
REMARK    1  A    between atoms: C_1  and  C_2
REMARK    2  A    between atoms: C_2  and  C_3
REMARK    3  A    between atoms: C_14  and  C_16
REMARK    4  A    between atoms: C_16  and  N_17
REMARK                            x       y       z     vdW  Elec       q    Type
REMARK                         _______ _______ _______ _____ _____    ______ ____
ROOT
ATOM      1  C   UNL     1       6.413   5.787  19.300  0.00  0.00    +0.000 C 
ATOM      2  C   UNL     1       6.764   5.294  17.889  0.00  0.00    +0.000 C 
ATOM      3  C   UNL     1       7.895   4.250  18.068  0.00  0.00    +0.000 C 
ATOM      4  C   UNL     1       7.373   6.531  17.171  0.00  0.00    +0.000 C 
ATOM      5  O   UNL     1       7.817   7.520  17.754  0.00  0.00    +0.000 OA
ATOM      6  N   UNL     1       7.599   6.402  15.836  0.00  0.00    +0.000 N 
ATOM      7  C   UNL     1       7.043   5.382  15.071  0.00  0.00    +0.000 A 
ATOM      8  C   UNL     1       7.454   5.293  13.733  0.00  0.00    +0.000 A 
ATOM      9  C   UNL     1       6.890   4.341  12.896  0.00  0.00    +0.000 A 
ATOM     10  C   UNL     1       5.921   3.484  13.395  0.00  0.00    +0.000 A 
ATOM     11  C   UNL     1       5.524   3.563  14.738  0.00  0.00    +0.000 A 
ATOM     12  C   UNL     1       6.067   4.524  15.610  0.00  0.00    +0.000 A 
ATOM     13  N   UNL     1       5.661   4.674  17.026  0.00  0.00    +0.000 N 
ATOM     14  C   UNL     1       4.409   4.180  17.417  0.00  0.00    +0.000 C 
ATOM     15  O   UNL     1       3.601   3.678  16.616  0.00  0.00    +0.000 OA
ATOM     16  H   UNL     1       8.141   7.137  15.401  0.00  0.00    +0.000 HD
ENDROOT
BRANCH  14  17
ATOM     17  C   UNL     1       3.815   4.378  18.813  0.00  0.00    +0.000 C 
BRANCH  17  18
ATOM     18  N   UNL     1       3.155   5.669  18.990  0.00  0.00    +0.000 N 
ATOM     19  C   UNL     1       3.073   6.563  17.933  0.00  0.00    +0.000 A 
ATOM     20  N   UNL     1       2.558   7.748  17.982  0.00  0.00    +0.000 NA
ATOM     21  C   UNL     1       1.974   8.051  19.165  0.00  0.00    +0.000 A 
ATOM     22  S   UNL     1       1.278   9.582  19.446  0.00  0.00    +0.000 S 
ATOM     23  C   UNL     1       0.576   9.050  20.913  0.00  0.00    +0.000 A 
ATOM     24  C   UNL     1       0.963   7.766  21.237  0.00  0.00    +0.000 A 
ATOM     25  C   UNL     1       1.814   7.203  20.238  0.00  0.00    +0.000 A 
ATOM     26  C   UNL     1       2.442   5.895  20.172  0.00  0.00    +0.000 A 
ATOM     27  O   UNL     1       2.349   5.073  21.079  0.00  0.00    +0.000 OA
ENDBRANCH  17  18
ENDBRANCH  14  17
TORSDOF 2
ENDMDL
MODEL 4
REMARK VINA RESULT:      -7.9      3.816      7.369
REMARK  Name = 
REMARK  4 active torsions:
REMARK  status: ('A' for Active; 'I' for Inactive)
REMARK    1  A    between atoms: C_1  and  C_2
REMARK    2  A    between atoms: C_2  and  C_3
REMARK    3  A    between atoms: C_14  and  C_16
REMARK    4  A    between atoms: C_16  and  N_17
REMARK                            x       y       z     vdW  Elec       q    Type
REMARK                         _______ _______ _______ _____ _____    ______ ____
ROOT
ATOM      1  C   UNL     1       3.330   7.617  17.874  0.00  0.00    +0.000 C 
ATOM      2  C   UNL     1       2.891   6.343  18.611  0.00  0.00    +0.000 C 
ATOM      3  C   UNL     1       1.778   5.705  17.740  0.00  0.00    +0.000 C 
ATOM      4  C   UNL     1       2.231   6.846  19.925  0.00  0.00    +0.000 C 
ATOM      5  O   UNL     1       1.821   7.993  20.099  0.00  0.00    +0.000 OA
ATOM      6  N   UNL     1       1.919   5.894  20.846  0.00  0.00    +0.000 N 
ATOM      7  C   UNL     1       2.430   4.601  20.798  0.00  0.00    +0.000 A 
ATOM      8  C   UNL     1       1.934   3.685  21.736  0.00  0.00    +0.000 A 
ATOM      9  C   UNL     1       2.447   2.397  21.787  0.00  0.00    +0.000 A 
ATOM     10  C   UNL     1       3.450   2.028  20.903  0.00  0.00    +0.000 A 
ATOM     11  C   UNL     1       3.932   2.941  19.954  0.00  0.00    +0.000 A 
ATOM     12  C   UNL     1       3.443   4.257  19.883  0.00  0.00    +0.000 A 
ATOM     13  N   UNL     1       3.938   5.270  18.924  0.00  0.00    +0.000 N 
ATOM     14  C   UNL     1       5.216   5.098  18.372  0.00  0.00    +0.000 C 
ATOM     15  O   UNL     1       5.972   4.168  18.699  0.00  0.00    +0.000 OA
ATOM     16  H   UNL     1       1.347   6.194  21.624  0.00  0.00    +0.000 HD
ENDROOT
BRANCH  14  17
ATOM     17  C   UNL     1       5.897   6.128  17.469  0.00  0.00    +0.000 C 
BRANCH  17  18
ATOM     18  N   UNL     1       6.221   5.616  16.141  0.00  0.00    +0.000 N 
ATOM     19  C   UNL     1       7.498   5.773  15.623  0.00  0.00    +0.000 A 
ATOM     20  N   UNL     1       7.888   5.406  14.446  0.00  0.00    +0.000 NA
ATOM     21  C   UNL     1       6.956   4.725  13.739  0.00  0.00    +0.000 A 
ATOM     22  S   UNL     1       7.260   4.195  12.148  0.00  0.00    +0.000 S 
ATOM     23  C   UNL     1       5.827   3.260  12.130  0.00  0.00    +0.000 A 
ATOM     24  C   UNL     1       5.075   3.444  13.272  0.00  0.00    +0.000 A 
ATOM     25  C   UNL     1       5.715   4.334  14.189  0.00  0.00    +0.000 A 
ATOM     26  C   UNL     1       5.286   4.799  15.496  0.00  0.00    +0.000 A 
ATOM     27  O   UNL     1       4.199   4.496  15.979  0.00  0.00    +0.000 OA
ENDBRANCH  17  18
ENDBRANCH  14  17
TORSDOF 2
ENDMDL
MODEL 5
REMARK VINA RESULT:      -7.8      3.151      7.991
REMARK  Name = 
REMARK  4 active torsions:
REMARK  status: ('A' for Active; 'I' for Inactive)
REMARK    1  A    between atoms: C_1  and  C_2
REMARK    2  A    between atoms: C_2  and  C_3
REMARK    3  A    between atoms: C_14  and  C_16
REMARK    4  A    between atoms: C_16  and  N_17
REMARK                            x       y       z     vdW  Elec       q    Type
REMARK                         _______ _______ _______ _____ _____    ______ ____
ROOT
ATOM      1  C   UNL     1       2.082   9.981  17.514  0.00  0.00    +0.000 C 
ATOM      2  C   UNL     1       1.099  10.176  18.677  0.00  0.00    +0.000 C 
ATOM      3  C   UNL     1      -0.321  10.080  18.061  0.00  0.00    +0.000 C 
ATOM      4  C   UNL     1       1.312  11.643  19.142  0.00  0.00    +0.000 C 
ATOM      5  O   UNL     1       1.851  12.514  18.459  0.00  0.00    +0.000 OA
ATOM      6  N   UNL     1       0.682  12.010  20.291  0.00  0.00    +0.000 N 
ATOM      7  C   UNL     1       0.145  11.089  21.184  0.00  0.00    +0.000 A 
ATOM      8  C   UNL     1      -0.583  11.603  22.266  0.00  0.00    +0.000 A 
ATOM      9  C   UNL     1      -1.090  10.744  23.232  0.00  0.00    +0.000 A 
ATOM     10  C   UNL     1      -0.868   9.380  23.113  0.00  0.00    +0.000 A 
ATOM     11  C   UNL     1      -0.154   8.868  22.021  0.00  0.00    +0.000 A 
ATOM     12  C   UNL     1       0.383   9.711  21.032  0.00  0.00    +0.000 A 
ATOM     13  N   UNL     1       1.173   9.226  19.877  0.00  0.00    +0.000 N 
ATOM     14  C   UNL     1       1.801   7.977  19.974  0.00  0.00    +0.000 C 
ATOM     15  O   UNL     1       1.774   7.287  21.008  0.00  0.00    +0.000 OA
ATOM     16  H   UNL     1       0.685  12.998  20.507  0.00  0.00    +0.000 HD
ENDROOT
BRANCH  14  17
ATOM     17  C   UNL     1       2.744   7.415  18.909  0.00  0.00    +0.000 C 
BRANCH  17  18
ATOM     18  N   UNL     1       2.634   5.969  18.736  0.00  0.00    +0.000 N 
ATOM     19  C   UNL     1       1.623   5.433  17.953  0.00  0.00    +0.000 A 
ATOM     20  N   UNL     1       1.397   4.174  17.765  0.00  0.00    +0.000 NA
ATOM     21  C   UNL     1       2.317   3.355  18.325  0.00  0.00    +0.000 A 
ATOM     22  S   UNL     1       2.173   1.659  18.230  0.00  0.00    +0.000 S 
ATOM     23  C   UNL     1       3.748   1.438  18.860  0.00  0.00    +0.000 A 
ATOM     24  C   UNL     1       4.325   2.631  19.243  0.00  0.00    +0.000 A 
ATOM     25  C   UNL     1       3.470   3.742  18.971  0.00  0.00    +0.000 A 
ATOM     26  C   UNL     1       3.674   5.161  19.207  0.00  0.00    +0.000 A 
ATOM     27  O   UNL     1       4.674   5.598  19.771  0.00  0.00    +0.000 OA
ENDBRANCH  17  18
ENDBRANCH  14  17
TORSDOF 2
ENDMDL
MODEL 6
REMARK VINA RESULT:      -7.8      3.184      8.012
REMARK  Name = 
REMARK  4 active torsions:
REMARK  status: ('A' for Active; 'I' for Inactive)
REMARK    1  A    between atoms: C_1  and  C_2
REMARK    2  A    between atoms: C_2  and  C_3
REMARK    3  A    between atoms: C_14  and  C_16
REMARK    4  A    between atoms: C_16  and  N_17
REMARK                            x       y       z     vdW  Elec       q    Type
REMARK                         _______ _______ _______ _____ _____    ______ ____
ROOT
ATOM      1  C   UNL     1       1.082  11.937  20.460  0.00  0.00    +0.000 C 
ATOM      2  C   UNL     1      -0.122  12.004  19.510  0.00  0.00    +0.000 C 
ATOM      3  C   UNL     1       0.080  13.277  18.649  0.00  0.00    +0.000 C 
ATOM      4  C   UNL     1      -1.349  12.248  20.432  0.00  0.00    +0.000 C 
ATOM      5  O   UNL     1      -1.275  12.679  21.583  0.00  0.00    +0.000 OA
ATOM      6  N   UNL     1      -2.573  12.163  19.844  0.00  0.00    +0.000 N 
ATOM      7  C   UNL     1      -2.771  11.585  18.595  0.00  0.00    +0.000 A 
ATOM      8  C   UNL     1      -4.060  11.672  18.050  0.00  0.00    +0.000 A 
ATOM      9  C   UNL     1      -4.344  11.059  16.838  0.00  0.00    +0.000 A 
ATOM     10  C   UNL     1      -3.343  10.366  16.175  0.00  0.00    +0.000 A 
ATOM     11  C   UNL     1      -2.050  10.295  16.713  0.00  0.00    +0.000 A 
ATOM     12  C   UNL     1      -1.732  10.894  17.945  0.00  0.00    +0.000 A 
ATOM     13  N   UNL     1      -0.393  10.822  18.574  0.00  0.00    +0.000 N 
ATOM     14  C   UNL     1       0.465   9.779  18.199  0.00  0.00    +0.000 C 
ATOM     15  O   UNL     1       0.130   8.881  17.409  0.00  0.00    +0.000 OA
ATOM     16  H   UNL     1      -3.358  12.479  20.397  0.00  0.00    +0.000 HD
ENDROOT
BRANCH  14  17
ATOM     17  C   UNL     1       1.821   9.516  18.858  0.00  0.00    +0.000 C 
BRANCH  17  18
ATOM     18  N   UNL     1       2.202   8.107  18.867  0.00  0.00    +0.000 N 
ATOM     19  C   UNL     1       3.070   7.611  17.907  0.00  0.00    +0.000 A 
ATOM     20  N   UNL     1       3.441   6.378  17.785  0.00  0.00    +0.000 NA
ATOM     21  C   UNL     1       2.990   5.564  18.768  0.00  0.00    +0.000 A 
ATOM     22  S   UNL     1       3.331   3.893  18.763  0.00  0.00    +0.000 S 
ATOM     23  C   UNL     1       2.715   3.710  20.349  0.00  0.00    +0.000 A 
ATOM     24  C   UNL     1       2.155   4.878  20.825  0.00  0.00    +0.000 A 
ATOM     25  C   UNL     1       2.277   5.945  19.882  0.00  0.00    +0.000 A 
ATOM     26  C   UNL     1       1.836   7.326  19.969  0.00  0.00    +0.000 A 
ATOM     27  O   UNL     1       1.200   7.755  20.927  0.00  0.00    +0.000 OA
ENDBRANCH  17  18
ENDBRANCH  14  17
TORSDOF 2
ENDMDL
MODEL 7
REMARK VINA RESULT:      -7.6      2.090      3.728
REMARK  Name = 
REMARK  4 active torsions:
REMARK  status: ('A' for Active; 'I' for Inactive)
REMARK    1  A    between atoms: C_1  and  C_2
REMARK    2  A    between atoms: C_2  and  C_3
REMARK    3  A    between atoms: C_14  and  C_16
REMARK    4  A    between atoms: C_16  and  N_17
REMARK                            x       y       z     vdW  Elec       q    Type
REMARK                         _______ _______ _______ _____ _____    ______ ____
ROOT
ATOM      1  C   UNL     1       4.345   7.221  17.726  0.00  0.00    +0.000 C 
ATOM      2  C   UNL     1       4.063   5.867  18.392  0.00  0.00    +0.000 C 
ATOM      3  C   UNL     1       5.316   5.537  19.244  0.00  0.00    +0.000 C 
ATOM      4  C   UNL     1       4.008   4.847  17.220  0.00  0.00    +0.000 C 
ATOM      5  O   UNL     1       4.481   5.051  16.102  0.00  0.00    +0.000 OA
ATOM      6  N   UNL     1       3.586   3.592  17.532  0.00  0.00    +0.000 N 
ATOM      7  C   UNL     1       2.935   3.288  18.724  0.00  0.00    +0.000 A 
ATOM      8  C   UNL     1       2.663   1.936  18.974  0.00  0.00    +0.000 A 
ATOM      9  C   UNL     1       1.958   1.569  20.112  0.00  0.00    +0.000 A 
ATOM     10  C   UNL     1       1.529   2.550  20.992  0.00  0.00    +0.000 A 
ATOM     11  C   UNL     1       1.817   3.901  20.749  0.00  0.00    +0.000 A 
ATOM     12  C   UNL     1       2.519   4.308  19.600  0.00  0.00    +0.000 A 
ATOM     13  N   UNL     1       2.821   5.721  19.276  0.00  0.00    +0.000 N 
ATOM     14  C   UNL     1       2.028   6.722  19.854  0.00  0.00    +0.000 C 
ATOM     15  O   UNL     1       1.047   6.473  20.576  0.00  0.00    +0.000 OA
ATOM     16  H   UNL     1       3.704   2.889  16.815  0.00  0.00    +0.000 HD
ENDROOT
BRANCH  14  17
ATOM     17  C   UNL     1       2.151   8.208  19.510  0.00  0.00    +0.000 C 
BRANCH  17  18
ATOM     18  N   UNL     1       1.286   9.067  20.315  0.00  0.00    +0.000 N 
ATOM     19  C   UNL     1       1.511   9.208  21.676  0.00  0.00    +0.000 A 
ATOM     20  N   UNL     1       0.788   9.899  22.495  0.00  0.00    +0.000 NA
ATOM     21  C   UNL     1      -0.202  10.604  21.902  0.00  0.00    +0.000 A 
ATOM     22  S   UNL     1      -1.295  11.543  22.815  0.00  0.00    +0.000 S 
ATOM     23  C   UNL     1      -1.941  12.259  21.401  0.00  0.00    +0.000 A 
ATOM     24  C   UNL     1      -1.414  11.706  20.253  0.00  0.00    +0.000 A 
ATOM     25  C   UNL     1      -0.433  10.710  20.549  0.00  0.00    +0.000 A 
ATOM     26  C   UNL     1       0.365   9.888  19.656  0.00  0.00    +0.000 A 
ATOM     27  O   UNL     1       0.232   9.920  18.435  0.00  0.00    +0.000 OA
ENDBRANCH  17  18
ENDBRANCH  14  17
TORSDOF 2
ENDMDL
MODEL 8
REMARK VINA RESULT:      -7.6      3.288      8.681
REMARK  Name = 
REMARK  4 active torsions:
REMARK  status: ('A' for Active; 'I' for Inactive)
REMARK    1  A    between atoms: C_1  and  C_2
REMARK    2  A    between atoms: C_2  and  C_3
REMARK    3  A    between atoms: C_14  and  C_16
REMARK    4  A    between atoms: C_16  and  N_17
REMARK                            x       y       z     vdW  Elec       q    Type
REMARK                         _______ _______ _______ _____ _____    ______ ____
ROOT
ATOM      1  C   UNL     1       1.587  12.660  20.457  0.00  0.00    +0.000 C 
ATOM      2  C   UNL     1       0.112  12.848  20.072  0.00  0.00    +0.000 C 
ATOM      3  C   UNL     1       0.040  14.182  19.286  0.00  0.00    +0.000 C 
ATOM      4  C   UNL     1      -0.631  13.056  21.421  0.00  0.00    +0.000 C 
ATOM      5  O   UNL     1      -0.080  13.385  22.472  0.00  0.00    +0.000 OA
ATOM      6  N   UNL     1      -1.991  13.063  21.366  0.00  0.00    +0.000 N 
ATOM      7  C   UNL     1      -2.704  12.600  20.266  0.00  0.00    +0.000 A 
ATOM      8  C   UNL     1      -4.094  12.776  20.288  0.00  0.00    +0.000 A 
ATOM      9  C   UNL     1      -4.874  12.278  19.254  0.00  0.00    +0.000 A 
ATOM     10  C   UNL     1      -4.264  11.609  18.203  0.00  0.00    +0.000 A 
ATOM     11  C   UNL     1      -2.871  11.449  18.175  0.00  0.00    +0.000 A 
ATOM     12  C   UNL     1      -2.053  11.930  19.213  0.00  0.00    +0.000 A 
ATOM     13  N   UNL     1      -0.583  11.760  19.249  0.00  0.00    +0.000 N 
ATOM     14  C   UNL     1      -0.013  10.724  18.497  0.00  0.00    +0.000 C 
ATOM     15  O   UNL     1      -0.690   9.907  17.851  0.00  0.00    +0.000 OA
ATOM     16  H   UNL     1      -2.471  13.358  22.206  0.00  0.00    +0.000 HD
ENDROOT
BRANCH  14  17
ATOM     17  C   UNL     1       1.473  10.360  18.542  0.00  0.00    +0.000 C 
BRANCH  17  18
ATOM     18  N   UNL     1       1.727   9.003  19.018  0.00  0.00    +0.000 N 
ATOM     19  C   UNL     1       1.244   8.592  20.251  0.00  0.00    +0.000 A 
ATOM     20  N   UNL     1       1.445   7.437  20.796  0.00  0.00    +0.000 NA
ATOM     21  C   UNL     1       2.107   6.558  20.008  0.00  0.00    +0.000 A 
ATOM     22  S   UNL     1       2.511   4.997  20.561  0.00  0.00    +0.000 S 
ATOM     23  C   UNL     1       2.998   4.511  18.993  0.00  0.00    +0.000 A 
ATOM     24  C   UNL     1       2.963   5.556  18.094  0.00  0.00    +0.000 A 
ATOM     25  C   UNL     1       2.485   6.759  18.699  0.00  0.00    +0.000 A 
ATOM     26  C   UNL     1       2.288   8.080  18.128  0.00  0.00    +0.000 A 
ATOM     27  O   UNL     1       2.591   8.349  16.969  0.00  0.00    +0.000 OA
ENDBRANCH  17  18
ENDBRANCH  14  17
TORSDOF 2
ENDMDL
MODEL 9
REMARK VINA RESULT:      -7.5      5.240      8.185
REMARK  Name = 
REMARK  4 active torsions:
REMARK  status: ('A' for Active; 'I' for Inactive)
REMARK    1  A    between atoms: C_1  and  C_2
REMARK    2  A    between atoms: C_2  and  C_3
REMARK    3  A    between atoms: C_14  and  C_16
REMARK    4  A    between atoms: C_16  and  N_17
REMARK                            x       y       z     vdW  Elec       q    Type
REMARK                         _______ _______ _______ _____ _____    ______ ____
ROOT
ATOM      1  C   UNL     1      -0.655  14.329  20.696  0.00  0.00    +0.000 C 
ATOM      2  C   UNL     1       0.124  13.017  20.526  0.00  0.00    +0.000 C 
ATOM      3  C   UNL     1       1.609  13.359  20.811  0.00  0.00    +0.000 C 
ATOM      4  C   UNL     1       0.002  12.670  19.016  0.00  0.00    +0.000 C 
ATOM      5  O   UNL     1      -0.305  13.481  18.142  0.00  0.00    +0.000 OA
ATOM      6  N   UNL     1       0.458  11.445  18.639  0.00  0.00    +0.000 N 
ATOM      7  C   UNL     1       0.720  10.425  19.548  0.00  0.00    +0.000 A 
ATOM      8  C   UNL     1       1.301   9.254  19.041  0.00  0.00    +0.000 A 
ATOM      9  C   UNL     1       1.528   8.172  19.880  0.00  0.00    +0.000 A 
ATOM     10  C   UNL     1       1.176   8.263  21.218  0.00  0.00    +0.000 A 
ATOM     11  C   UNL     1       0.610   9.441  21.726  0.00  0.00    +0.000 A 
ATOM     12  C   UNL     1       0.356  10.551  20.901  0.00  0.00    +0.000 A 
ATOM     13  N   UNL     1      -0.269  11.806  21.378  0.00  0.00    +0.000 N 
ATOM     14  C   UNL     1      -1.044  11.764  22.545  0.00  0.00    +0.000 C 
ATOM     15  O   UNL     1      -1.278  10.711  23.162  0.00  0.00    +0.000 OA
ATOM     16  H   UNL     1       0.531  11.281  17.644  0.00  0.00    +0.000 HD
ENDROOT
BRANCH  14  17
ATOM     17  C   UNL     1      -1.843  12.955  23.078  0.00  0.00    +0.000 C 
BRANCH  17  18
ATOM     18  N   UNL     1      -3.269  12.886  22.770  0.00  0.00    +0.000 N 
ATOM     19  C   UNL     1      -3.693  12.636  21.474  0.00  0.00    +0.000 A 
ATOM     20  N   UNL     1      -4.922  12.599  21.073  0.00  0.00    +0.000 NA
ATOM     21  C   UNL     1      -5.834  12.723  22.066  0.00  0.00    +0.000 A 
ATOM     22  S   UNL     1      -7.507  12.745  21.738  0.00  0.00    +0.000 S 
ATOM     23  C   UNL     1      -7.887  12.630  23.403  0.00  0.00    +0.000 A 
ATOM     24  C   UNL     1      -6.760  12.692  24.197  0.00  0.00    +0.000 A 
ATOM     25  C   UNL     1      -5.568  12.791  23.415  0.00  0.00    +0.000 A 
ATOM     26  C   UNL     1      -4.179  12.877  23.832  0.00  0.00    +0.000 A 
ATOM     27  O   UNL     1      -3.849  12.936  25.013  0.00  0.00    +0.000 OA
ENDBRANCH  17  18
ENDBRANCH  14  17
TORSDOF 2
ENDMDL
