MODEL 1
REMARK VINA RESULT:      -9.1      0.000      0.000
REMARK  Name = 
REMARK  5 active torsions:
REMARK  status: ('A' for Active; 'I' for Inactive)
REMARK    1  A    between atoms: C_1  and  C_2
REMARK    2  A    between atoms: C_7  and  O_8
REMARK    3  A    between atoms: O_8  and  C_9
REMARK    4  A    between atoms: N_15  and  C_16
REMARK    5  A    between atoms: C_18  and  C_19
REMARK                            x       y       z     vdW  Elec       q    Type
REMARK                         _______ _______ _______ _____ _____    ______ ____
ROOT
ATOM      1  C   UNL     1       4.321   4.743  17.027  0.00  0.00    +0.000 C 
ATOM      2  C   UNL     1       5.468   4.189  17.869  0.00  0.00    +0.000 C 
ATOM      3  C   UNL     1       6.483   5.190  18.409  0.00  0.00    +0.000 C 
ATOM      4  N   UNL     1       6.839   6.327  17.565  0.00  0.00    +0.000 N 
ATOM      5  C   UNL     1       7.839   7.163  18.119  0.00  0.00    +0.000 C 
ATOM      6  O   UNL     1       8.422   6.885  19.167  0.00  0.00    +0.000 OA
ATOM      7  N   UNL     1       8.106   8.331  17.434  0.00  0.00    +0.000 N 
ATOM      8  C   UNL     1       5.862   6.803  16.588  0.00  0.00    +0.000 C 
ATOM      9  C   UNL     1       4.842   5.793  16.050  0.00  0.00    +0.000 C 
ATOM     10  H   UNL     1       7.746   8.443  16.501  0.00  0.00    +0.000 HD
ENDROOT
BRANCH   7  11
ATOM     11  C   UNL     1       8.999   9.355  17.931  0.00  0.00    +0.000 C 
ATOM     12  C   UNL     1       8.766   9.926  19.304  0.00  0.00    +0.000 C 
ATOM     13  C   UNL     1       8.592  10.811  18.092  0.00  0.00    +0.000 C 
BRANCH  13  14
ATOM     14  C   UNL     1       9.575  11.960  17.904  0.00  0.00    +0.000 A 
ATOM     15  C   UNL     1      10.954  11.721  17.759  0.00  0.00    +0.000 A 
ATOM     16  C   UNL     1      11.869  12.770  17.604  0.00  0.00    +0.000 A 
ATOM     17  C   UNL     1      11.430  14.099  17.590  0.00  0.00    +0.000 A 
ATOM     18  C   UNL     1      12.333  15.171  17.432  0.00  0.00    +0.000 A 
ATOM     19  C   UNL     1      11.879  16.492  17.421  0.00  0.00    +0.000 A 
ATOM     20  C   UNL     1      10.518  16.756  17.566  0.00  0.00    +0.000 A 
ATOM     21  C   UNL     1       9.616  15.703  17.723  0.00  0.00    +0.000 A 
ATOM     22  C   UNL     1      10.055  14.370  17.739  0.00  0.00    +0.000 A 
ATOM     23  C   UNL     1       9.156  13.300  17.899  0.00  0.00    +0.000 A 
ENDBRANCH  13  14
ENDBRANCH   7  11
BRANCH   1  24
ATOM     24  O   UNL     1       3.209   5.221  17.810  0.00  0.00    +0.000 OA
BRANCH  24  31
ATOM     25  C   UNL     1       2.132   6.055  20.336  0.00  0.00    +0.000 C 
ATOM     26  C   UNL     1       1.883   4.708  19.733  0.00  0.00    +0.000 A 
ATOM     27  C   UNL     1       1.074   3.809  20.442  0.00  0.00    +0.000 A 
ATOM     28  N   UNL     1       0.734   2.582  20.008  0.00  0.00    +0.000 NA
ATOM     29  C   UNL     1       1.214   2.240  18.796  0.00  0.00    +0.000 A 
ATOM     30  C   UNL     1       2.022   3.056  18.010  0.00  0.00    +0.000 A 
ATOM     31  C   UNL     1       2.392   4.318  18.478  0.00  0.00    +0.000 A 
ENDBRANCH  24  31
ENDBRANCH   1  24
TORSDOF 4
ENDMDL
MODEL 2
REMARK VINA RESULT:      -8.6      5.732      9.431
REMARK  Name = 
REMARK  5 active torsions:
REMARK  status: ('A' for Active; 'I' for Inactive)
REMARK    1  A    between atoms: C_1  and  C_2
REMARK    2  A    between atoms: C_7  and  O_8
REMARK    3  A    between atoms: O_8  and  C_9
REMARK    4  A    between atoms: N_15  and  C_16
REMARK    5  A    between atoms: C_18  and  C_19
REMARK                            x       y       z     vdW  Elec       q    Type
REMARK                         _______ _______ _______ _____ _____    ______ ____
ROOT
ATOM      1  C   UNL     1       3.696   3.461  18.575  0.00  0.00    +0.000 C 
ATOM      2  C   UNL     1       3.052   4.396  17.553  0.00  0.00    +0.000 C 
ATOM      3  C   UNL     1       2.730   5.814  18.009  0.00  0.00    +0.000 C 
ATOM      4  N   UNL     1       2.271   6.004  19.382  0.00  0.00    +0.000 N 
ATOM      5  C   UNL     1       1.930   7.342  19.693  0.00  0.00    +0.000 C 
ATOM      6  O   UNL     1       1.921   8.233  18.845  0.00  0.00    +0.000 OA
ATOM      7  N   UNL     1       1.633   7.604  21.017  0.00  0.00    +0.000 N 
ATOM      8  C   UNL     1       2.687   5.037  20.396  0.00  0.00    +0.000 C 
ATOM      9  C   UNL     1       3.012   3.613  19.932  0.00  0.00    +0.000 C 
ATOM     10  H   UNL     1       1.478   6.833  21.644  0.00  0.00    +0.000 HD
ENDROOT
BRANCH   7  11
ATOM     11  C   UNL     1       1.395   8.936  21.526  0.00  0.00    +0.000 C 
ATOM     12  C   UNL     1       1.621   9.212  22.989  0.00  0.00    +0.000 C 
ATOM     13  C   UNL     1       0.221   9.288  22.427  0.00  0.00    +0.000 C 
BRANCH  13  14
ATOM     14  C   UNL     1      -0.457  10.653  22.389  0.00  0.00    +0.000 A 
ATOM     15  C   UNL     1       0.074  11.708  21.626  0.00  0.00    +0.000 A 
ATOM     16  C   UNL     1      -0.529  12.971  21.599  0.00  0.00    +0.000 A 
ATOM     17  C   UNL     1      -1.690  13.220  22.340  0.00  0.00    +0.000 A 
ATOM     18  C   UNL     1      -2.317  14.483  22.325  0.00  0.00    +0.000 A 
ATOM     19  C   UNL     1      -3.476  14.715  23.071  0.00  0.00    +0.000 A 
ATOM     20  C   UNL     1      -4.021  13.686  23.838  0.00  0.00    +0.000 A 
ATOM     21  C   UNL     1      -3.409  12.433  23.859  0.00  0.00    +0.000 A 
ATOM     22  C   UNL     1      -2.243  12.183  23.119  0.00  0.00    +0.000 A 
ATOM     23  C   UNL     1      -1.615  10.925  23.135  0.00  0.00    +0.000 A 
ENDBRANCH  13  14
ENDBRANCH   7  11
BRANCH   1  24
ATOM     24  O   UNL     1       5.129   3.600  18.661  0.00  0.00    +0.000 OA
BRANCH  24  31
ATOM     25  C   UNL     1       6.959   5.659  19.464  0.00  0.00    +0.000 C 
ATOM     26  C   UNL     1       6.701   5.289  18.037  0.00  0.00    +0.000 A 
ATOM     27  C   UNL     1       7.399   5.987  17.041  0.00  0.00    +0.000 A 
ATOM     28  N   UNL     1       7.298   5.739  15.722  0.00  0.00    +0.000 NA
ATOM     29  C   UNL     1       6.469   4.733  15.381  0.00  0.00    +0.000 A 
ATOM     30  C   UNL     1       5.733   3.977  16.288  0.00  0.00    +0.000 A 
ATOM     31  C   UNL     1       5.823   4.257  17.652  0.00  0.00    +0.000 A 
ENDBRANCH  24  31
ENDBRANCH   1  24
TORSDOF 4
ENDMDL
MODEL 3
REMARK VINA RESULT:      -8.6      5.752      8.474
REMARK  Name = 
REMARK  5 active torsions:
REMARK  status: ('A' for Active; 'I' for Inactive)
REMARK    1  A    between atoms: C_1  and  C_2
REMARK    2  A    between atoms: C_7  and  O_8
REMARK    3  A    between atoms: O_8  and  C_9
REMARK    4  A    between atoms: N_15  and  C_16
REMARK    5  A    between atoms: C_18  and  C_19
REMARK                            x       y       z     vdW  Elec       q    Type
REMARK                         _______ _______ _______ _____ _____    ______ ____
ROOT
ATOM      1  C   UNL     1       3.617   3.699  18.696  0.00  0.00    +0.000 C 
ATOM      2  C   UNL     1       2.964   4.638  17.683  0.00  0.00    +0.000 C 
ATOM      3  C   UNL     1       2.627   6.048  18.154  0.00  0.00    +0.000 C 
ATOM      4  N   UNL     1       2.165   6.217  19.529  0.00  0.00    +0.000 N 
ATOM      5  C   UNL     1       1.809   7.549  19.855  0.00  0.00    +0.000 C 
ATOM      6  O   UNL     1       1.792   8.449  19.016  0.00  0.00    +0.000 OA
ATOM      7  N   UNL     1       1.509   7.792  21.181  0.00  0.00    +0.000 N 
ATOM      8  C   UNL     1       2.590   5.244  20.532  0.00  0.00    +0.000 C 
ATOM      9  C   UNL     1       2.930   3.828  20.053  0.00  0.00    +0.000 C 
ATOM     10  H   UNL     1       1.360   7.013  21.799  0.00  0.00    +0.000 HD
ENDROOT
BRANCH   7  11
ATOM     11  C   UNL     1       1.256   9.116  21.705  0.00  0.00    +0.000 C 
ATOM     12  C   UNL     1       0.495   9.260  22.996  0.00  0.00    +0.000 C 
ATOM     13  C   UNL     1      -0.121   9.763  21.711  0.00  0.00    +0.000 C 
BRANCH  13  14
ATOM     14  C   UNL     1      -0.317  11.267  21.558  0.00  0.00    +0.000 A 
ATOM     15  C   UNL     1      -0.785  12.052  22.627  0.00  0.00    +0.000 A 
ATOM     16  C   UNL     1      -0.988  13.430  22.493  0.00  0.00    +0.000 A 
ATOM     17  C   UNL     1      -0.729  14.071  21.276  0.00  0.00    +0.000 A 
ATOM     18  C   UNL     1      -0.923  15.459  21.118  0.00  0.00    +0.000 A 
ATOM     19  C   UNL     1      -0.659  16.083  19.896  0.00  0.00    +0.000 A 
ATOM     20  C   UNL     1      -0.198  15.328  18.819  0.00  0.00    +0.000 A 
ATOM     21  C   UNL     1      -0.003  13.954  18.965  0.00  0.00    +0.000 A 
ATOM     22  C   UNL     1      -0.265  13.310  20.184  0.00  0.00    +0.000 A 
ATOM     23  C   UNL     1      -0.075  11.925  20.342  0.00  0.00    +0.000 A 
ENDBRANCH  13  14
ENDBRANCH   7  11
BRANCH   1  24
ATOM     24  O   UNL     1       5.048   3.852  18.784  0.00  0.00    +0.000 OA
BRANCH  24  31
ATOM     25  C   UNL     1       7.115   5.760  19.354  0.00  0.00    +0.000 C 
ATOM     26  C   UNL     1       6.756   5.314  17.971  0.00  0.00    +0.000 A 
ATOM     27  C   UNL     1       7.476   5.857  16.897  0.00  0.00    +0.000 A 
ATOM     28  N   UNL     1       7.291   5.523  15.607  0.00  0.00    +0.000 NA
ATOM     29  C   UNL     1       6.349   4.587  15.377  0.00  0.00    +0.000 A 
ATOM     30  C   UNL     1       5.581   3.984  16.368  0.00  0.00    +0.000 A 
ATOM     31  C   UNL     1       5.760   4.355  17.702  0.00  0.00    +0.000 A 
ENDBRANCH  24  31
ENDBRANCH   1  24
TORSDOF 4
ENDMDL
MODEL 4
REMARK VINA RESULT:      -8.6      6.990     11.049
REMARK  Name = 
REMARK  5 active torsions:
REMARK  status: ('A' for Active; 'I' for Inactive)
REMARK    1  A    between atoms: C_1  and  C_2
REMARK    2  A    between atoms: C_7  and  O_8
REMARK    3  A    between atoms: O_8  and  C_9
REMARK    4  A    between atoms: N_15  and  C_16
REMARK    5  A    between atoms: C_18  and  C_19
REMARK                            x       y       z     vdW  Elec       q    Type
REMARK                         _______ _______ _______ _____ _____    ______ ____
ROOT
ATOM      1  C   UNL     1       2.980   6.689  18.427  0.00  0.00    +0.000 C 
ATOM      2  C   UNL     1       2.722   6.707  19.933  0.00  0.00    +0.000 C 
ATOM      3  C   UNL     1       1.539   7.531  20.429  0.00  0.00    +0.000 C 
ATOM      4  N   UNL     1       1.245   8.787  19.744  0.00  0.00    +0.000 N 
ATOM      5  C   UNL     1       0.174   9.515  20.317  0.00  0.00    +0.000 C 
ATOM      6  O   UNL     1      -0.376   9.165  21.360  0.00  0.00    +0.000 OA
ATOM      7  N   UNL     1      -0.243  10.633  19.622  0.00  0.00    +0.000 N 
ATOM      8  C   UNL     1       1.635   8.924  18.343  0.00  0.00    +0.000 C 
ATOM      9  C   UNL     1       2.824   8.092  17.848  0.00  0.00    +0.000 C 
ATOM     10  H   UNL     1       0.333  10.989  18.879  0.00  0.00    +0.000 HD
ENDROOT
BRANCH   7  11
ATOM     11  C   UNL     1      -1.403  11.411  19.996  0.00  0.00    +0.000 C 
ATOM     12  C   UNL     1      -1.347  12.911  19.883  0.00  0.00    +0.000 C 
ATOM     13  C   UNL     1      -1.462  12.273  21.248  0.00  0.00    +0.000 C 
BRANCH  13  14
ATOM     14  C   UNL     1      -2.753  12.492  22.029  0.00  0.00    +0.000 A 
ATOM     15  C   UNL     1      -2.785  12.371  23.430  0.00  0.00    +0.000 A 
ATOM     16  C   UNL     1      -3.968  12.551  24.156  0.00  0.00    +0.000 A 
ATOM     17  C   UNL     1      -5.165  12.859  23.499  0.00  0.00    +0.000 A 
ATOM     18  C   UNL     1      -6.368  13.048  24.211  0.00  0.00    +0.000 A 
ATOM     19  C   UNL     1      -7.554  13.355  23.539  0.00  0.00    +0.000 A 
ATOM     20  C   UNL     1      -7.551  13.478  22.150  0.00  0.00    +0.000 A 
ATOM     21  C   UNL     1      -6.365  13.293  21.438  0.00  0.00    +0.000 A 
ATOM     22  C   UNL     1      -5.166  12.981  22.095  0.00  0.00    +0.000 A 
ATOM     23  C   UNL     1      -3.965  12.790  21.387  0.00  0.00    +0.000 A 
ENDBRANCH  13  14
ENDBRANCH   7  11
BRANCH   1  24
ATOM     24  O   UNL     1       2.192   5.709  17.720  0.00  0.00    +0.000 OA
BRANCH  24  31
ATOM     25  C   UNL     1       4.484   4.255  16.790  0.00  0.00    +0.000 C 
ATOM     26  C   UNL     1       3.383   3.640  17.595  0.00  0.00    +0.000 A 
ATOM     27  C   UNL     1       3.484   2.278  17.914  0.00  0.00    +0.000 A 
ATOM     28  N   UNL     1       2.592   1.601  18.660  0.00  0.00    +0.000 NA
ATOM     29  C   UNL     1       1.553   2.324  19.124  0.00  0.00    +0.000 A 
ATOM     30  C   UNL     1       1.360   3.678  18.869  0.00  0.00    +0.000 A 
ATOM     31  C   UNL     1       2.276   4.368  18.072  0.00  0.00    +0.000 A 
ENDBRANCH  24  31
ENDBRANCH   1  24
TORSDOF 4
ENDMDL
MODEL 5
REMARK VINA RESULT:      -8.5      6.776     10.616
REMARK  Name = 
REMARK  5 active torsions:
REMARK  status: ('A' for Active; 'I' for Inactive)
REMARK    1  A    between atoms: C_1  and  C_2
REMARK    2  A    between atoms: C_7  and  O_8
REMARK    3  A    between atoms: O_8  and  C_9
REMARK    4  A    between atoms: N_15  and  C_16
REMARK    5  A    between atoms: C_18  and  C_19
REMARK                            x       y       z     vdW  Elec       q    Type
REMARK                         _______ _______ _______ _____ _____    ______ ____
ROOT
ATOM      1  C   UNL     1      -1.106  11.869  22.523  0.00  0.00    +0.000 C 
ATOM      2  C   UNL     1      -0.025  12.195  21.494  0.00  0.00    +0.000 C 
ATOM      3  C   UNL     1       0.504  11.043  20.648  0.00  0.00    +0.000 C 
ATOM      4  N   UNL     1       0.641   9.735  21.283  0.00  0.00    +0.000 N 
ATOM      5  C   UNL     1       1.205   8.745  20.442  0.00  0.00    +0.000 C 
ATOM      6  O   UNL     1       1.636   9.004  19.319  0.00  0.00    +0.000 OA
ATOM      7  N   UNL     1       1.219   7.457  20.941  0.00  0.00    +0.000 N 
ATOM      8  C   UNL     1      -0.231   9.413  22.410  0.00  0.00    +0.000 C 
ATOM      9  C   UNL     1      -0.762  10.575  23.256  0.00  0.00    +0.000 C 
ATOM     10  H   UNL     1       1.026   7.310  21.917  0.00  0.00    +0.000 HD
ENDROOT
BRANCH   7  11
ATOM     11  C   UNL     1       1.636   6.311  20.163  0.00  0.00    +0.000 C 
ATOM     12  C   UNL     1       1.933   5.016  20.870  0.00  0.00    +0.000 C 
ATOM     13  C   UNL     1       3.053   5.761  20.181  0.00  0.00    +0.000 C 
BRANCH  13  14
ATOM     14  C   UNL     1       3.693   5.112  18.959  0.00  0.00    +0.000 A 
ATOM     15  C   UNL     1       3.796   3.713  18.849  0.00  0.00    +0.000 A 
ATOM     16  C   UNL     1       4.399   3.107  17.740  0.00  0.00    +0.000 A 
ATOM     17  C   UNL     1       4.923   3.885  16.702  0.00  0.00    +0.000 A 
ATOM     18  C   UNL     1       5.532   3.296  15.574  0.00  0.00    +0.000 A 
ATOM     19  C   UNL     1       6.050   4.088  14.547  0.00  0.00    +0.000 A 
ATOM     20  C   UNL     1       5.964   5.477  14.633  0.00  0.00    +0.000 A 
ATOM     21  C   UNL     1       5.363   6.069  15.745  0.00  0.00    +0.000 A 
ATOM     22  C   UNL     1       4.840   5.290  16.787  0.00  0.00    +0.000 A 
ATOM     23  C   UNL     1       4.235   5.876  17.914  0.00  0.00    +0.000 A 
ENDBRANCH  13  14
ENDBRANCH   7  11
BRANCH   1  24
ATOM     24  O   UNL     1      -2.439  11.856  21.974  0.00  0.00    +0.000 OA
BRANCH  24  31
ATOM     25  C   UNL     1      -4.027  12.374  24.307  0.00  0.00    +0.000 C 
ATOM     26  C   UNL     1      -4.006  13.264  23.104  0.00  0.00    +0.000 A 
ATOM     27  C   UNL     1      -4.803  14.417  23.125  0.00  0.00    +0.000 A 
ATOM     28  N   UNL     1      -4.857  15.327  22.135  0.00  0.00    +0.000 NA
ATOM     29  C   UNL     1      -4.061  15.081  21.075  0.00  0.00    +0.000 A 
ATOM     30  C   UNL     1      -3.231  13.971  20.955  0.00  0.00    +0.000 A 
ATOM     31  C   UNL     1      -3.201  13.018  21.975  0.00  0.00    +0.000 A 
ENDBRANCH  24  31
ENDBRANCH   1  24
TORSDOF 4
ENDMDL
MODEL 6
REMARK VINA RESULT:      -8.2      1.261      1.617
REMARK  Name = 
REMARK  5 active torsions:
REMARK  status: ('A' for Active; 'I' for Inactive)
REMARK    1  A    between atoms: C_1  and  C_2
REMARK    2  A    between atoms: C_7  and  O_8
REMARK    3  A    between atoms: O_8  and  C_9
REMARK    4  A    between atoms: N_15  and  C_16
REMARK    5  A    between atoms: C_18  and  C_19
REMARK                            x       y       z     vdW  Elec       q    Type
REMARK                         _______ _______ _______ _____ _____    ______ ____
ROOT
ATOM      1  C   UNL     1       3.717   4.617  17.487  0.00  0.00    +0.000 C 
ATOM      2  C   UNL     1       4.674   4.500  16.302  0.00  0.00    +0.000 C 
ATOM      3  C   UNL     1       5.961   5.313  16.360  0.00  0.00    +0.000 C 
ATOM      4  N   UNL     1       5.906   6.639  16.971  0.00  0.00    +0.000 N 
ATOM      5  C   UNL     1       7.131   7.347  16.917  0.00  0.00    +0.000 C 
ATOM      6  O   UNL     1       8.114   6.917  16.313  0.00  0.00    +0.000 OA
ATOM      7  N   UNL     1       7.177   8.540  17.610  0.00  0.00    +0.000 N 
ATOM      8  C   UNL     1       4.887   6.897  17.985  0.00  0.00    +0.000 C 
ATOM      9  C   UNL     1       3.595   6.074  17.923  0.00  0.00    +0.000 C 
ATOM     10  H   UNL     1       6.318   8.945  17.941  0.00  0.00    +0.000 HD
ENDROOT
BRANCH   7  11
ATOM     11  C   UNL     1       8.385   9.319  17.768  0.00  0.00    +0.000 C 
ATOM     12  C   UNL     1       9.044   9.383  19.120  0.00  0.00    +0.000 C 
ATOM     13  C   UNL     1       8.437  10.634  18.530  0.00  0.00    +0.000 C 
BRANCH  13  14
ATOM     14  C   UNL     1       9.380  11.767  18.141  0.00  0.00    +0.000 A 
ATOM     15  C   UNL     1      10.729  11.516  17.833  0.00  0.00    +0.000 A 
ATOM     16  C   UNL     1      11.610  12.551  17.493  0.00  0.00    +0.000 A 
ATOM     17  C   UNL     1      11.165  13.877  17.452  0.00  0.00    +0.000 A 
ATOM     18  C   UNL     1      12.033  14.935  17.109  0.00  0.00    +0.000 A 
ATOM     19  C   UNL     1      11.573  16.253  17.073  0.00  0.00    +0.000 A 
ATOM     20  C   UNL     1      10.240  16.530  17.377  0.00  0.00    +0.000 A 
ATOM     21  C   UNL     1       9.374  15.490  17.717  0.00  0.00    +0.000 A 
ATOM     22  C   UNL     1       9.820  14.160  17.761  0.00  0.00    +0.000 A 
ATOM     23  C   UNL     1       8.956  13.105  18.106  0.00  0.00    +0.000 A 
ENDBRANCH  13  14
ENDBRANCH   7  11
BRANCH   1  24
ATOM     24  O   UNL     1       4.047   3.738  18.582  0.00  0.00    +0.000 OA
BRANCH  24  31
ATOM     25  C   UNL     1       1.349   3.361  17.682  0.00  0.00    +0.000 C 
ATOM     26  C   UNL     1       1.761   3.291  19.119  0.00  0.00    +0.000 A 
ATOM     27  C   UNL     1       0.771   3.021  20.075  0.00  0.00    +0.000 A 
ATOM     28  N   UNL     1       0.998   2.892  21.395  0.00  0.00    +0.000 NA
ATOM     29  C   UNL     1       2.284   3.025  21.779  0.00  0.00    +0.000 A 
ATOM     30  C   UNL     1       3.340   3.291  20.914  0.00  0.00    +0.000 A 
ATOM     31  C   UNL     1       3.093   3.449  19.549  0.00  0.00    +0.000 A 
ENDBRANCH  24  31
ENDBRANCH   1  24
TORSDOF 4
ENDMDL
MODEL 7
REMARK VINA RESULT:      -8.2      7.964     11.383
REMARK  Name = 
REMARK  5 active torsions:
REMARK  status: ('A' for Active; 'I' for Inactive)
REMARK    1  A    between atoms: C_1  and  C_2
REMARK    2  A    between atoms: C_7  and  O_8
REMARK    3  A    between atoms: O_8  and  C_9
REMARK    4  A    between atoms: N_15  and  C_16
REMARK    5  A    between atoms: C_18  and  C_19
REMARK                            x       y       z     vdW  Elec       q    Type
REMARK                         _______ _______ _______ _____ _____    ______ ____
ROOT
ATOM      1  C   UNL     1      -2.979  13.138  22.617  0.00  0.00    +0.000 C 
ATOM      2  C   UNL     1      -2.429  12.002  23.477  0.00  0.00    +0.000 C 
ATOM      3  C   UNL     1      -1.181  11.286  22.973  0.00  0.00    +0.000 C 
ATOM      4  N   UNL     1      -1.043  11.084  21.533  0.00  0.00    +0.000 N 
ATOM      5  C   UNL     1       0.111  10.350  21.166  0.00  0.00    +0.000 C 
ATOM      6  O   UNL     1       0.861   9.843  21.999  0.00  0.00    +0.000 OA
ATOM      7  N   UNL     1       0.369  10.258  19.812  0.00  0.00    +0.000 N 
ATOM      8  C   UNL     1      -1.705  12.022  20.631  0.00  0.00    +0.000 C 
ATOM      9  C   UNL     1      -2.958  12.741  21.143  0.00  0.00    +0.000 C 
ATOM     10  H   UNL     1      -0.347  10.527  19.159  0.00  0.00    +0.000 HD
ENDROOT
BRANCH   7  11
ATOM     11  C   UNL     1       1.571   9.661  19.274  0.00  0.00    +0.000 C 
ATOM     12  C   UNL     1       1.838   9.758  17.795  0.00  0.00    +0.000 C 
ATOM     13  C   UNL     1       1.568   8.406  18.414  0.00  0.00    +0.000 C 
BRANCH  13  14
ATOM     14  C   UNL     1       2.708   7.395  18.441  0.00  0.00    +0.000 A 
ATOM     15  C   UNL     1       2.789   6.416  19.448  0.00  0.00    +0.000 A 
ATOM     16  C   UNL     1       3.841   5.494  19.493  0.00  0.00    +0.000 A 
ATOM     17  C   UNL     1       4.853   5.523  18.527  0.00  0.00    +0.000 A 
ATOM     18  C   UNL     1       5.921   4.602  18.551  0.00  0.00    +0.000 A 
ATOM     19  C   UNL     1       6.923   4.645  17.578  0.00  0.00    +0.000 A 
ATOM     20  C   UNL     1       6.868   5.607  16.570  0.00  0.00    +0.000 A 
ATOM     21  C   UNL     1       5.815   6.522  16.538  0.00  0.00    +0.000 A 
ATOM     22  C   UNL     1       4.802   6.496  17.508  0.00  0.00    +0.000 A 
ATOM     23  C   UNL     1       3.738   7.415  17.487  0.00  0.00    +0.000 A 
ENDBRANCH  13  14
ENDBRANCH   7  11
BRANCH   1  24
ATOM     24  O   UNL     1      -2.336  14.407  22.857  0.00  0.00    +0.000 OA
BRANCH  24  31
ATOM     25  C   UNL     1      -2.182  15.194  25.612  0.00  0.00    +0.000 C 
ATOM     26  C   UNL     1      -3.046  15.880  24.600  0.00  0.00    +0.000 A 
ATOM     27  C   UNL     1      -3.816  16.971  25.026  0.00  0.00    +0.000 A 
ATOM     28  N   UNL     1      -4.609  17.706  24.224  0.00  0.00    +0.000 NA
ATOM     29  C   UNL     1      -4.620  17.342  22.926  0.00  0.00    +0.000 A 
ATOM     30  C   UNL     1      -3.892  16.280  22.400  0.00  0.00    +0.000 A 
ATOM     31  C   UNL     1      -3.093  15.505  23.243  0.00  0.00    +0.000 A 
ENDBRANCH  24  31
ENDBRANCH   1  24
TORSDOF 4
ENDMDL
MODEL 8
REMARK VINA RESULT:      -8.1      7.824     12.261
REMARK  Name = 
REMARK  5 active torsions:
REMARK  status: ('A' for Active; 'I' for Inactive)
REMARK    1  A    between atoms: C_1  and  C_2
REMARK    2  A    between atoms: C_7  and  O_8
REMARK    3  A    between atoms: O_8  and  C_9
REMARK    4  A    between atoms: N_15  and  C_16
REMARK    5  A    between atoms: C_18  and  C_19
REMARK                            x       y       z     vdW  Elec       q    Type
REMARK                         _______ _______ _______ _____ _____    ______ ____
ROOT
ATOM      1  C   UNL     1      -0.809  15.754  20.676  0.00  0.00    +0.000 C 
ATOM      2  C   UNL     1      -0.407  15.313  19.270  0.00  0.00    +0.000 C 
ATOM      3  C   UNL     1      -0.364  13.815  18.994  0.00  0.00    +0.000 C 
ATOM      4  N   UNL     1       0.097  12.934  20.064  0.00  0.00    +0.000 N 
ATOM      5  C   UNL     1       0.169  11.570  19.693  0.00  0.00    +0.000 C 
ATOM      6  O   UNL     1      -0.035  11.190  18.540  0.00  0.00    +0.000 OA
ATOM      7  N   UNL     1       0.454  10.676  20.707  0.00  0.00    +0.000 N 
ATOM      8  C   UNL     1      -0.076  13.370  21.448  0.00  0.00    +0.000 C 
ATOM      9  C   UNL     1      -0.121  14.878  21.720  0.00  0.00    +0.000 C 
ATOM     10  H   UNL     1       0.786  11.029  21.588  0.00  0.00    +0.000 HD
ENDROOT
BRANCH   7  11
ATOM     11  C   UNL     1       0.434   9.242  20.527  0.00  0.00    +0.000 C 
ATOM     12  C   UNL     1       0.446   8.351  21.741  0.00  0.00    +0.000 C 
ATOM     13  C   UNL     1       1.633   8.349  20.806  0.00  0.00    +0.000 C 
BRANCH  13  14
ATOM     14  C   UNL     1       1.909   7.078  20.010  0.00  0.00    +0.000 A 
ATOM     15  C   UNL     1       2.548   7.129  18.758  0.00  0.00    +0.000 A 
ATOM     16  C   UNL     1       2.789   5.971  18.009  0.00  0.00    +0.000 A 
ATOM     17  C   UNL     1       2.395   4.718  18.492  0.00  0.00    +0.000 A 
ATOM     18  C   UNL     1       2.630   3.538  17.756  0.00  0.00    +0.000 A 
ATOM     19  C   UNL     1       2.230   2.295  18.252  0.00  0.00    +0.000 A 
ATOM     20  C   UNL     1       1.591   2.217  19.490  0.00  0.00    +0.000 A 
ATOM     21  C   UNL     1       1.354   3.379  20.225  0.00  0.00    +0.000 A 
ATOM     22  C   UNL     1       1.746   4.636  19.741  0.00  0.00    +0.000 A 
ATOM     23  C   UNL     1       1.510   5.814  20.472  0.00  0.00    +0.000 A 
ENDBRANCH  13  14
ENDBRANCH   7  11
BRANCH   1  24
ATOM     24  O   UNL     1      -2.236  15.828  20.871  0.00  0.00    +0.000 OA
BRANCH  24  31
ATOM     25  C   UNL     1      -3.782  13.599  21.808  0.00  0.00    +0.000 C 
ATOM     26  C   UNL     1      -3.541  14.838  22.612  0.00  0.00    +0.000 A 
ATOM     27  C   UNL     1      -4.099  14.907  23.897  0.00  0.00    +0.000 A 
ATOM     28  N   UNL     1      -3.937  15.938  24.746  0.00  0.00    +0.000 NA
ATOM     29  C   UNL     1      -3.164  16.946  24.295  0.00  0.00    +0.000 A 
ATOM     30  C   UNL     1      -2.562  16.977  23.042  0.00  0.00    +0.000 A 
ATOM     31  C   UNL     1      -2.756  15.916  22.156  0.00  0.00    +0.000 A 
ENDBRANCH  24  31
ENDBRANCH   1  24
TORSDOF 4
ENDMDL
MODEL 9
REMARK VINA RESULT:      -8.1      6.481      8.968
REMARK  Name = 
REMARK  5 active torsions:
REMARK  status: ('A' for Active; 'I' for Inactive)
REMARK    1  A    between atoms: C_1  and  C_2
REMARK    2  A    between atoms: C_7  and  O_8
REMARK    3  A    between atoms: O_8  and  C_9
REMARK    4  A    between atoms: N_15  and  C_16
REMARK    5  A    between atoms: C_18  and  C_19
REMARK                            x       y       z     vdW  Elec       q    Type
REMARK                         _______ _______ _______ _____ _____    ______ ____
ROOT
ATOM      1  C   UNL     1       5.067   4.651  17.645  0.00  0.00    +0.000 C 
ATOM      2  C   UNL     1       4.887   4.750  19.159  0.00  0.00    +0.000 C 
ATOM      3  C   UNL     1       3.721   5.587  19.670  0.00  0.00    +0.000 C 
ATOM      4  N   UNL     1       3.374   6.800  18.933  0.00  0.00    +0.000 N 
ATOM      5  C   UNL     1       2.325   7.548  19.520  0.00  0.00    +0.000 C 
ATOM      6  O   UNL     1       1.833   7.250  20.609  0.00  0.00    +0.000 OA
ATOM      7  N   UNL     1       1.857   8.621  18.788  0.00  0.00    +0.000 N 
ATOM      8  C   UNL     1       3.690   6.864  17.508  0.00  0.00    +0.000 C 
ATOM      9  C   UNL     1       4.863   6.019  16.999  0.00  0.00    +0.000 C 
ATOM     10  H   UNL     1       2.390   8.941  17.997  0.00  0.00    +0.000 HD
ENDROOT
BRANCH   7  11
ATOM     11  C   UNL     1       0.707   9.406  19.179  0.00  0.00    +0.000 C 
ATOM     12  C   UNL     1       0.458  10.727  18.502  0.00  0.00    +0.000 C 
ATOM     13  C   UNL     1       0.810  10.700  19.971  0.00  0.00    +0.000 C 
BRANCH  13  14
ATOM     14  C   UNL     1      -0.259  11.136  20.967  0.00  0.00    +0.000 A 
ATOM     15  C   UNL     1      -0.316  10.585  22.260  0.00  0.00    +0.000 A 
ATOM     16  C   UNL     1      -1.304  10.963  23.177  0.00  0.00    +0.000 A 
ATOM     17  C   UNL     1      -2.274  11.909  22.825  0.00  0.00    +0.000 A 
ATOM     18  C   UNL     1      -3.277  12.308  23.733  0.00  0.00    +0.000 A 
ATOM     19  C   UNL     1      -4.238  13.253  23.367  0.00  0.00    +0.000 A 
ATOM     20  C   UNL     1      -4.206  13.813  22.090  0.00  0.00    +0.000 A 
ATOM     21  C   UNL     1      -3.217  13.425  21.184  0.00  0.00    +0.000 A 
ATOM     22  C   UNL     1      -2.246  12.475  21.535  0.00  0.00    +0.000 A 
ATOM     23  C   UNL     1      -1.247  12.074  20.629  0.00  0.00    +0.000 A 
ENDBRANCH  13  14
ENDBRANCH   7  11
BRANCH   1  24
ATOM     24  O   UNL     1       4.258   3.625  17.035  0.00  0.00    +0.000 OA
BRANCH  24  31
ATOM     25  C   UNL     1       4.214   1.156  18.495  0.00  0.00    +0.000 C 
ATOM     26  C   UNL     1       3.014   2.031  18.310  0.00  0.00    +0.000 A 
ATOM     27  C   UNL     1       1.805   1.621  18.888  0.00  0.00    +0.000 A 
ATOM     28  N   UNL     1       0.657   2.321  18.837  0.00  0.00    +0.000 NA
ATOM     29  C   UNL     1       0.723   3.500  18.188  0.00  0.00    +0.000 A 
ATOM     30  C   UNL     1       1.871   4.001  17.581  0.00  0.00    +0.000 A 
ATOM     31  C   UNL     1       3.051   3.257  17.616  0.00  0.00    +0.000 A 
ENDBRANCH  24  31
ENDBRANCH   1  24
TORSDOF 4
ENDMDL
