MODEL 1
REMARK VINA RESULT:      -7.9      0.000      0.000
REMARK  Name = 
REMARK  7 active torsions:
REMARK  status: ('A' for Active; 'I' for Inactive)
REMARK    1  A    between atoms: C_2  and  O_3
REMARK    2  A    between atoms: C_2  and  C_4
REMARK    3  A    between atoms: C_7  and  S_8
REMARK    4  A    between atoms: S_8  and  N_11
REMARK    5  A    between atoms: N_11  and  C_12
REMARK    6  A    between atoms: C_17  and  C_18
REMARK    7  A    between atoms: N_20  and  C_21
REMARK                            x       y       z     vdW  Elec       q    Type
REMARK                         _______ _______ _______ _____ _____    ______ ____
ROOT
ATOM      1  C   UNL     1       2.827   4.769  20.073  0.00  0.00    +0.000 A 
ATOM      2  C   UNL     1       1.751   4.475  20.926  0.00  0.00    +0.000 A 
ATOM      3  C   UNL     1       1.281   3.166  21.063  0.00  0.00    +0.000 A 
ATOM      4  C   UNL     1       1.871   2.138  20.337  0.00  0.00    +0.000 A 
ATOM      5  C   UNL     1       2.959   2.414  19.513  0.00  0.00    +0.000 A 
ATOM      6  C   UNL     1       3.467   3.723  19.381  0.00  0.00    +0.000 A 
ENDROOT
BRANCH   6   7
ATOM      7  C   UNL     1       4.649   3.857  18.471  0.00  0.00    +0.000 C 
ATOM      8  O   UNL     1       5.757   3.621  18.948  0.00  0.00    +0.000 OA
ATOM      9  N   UNL     1       4.398   4.230  17.167  0.00  0.00    +0.000 N 
ATOM     10  H   UNL     1       3.447   4.494  16.948  0.00  0.00    +0.000 HD
BRANCH   9  11
ATOM     11  C   UNL     1       5.359   4.451  16.158  0.00  0.00    +0.000 A 
ATOM     12  C   UNL     1       6.406   5.367  16.278  0.00  0.00    +0.000 A 
ATOM     13  C   UNL     1       7.313   5.554  15.229  0.00  0.00    +0.000 A 
ATOM     14  C   UNL     1       7.175   4.831  14.054  0.00  0.00    +0.000 A 
ATOM     15  C   UNL     1       6.141   3.905  13.925  0.00  0.00    +0.000 A 
ATOM     16  C   UNL     1       5.242   3.710  14.977  0.00  0.00    +0.000 A 
ENDBRANCH   9  11
ENDBRANCH   6   7
BRANCH   1  17
ATOM     17  N   UNL     1       3.171   6.150  19.892  0.00  0.00    +0.000 N 
ATOM     18  H   UNL     1       4.103   6.424  20.206  0.00  0.00    +0.000 HD
BRANCH  17  19
ATOM     19  S   UNL     1       2.717   6.974  18.485  0.00  0.00    +0.000 S 
ATOM     20  O   UNL     1       1.755   6.108  17.838  0.00  0.00    +0.000 OA
ATOM     21  O   UNL     1       3.906   7.429  17.803  0.00  0.00    +0.000 OA
BRANCH  19  25
ATOM     22  C   UNL     1       0.602  10.728  20.010  0.00  0.00    +0.000 A 
ATOM     23  C   UNL     1       0.799   9.635  20.867  0.00  0.00    +0.000 A 
ATOM     24  C   UNL     1       1.419   8.474  20.398  0.00  0.00    +0.000 A 
ATOM     25  C   UNL     1       1.832   8.405  19.064  0.00  0.00    +0.000 A 
ATOM     26  C   UNL     1       1.671   9.505  18.211  0.00  0.00    +0.000 A 
ATOM     27  C   UNL     1       1.057  10.668  18.685  0.00  0.00    +0.000 A 
BRANCH  22  29
ATOM     28  O   UNL     1      -0.689  12.719  19.884  0.00  0.00    +0.000 OA
ATOM     29  C   UNL     1      -0.035  11.949  20.564  0.00  0.00    +0.000 C 
BRANCH  29  30
ATOM     30  O   UNL     1       0.223  12.151  21.873  0.00  0.00    +0.000 OA
ATOM     31  H   UNL     1      -0.463  12.633  22.369  0.00  0.00    +0.000 HD
ENDBRANCH  29  30
ENDBRANCH  22  29
ENDBRANCH  19  25
ENDBRANCH  17  19
ENDBRANCH   1  17
TORSDOF 7
ENDMDL
MODEL 2
REMARK VINA RESULT:      -7.9      0.414      1.001
REMARK  Name = 
REMARK  7 active torsions:
REMARK  status: ('A' for Active; 'I' for Inactive)
REMARK    1  A    between atoms: C_2  and  O_3
REMARK    2  A    between atoms: C_2  and  C_4
REMARK    3  A    between atoms: C_7  and  S_8
REMARK    4  A    between atoms: S_8  and  N_11
REMARK    5  A    between atoms: N_11  and  C_12
REMARK    6  A    between atoms: C_17  and  C_18
REMARK    7  A    between atoms: N_20  and  C_21
REMARK                            x       y       z     vdW  Elec       q    Type
REMARK                         _______ _______ _______ _____ _____    ______ ____
ROOT
ATOM      1  C   UNL     1       2.848   4.808  20.119  0.00  0.00    +0.000 A 
ATOM      2  C   UNL     1       1.779   4.511  20.980  0.00  0.00    +0.000 A 
ATOM      3  C   UNL     1       1.326   3.198  21.134  0.00  0.00    +0.000 A 
ATOM      4  C   UNL     1       1.926   2.168  20.420  0.00  0.00    +0.000 A 
ATOM      5  C   UNL     1       3.008   2.448  19.589  0.00  0.00    +0.000 A 
ATOM      6  C   UNL     1       3.500   3.761  19.439  0.00  0.00    +0.000 A 
ENDROOT
BRANCH   6   7
ATOM      7  C   UNL     1       4.677   3.898  18.523  0.00  0.00    +0.000 C 
ATOM      8  O   UNL     1       5.791   3.706  19.005  0.00  0.00    +0.000 OA
ATOM      9  N   UNL     1       4.416   4.225  17.209  0.00  0.00    +0.000 N 
ATOM     10  H   UNL     1       3.458   4.458  16.984  0.00  0.00    +0.000 HD
BRANCH   9  11
ATOM     11  C   UNL     1       5.369   4.441  16.192  0.00  0.00    +0.000 A 
ATOM     12  C   UNL     1       6.456   5.307  16.326  0.00  0.00    +0.000 A 
ATOM     13  C   UNL     1       7.354   5.492  15.269  0.00  0.00    +0.000 A 
ATOM     14  C   UNL     1       7.168   4.816  14.072  0.00  0.00    +0.000 A 
ATOM     15  C   UNL     1       6.093   3.940  13.929  0.00  0.00    +0.000 A 
ATOM     16  C   UNL     1       5.202   3.747  14.989  0.00  0.00    +0.000 A 
ENDBRANCH   9  11
ENDBRANCH   6   7
BRANCH   1  17
ATOM     17  N   UNL     1       3.175   6.191  19.920  0.00  0.00    +0.000 N 
ATOM     18  H   UNL     1       4.095   6.485  20.250  0.00  0.00    +0.000 HD
BRANCH  17  19
ATOM     19  S   UNL     1       2.741   6.981  18.488  0.00  0.00    +0.000 S 
ATOM     20  O   UNL     1       1.841   6.068  17.814  0.00  0.00    +0.000 OA
ATOM     21  O   UNL     1       3.934   7.478  17.845  0.00  0.00    +0.000 OA
BRANCH  19  25
ATOM     22  C   UNL     1       0.112  10.469  19.832  0.00  0.00    +0.000 A 
ATOM     23  C   UNL     1       0.472  10.340  18.483  0.00  0.00    +0.000 A 
ATOM     24  C   UNL     1       1.299   9.292  18.072  0.00  0.00    +0.000 A 
ATOM     25  C   UNL     1       1.776   8.378  19.016  0.00  0.00    +0.000 A 
ATOM     26  C   UNL     1       1.393   8.481  20.361  0.00  0.00    +0.000 A 
ATOM     27  C   UNL     1       0.560   9.526  20.768  0.00  0.00    +0.000 A 
BRANCH  22  29
ATOM     28  O   UNL     1      -1.794  11.868  19.583  0.00  0.00    +0.000 OA
ATOM     29  C   UNL     1      -0.791  11.583  20.215  0.00  0.00    +0.000 C 
BRANCH  29  30
ATOM     30  O   UNL     1      -0.371  12.279  21.291  0.00  0.00    +0.000 OA
ATOM     31  H   UNL     1      -0.801  13.142  21.430  0.00  0.00    +0.000 HD
ENDBRANCH  29  30
ENDBRANCH  22  29
ENDBRANCH  19  25
ENDBRANCH  17  19
ENDBRANCH   1  17
TORSDOF 7
ENDMDL
MODEL 3
REMARK VINA RESULT:      -7.8      0.443      1.460
REMARK  Name = 
REMARK  7 active torsions:
REMARK  status: ('A' for Active; 'I' for Inactive)
REMARK    1  A    between atoms: C_2  and  O_3
REMARK    2  A    between atoms: C_2  and  C_4
REMARK    3  A    between atoms: C_7  and  S_8
REMARK    4  A    between atoms: S_8  and  N_11
REMARK    5  A    between atoms: N_11  and  C_12
REMARK    6  A    between atoms: C_17  and  C_18
REMARK    7  A    between atoms: N_20  and  C_21
REMARK                            x       y       z     vdW  Elec       q    Type
REMARK                         _______ _______ _______ _____ _____    ______ ____
ROOT
ATOM      1  C   UNL     1       2.872   4.797  20.131  0.00  0.00    +0.000 A 
ATOM      2  C   UNL     1       1.824   4.517  21.022  0.00  0.00    +0.000 A 
ATOM      3  C   UNL     1       1.364   3.209  21.201  0.00  0.00    +0.000 A 
ATOM      4  C   UNL     1       1.935   2.168  20.480  0.00  0.00    +0.000 A 
ATOM      5  C   UNL     1       2.997   2.431  19.618  0.00  0.00    +0.000 A 
ATOM      6  C   UNL     1       3.496   3.738  19.443  0.00  0.00    +0.000 A 
ENDROOT
BRANCH   6   7
ATOM      7  C   UNL     1       4.649   3.856  18.495  0.00  0.00    +0.000 C 
ATOM      8  O   UNL     1       5.773   3.650  18.946  0.00  0.00    +0.000 OA
ATOM      9  N   UNL     1       4.356   4.183  17.187  0.00  0.00    +0.000 N 
ATOM     10  H   UNL     1       3.396   4.429  16.988  0.00  0.00    +0.000 HD
BRANCH   9  11
ATOM     11  C   UNL     1       5.284   4.384  16.143  0.00  0.00    +0.000 A 
ATOM     12  C   UNL     1       5.213   3.728  14.913  0.00  0.00    +0.000 A 
ATOM     13  C   UNL     1       6.179   3.957  13.927  0.00  0.00    +0.000 A 
ATOM     14  C   UNL     1       7.224   4.837  14.168  0.00  0.00    +0.000 A 
ATOM     15  C   UNL     1       7.300   5.506  15.388  0.00  0.00    +0.000 A 
ATOM     16  C   UNL     1       6.329   5.286  16.369  0.00  0.00    +0.000 A 
ENDBRANCH   9  11
ENDBRANCH   6   7
BRANCH   1  17
ATOM     17  N   UNL     1       3.205   6.174  19.911  0.00  0.00    +0.000 N 
ATOM     18  H   UNL     1       4.135   6.464  20.216  0.00  0.00    +0.000 HD
BRANCH  17  19
ATOM     19  S   UNL     1       2.744   6.954  18.481  0.00  0.00    +0.000 S 
ATOM     20  O   UNL     1       1.818   6.044  17.840  0.00  0.00    +0.000 OA
ATOM     21  O   UNL     1       3.926   7.431  17.804  0.00  0.00    +0.000 OA
BRANCH  19  25
ATOM     22  C   UNL     1       0.186  10.488  19.840  0.00  0.00    +0.000 A 
ATOM     23  C   UNL     1       0.583  10.383  18.499  0.00  0.00    +0.000 A 
ATOM     24  C   UNL     1       1.389   9.320  18.085  0.00  0.00    +0.000 A 
ATOM     25  C   UNL     1       1.807   8.367  19.018  0.00  0.00    +0.000 A 
ATOM     26  C   UNL     1       1.386   8.446  20.353  0.00  0.00    +0.000 A 
ATOM     27  C   UNL     1       0.574   9.507  20.763  0.00  0.00    +0.000 A 
BRANCH  22  29
ATOM     28  O   UNL     1      -0.383  12.444  21.067  0.00  0.00    +0.000 OA
ATOM     29  C   UNL     1      -0.695  11.620  20.225  0.00  0.00    +0.000 C 
BRANCH  29  30
ATOM     30  O   UNL     1      -1.888  11.618  19.597  0.00  0.00    +0.000 OA
ATOM     31  H   UNL     1      -2.365  10.769  19.598  0.00  0.00    +0.000 HD
ENDBRANCH  29  30
ENDBRANCH  22  29
ENDBRANCH  19  25
ENDBRANCH  17  19
ENDBRANCH   1  17
TORSDOF 7
ENDMDL
MODEL 4
REMARK VINA RESULT:      -7.7      0.598      1.254
REMARK  Name = 
REMARK  7 active torsions:
REMARK  status: ('A' for Active; 'I' for Inactive)
REMARK    1  A    between atoms: C_2  and  O_3
REMARK    2  A    between atoms: C_2  and  C_4
REMARK    3  A    between atoms: C_7  and  S_8
REMARK    4  A    between atoms: S_8  and  N_11
REMARK    5  A    between atoms: N_11  and  C_12
REMARK    6  A    between atoms: C_17  and  C_18
REMARK    7  A    between atoms: N_20  and  C_21
REMARK                            x       y       z     vdW  Elec       q    Type
REMARK                         _______ _______ _______ _____ _____    ______ ____
ROOT
ATOM      1  C   UNL     1       2.821   4.750  20.016  0.00  0.00    +0.000 A 
ATOM      2  C   UNL     1       1.752   4.474  20.883  0.00  0.00    +0.000 A 
ATOM      3  C   UNL     1       1.201   3.193  20.959  0.00  0.00    +0.000 A 
ATOM      4  C   UNL     1       1.703   2.173  20.158  0.00  0.00    +0.000 A 
ATOM      5  C   UNL     1       2.784   2.428  19.318  0.00  0.00    +0.000 A 
ATOM      6  C   UNL     1       3.374   3.707  19.246  0.00  0.00    +0.000 A 
ENDROOT
BRANCH   6   7
ATOM      7  C   UNL     1       4.537   3.819  18.310  0.00  0.00    +0.000 C 
ATOM      8  O   UNL     1       5.649   3.551  18.758  0.00  0.00    +0.000 OA
ATOM      9  N   UNL     1       4.266   4.209  17.015  0.00  0.00    +0.000 N 
ATOM     10  H   UNL     1       3.317   4.500  16.821  0.00  0.00    +0.000 HD
BRANCH   9  11
ATOM     11  C   UNL     1       5.209   4.415  15.985  0.00  0.00    +0.000 A 
ATOM     12  C   UNL     1       5.241   3.663  14.810  0.00  0.00    +0.000 A 
ATOM     13  C   UNL     1       6.217   3.905  13.836  0.00  0.00    +0.000 A 
ATOM     14  C   UNL     1       7.167   4.896  14.036  0.00  0.00    +0.000 A 
ATOM     15  C   UNL     1       7.139   5.661  15.200  0.00  0.00    +0.000 A 
ATOM     16  C   UNL     1       6.158   5.426  16.168  0.00  0.00    +0.000 A 
ENDBRANCH   9  11
ENDBRANCH   6   7
BRANCH   1  17
ATOM     17  N   UNL     1       3.251   6.114  19.904  0.00  0.00    +0.000 N 
ATOM     18  H   UNL     1       4.245   6.285  20.063  0.00  0.00    +0.000 HD
BRANCH  17  19
ATOM     19  S   UNL     1       2.630   7.116  18.689  0.00  0.00    +0.000 S 
ATOM     20  O   UNL     1       1.718   6.277  17.941  0.00  0.00    +0.000 OA
ATOM     21  O   UNL     1       3.722   7.806  18.046  0.00  0.00    +0.000 OA
BRANCH  19  25
ATOM     22  C   UNL     1       0.259  10.308  20.941  0.00  0.00    +0.000 A 
ATOM     23  C   UNL     1       0.712   9.165  21.614  0.00  0.00    +0.000 A 
ATOM     24  C   UNL     1       1.413   8.172  20.924  0.00  0.00    +0.000 A 
ATOM     25  C   UNL     1       1.648   8.321  19.554  0.00  0.00    +0.000 A 
ATOM     26  C   UNL     1       1.228   9.477  18.881  0.00  0.00    +0.000 A 
ATOM     27  C   UNL     1       0.535  10.471  19.576  0.00  0.00    +0.000 A 
BRANCH  22  29
ATOM     28  O   UNL     1      -0.460  11.371  22.942  0.00  0.00    +0.000 OA
ATOM     29  C   UNL     1      -0.455  11.348  21.724  0.00  0.00    +0.000 C 
BRANCH  29  30
ATOM     30  O   UNL     1      -1.138  12.228  20.963  0.00  0.00    +0.000 OA
ATOM     31  H   UNL     1      -1.601  12.934  21.448  0.00  0.00    +0.000 HD
ENDBRANCH  29  30
ENDBRANCH  22  29
ENDBRANCH  19  25
ENDBRANCH  17  19
ENDBRANCH   1  17
TORSDOF 7
ENDMDL
MODEL 5
REMARK VINA RESULT:      -7.5      2.453      4.478
REMARK  Name = 
REMARK  7 active torsions:
REMARK  status: ('A' for Active; 'I' for Inactive)
REMARK    1  A    between atoms: C_2  and  O_3
REMARK    2  A    between atoms: C_2  and  C_4
REMARK    3  A    between atoms: C_7  and  S_8
REMARK    4  A    between atoms: S_8  and  N_11
REMARK    5  A    between atoms: N_11  and  C_12
REMARK    6  A    between atoms: C_17  and  C_18
REMARK    7  A    between atoms: N_20  and  C_21
REMARK                            x       y       z     vdW  Elec       q    Type
REMARK                         _______ _______ _______ _____ _____    ______ ____
ROOT
ATOM      1  C   UNL     1       6.241   4.771  18.078  0.00  0.00    +0.000 A 
ATOM      2  C   UNL     1       6.724   5.107  19.353  0.00  0.00    +0.000 A 
ATOM      3  C   UNL     1       7.542   6.224  19.539  0.00  0.00    +0.000 A 
ATOM      4  C   UNL     1       7.901   7.010  18.450  0.00  0.00    +0.000 A 
ATOM      5  C   UNL     1       7.402   6.704  17.187  0.00  0.00    +0.000 A 
ATOM      6  C   UNL     1       6.552   5.598  16.980  0.00  0.00    +0.000 A 
ENDROOT
BRANCH   6   7
ATOM      7  C   UNL     1       6.086   5.409  15.570  0.00  0.00    +0.000 C 
ATOM      8  O   UNL     1       5.372   6.286  15.090  0.00  0.00    +0.000 OA
ATOM      9  N   UNL     1       6.500   4.266  14.919  0.00  0.00    +0.000 N 
ATOM     10  H   UNL     1       6.996   3.583  15.477  0.00  0.00    +0.000 HD
BRANCH   9  11
ATOM     11  C   UNL     1       6.150   3.871  13.610  0.00  0.00    +0.000 A 
ATOM     12  C   UNL     1       4.841   3.599  13.212  0.00  0.00    +0.000 A 
ATOM     13  C   UNL     1       4.565   3.190  11.902  0.00  0.00    +0.000 A 
ATOM     14  C   UNL     1       5.597   3.046  10.987  0.00  0.00    +0.000 A 
ATOM     15  C   UNL     1       6.908   3.325  11.369  0.00  0.00    +0.000 A 
ATOM     16  C   UNL     1       7.182   3.744  12.674  0.00  0.00    +0.000 A 
ENDBRANCH   9  11
ENDBRANCH   6   7
BRANCH   1  17
ATOM     17  N   UNL     1       5.510   3.544  17.947  0.00  0.00    +0.000 N 
ATOM     18  H   UNL     1       5.785   2.789  18.577  0.00  0.00    +0.000 HD
BRANCH  17  19
ATOM     19  S   UNL     1       3.837   3.562  17.685  0.00  0.00    +0.000 S 
ATOM     20  O   UNL     1       3.336   2.397  18.384  0.00  0.00    +0.000 OA
ATOM     21  O   UNL     1       3.585   3.767  16.278  0.00  0.00    +0.000 OA
BRANCH  19  25
ATOM     22  C   UNL     1       2.175   7.192  19.909  0.00  0.00    +0.000 A 
ATOM     23  C   UNL     1       2.552   7.305  18.563  0.00  0.00    +0.000 A 
ATOM     24  C   UNL     1       3.088   6.205  17.887  0.00  0.00    +0.000 A 
ATOM     25  C   UNL     1       3.257   4.995  18.564  0.00  0.00    +0.000 A 
ATOM     26  C   UNL     1       2.851   4.864  19.900  0.00  0.00    +0.000 A 
ATOM     27  C   UNL     1       2.308   5.963  20.571  0.00  0.00    +0.000 A 
BRANCH  22  29
ATOM     28  O   UNL     1       1.059   9.290  19.959  0.00  0.00    +0.000 OA
ATOM     29  C   UNL     1       1.584   8.379  20.575  0.00  0.00    +0.000 C 
BRANCH  29  30
ATOM     30  O   UNL     1       1.731   8.379  21.916  0.00  0.00    +0.000 OA
ATOM     31  H   UNL     1       2.093   7.561  22.301  0.00  0.00    +0.000 HD
ENDBRANCH  29  30
ENDBRANCH  22  29
ENDBRANCH  19  25
ENDBRANCH  17  19
ENDBRANCH   1  17
TORSDOF 7
ENDMDL
MODEL 6
REMARK VINA RESULT:      -7.5      2.432      8.141
REMARK  Name = 
REMARK  7 active torsions:
REMARK  status: ('A' for Active; 'I' for Inactive)
REMARK    1  A    between atoms: C_2  and  O_3
REMARK    2  A    between atoms: C_2  and  C_4
REMARK    3  A    between atoms: C_7  and  S_8
REMARK    4  A    between atoms: S_8  and  N_11
REMARK    5  A    between atoms: N_11  and  C_12
REMARK    6  A    between atoms: C_17  and  C_18
REMARK    7  A    between atoms: N_20  and  C_21
REMARK                            x       y       z     vdW  Elec       q    Type
REMARK                         _______ _______ _______ _____ _____    ______ ____
ROOT
ATOM      1  C   UNL     1       3.725   5.099  19.283  0.00  0.00    +0.000 A 
ATOM      2  C   UNL     1       4.100   3.752  19.408  0.00  0.00    +0.000 A 
ATOM      3  C   UNL     1       3.441   2.903  20.302  0.00  0.00    +0.000 A 
ATOM      4  C   UNL     1       2.409   3.395  21.093  0.00  0.00    +0.000 A 
ATOM      5  C   UNL     1       2.009   4.721  20.953  0.00  0.00    +0.000 A 
ATOM      6  C   UNL     1       2.641   5.588  20.037  0.00  0.00    +0.000 A 
ENDROOT
BRANCH   6   7
ATOM      7  C   UNL     1       2.087   6.978  19.993  0.00  0.00    +0.000 C 
ATOM      8  O   UNL     1       2.240   7.613  18.952  0.00  0.00    +0.000 OA
ATOM      9  N   UNL     1       1.443   7.435  21.124  0.00  0.00    +0.000 N 
ATOM     10  H   UNL     1       1.489   6.840  21.940  0.00  0.00    +0.000 HD
BRANCH   9  11
ATOM     11  C   UNL     1       0.884   8.717  21.313  0.00  0.00    +0.000 A 
ATOM     12  C   UNL     1       1.022   9.760  20.395  0.00  0.00    +0.000 A 
ATOM     13  C   UNL     1       0.461  11.015  20.654  0.00  0.00    +0.000 A 
ATOM     14  C   UNL     1      -0.237  11.234  21.833  0.00  0.00    +0.000 A 
ATOM     15  C   UNL     1      -0.392  10.198  22.751  0.00  0.00    +0.000 A 
ATOM     16  C   UNL     1       0.160   8.941  22.488  0.00  0.00    +0.000 A 
ENDBRANCH   9  11
ENDBRANCH   6   7
BRANCH   1  17
ATOM     17  N   UNL     1       4.527   5.935  18.437  0.00  0.00    +0.000 N 
ATOM     18  H   UNL     1       4.395   6.941  18.548  0.00  0.00    +0.000 HD
BRANCH  17  19
ATOM     19  S   UNL     1       6.144   5.546  18.124  0.00  0.00    +0.000 S 
ATOM     20  O   UNL     1       6.454   4.467  19.039  0.00  0.00    +0.000 OA
ATOM     21  O   UNL     1       6.923   6.761  18.096  0.00  0.00    +0.000 OA
BRANCH  19  25
ATOM     22  C   UNL     1       6.047   3.934  13.849  0.00  0.00    +0.000 A 
ATOM     23  C   UNL     1       5.002   3.636  14.736  0.00  0.00    +0.000 A 
ATOM     24  C   UNL     1       5.041   4.102  16.052  0.00  0.00    +0.000 A 
ATOM     25  C   UNL     1       6.135   4.858  16.484  0.00  0.00    +0.000 A 
ATOM     26  C   UNL     1       7.167   5.189  15.594  0.00  0.00    +0.000 A 
ATOM     27  C   UNL     1       7.121   4.728  14.275  0.00  0.00    +0.000 A 
BRANCH  22  29
ATOM     28  O   UNL     1       4.896   3.417  11.834  0.00  0.00    +0.000 OA
ATOM     29  C   UNL     1       5.945   3.440  12.453  0.00  0.00    +0.000 C 
BRANCH  29  30
ATOM     30  O   UNL     1       7.109   2.972  11.956  0.00  0.00    +0.000 OA
ATOM     31  H   UNL     1       7.049   2.519  11.095  0.00  0.00    +0.000 HD
ENDBRANCH  29  30
ENDBRANCH  22  29
ENDBRANCH  19  25
ENDBRANCH  17  19
ENDBRANCH   1  17
TORSDOF 7
ENDMDL
MODEL 7
REMARK VINA RESULT:      -7.4      1.209      1.600
REMARK  Name = 
REMARK  7 active torsions:
REMARK  status: ('A' for Active; 'I' for Inactive)
REMARK    1  A    between atoms: C_2  and  O_3
REMARK    2  A    between atoms: C_2  and  C_4
REMARK    3  A    between atoms: C_7  and  S_8
REMARK    4  A    between atoms: S_8  and  N_11
REMARK    5  A    between atoms: N_11  and  C_12
REMARK    6  A    between atoms: C_17  and  C_18
REMARK    7  A    between atoms: N_20  and  C_21
REMARK                            x       y       z     vdW  Elec       q    Type
REMARK                         _______ _______ _______ _____ _____    ______ ____
ROOT
ATOM      1  C   UNL     1       3.457   4.462  19.081  0.00  0.00    +0.000 A 
ATOM      2  C   UNL     1       2.495   3.898  19.934  0.00  0.00    +0.000 A 
ATOM      3  C   UNL     1       2.120   2.559  19.807  0.00  0.00    +0.000 A 
ATOM      4  C   UNL     1       2.690   1.769  18.815  0.00  0.00    +0.000 A 
ATOM      5  C   UNL     1       3.669   2.310  17.985  0.00  0.00    +0.000 A 
ATOM      6  C   UNL     1       4.083   3.652  18.114  0.00  0.00    +0.000 A 
ENDROOT
BRANCH   6   7
ATOM      7  C   UNL     1       5.154   4.081  17.159  0.00  0.00    +0.000 C 
ATOM      8  O   UNL     1       6.126   4.667  17.628  0.00  0.00    +0.000 OA
ATOM      9  N   UNL     1       4.965   3.779  15.827  0.00  0.00    +0.000 N 
ATOM     10  H   UNL     1       4.067   3.389  15.575  0.00  0.00    +0.000 HD
BRANCH   9  11
ATOM     11  C   UNL     1       5.821   4.120  14.758  0.00  0.00    +0.000 A 
ATOM     12  C   UNL     1       6.856   5.051  14.867  0.00  0.00    +0.000 A 
ATOM     13  C   UNL     1       7.656   5.360  13.762  0.00  0.00    +0.000 A 
ATOM     14  C   UNL     1       7.423   4.744  12.541  0.00  0.00    +0.000 A 
ATOM     15  C   UNL     1       6.400   3.805  12.422  0.00  0.00    +0.000 A 
ATOM     16  C   UNL     1       5.608   3.488  13.529  0.00  0.00    +0.000 A 
ENDBRANCH   9  11
ENDBRANCH   6   7
BRANCH   1  17
ATOM     17  N   UNL     1       3.700   5.871  19.194  0.00  0.00    +0.000 N 
ATOM     18  H   UNL     1       4.677   6.152  19.287  0.00  0.00    +0.000 HD
BRANCH  17  19
ATOM     19  S   UNL     1       2.818   6.974  18.260  0.00  0.00    +0.000 S 
ATOM     20  O   UNL     1       1.884   6.165  17.507  0.00  0.00    +0.000 OA
ATOM     21  O   UNL     1       3.737   7.875  17.605  0.00  0.00    +0.000 OA
BRANCH  19  25
ATOM     22  C   UNL     1       0.540   9.467  21.339  0.00  0.00    +0.000 A 
ATOM     23  C   UNL     1       0.998   8.184  21.674  0.00  0.00    +0.000 A 
ATOM     24  C   UNL     1       1.669   7.407  20.726  0.00  0.00    +0.000 A 
ATOM     25  C   UNL     1       1.872   7.911  19.439  0.00  0.00    +0.000 A 
ATOM     26  C   UNL     1       1.448   9.206  19.107  0.00  0.00    +0.000 A 
ATOM     27  C   UNL     1       0.783   9.984  20.059  0.00  0.00    +0.000 A 
BRANCH  22  29
ATOM     28  O   UNL     1      -0.209  11.481  22.356  0.00  0.00    +0.000 OA
ATOM     29  C   UNL     1      -0.142  10.265  22.388  0.00  0.00    +0.000 C 
BRANCH  29  30
ATOM     30  O   UNL     1      -0.632   9.523  23.403  0.00  0.00    +0.000 OA
ATOM     31  H   UNL     1      -0.065   9.461  24.193  0.00  0.00    +0.000 HD
ENDBRANCH  29  30
ENDBRANCH  22  29
ENDBRANCH  19  25
ENDBRANCH  17  19
ENDBRANCH   1  17
TORSDOF 7
ENDMDL
MODEL 8
REMARK VINA RESULT:      -7.4      0.895      1.673
REMARK  Name = 
REMARK  7 active torsions:
REMARK  status: ('A' for Active; 'I' for Inactive)
REMARK    1  A    between atoms: C_2  and  O_3
REMARK    2  A    between atoms: C_2  and  C_4
REMARK    3  A    between atoms: C_7  and  S_8
REMARK    4  A    between atoms: S_8  and  N_11
REMARK    5  A    between atoms: N_11  and  C_12
REMARK    6  A    between atoms: C_17  and  C_18
REMARK    7  A    between atoms: N_20  and  C_21
REMARK                            x       y       z     vdW  Elec       q    Type
REMARK                         _______ _______ _______ _____ _____    ______ ____
ROOT
ATOM      1  C   UNL     1       2.945   4.555  20.042  0.00  0.00    +0.000 A 
ATOM      2  C   UNL     1       2.152   4.510  21.200  0.00  0.00    +0.000 A 
ATOM      3  C   UNL     1       1.472   3.344  21.560  0.00  0.00    +0.000 A 
ATOM      4  C   UNL     1       1.564   2.212  20.759  0.00  0.00    +0.000 A 
ATOM      5  C   UNL     1       2.373   2.236  19.625  0.00  0.00    +0.000 A 
ATOM      6  C   UNL     1       3.090   3.394  19.259  0.00  0.00    +0.000 A 
ENDROOT
BRANCH   6   7
ATOM      7  C   UNL     1       3.927   3.258  18.025  0.00  0.00    +0.000 C 
ATOM      8  O   UNL     1       4.073   2.128  17.564  0.00  0.00    +0.000 OA
ATOM      9  N   UNL     1       4.466   4.414  17.500  0.00  0.00    +0.000 N 
ATOM     10  H   UNL     1       4.349   5.256  18.049  0.00  0.00    +0.000 HD
BRANCH   9  11
ATOM     11  C   UNL     1       5.311   4.512  16.374  0.00  0.00    +0.000 A 
ATOM     12  C   UNL     1       4.907   4.191  15.077  0.00  0.00    +0.000 A 
ATOM     13  C   UNL     1       5.802   4.290  14.007  0.00  0.00    +0.000 A 
ATOM     14  C   UNL     1       7.107   4.705  14.228  0.00  0.00    +0.000 A 
ATOM     15  C   UNL     1       7.520   5.039  15.516  0.00  0.00    +0.000 A 
ATOM     16  C   UNL     1       6.622   4.951  16.584  0.00  0.00    +0.000 A 
ENDBRANCH   9  11
ENDBRANCH   6   7
BRANCH   1  17
ATOM     17  N   UNL     1       3.511   5.821  19.674  0.00  0.00    +0.000 N 
ATOM     18  H   UNL     1       4.526   5.844  19.573  0.00  0.00    +0.000 HD
BRANCH  17  19
ATOM     19  S   UNL     1       2.745   6.808  18.532  0.00  0.00    +0.000 S 
ATOM     20  O   UNL     1       1.717   5.974  17.946  0.00  0.00    +0.000 OA
ATOM     21  O   UNL     1       3.749   7.453  17.721  0.00  0.00    +0.000 OA
BRANCH  19  25
ATOM     22  C   UNL     1       0.479   9.935  20.976  0.00  0.00    +0.000 A 
ATOM     23  C   UNL     1       0.729  10.154  19.614  0.00  0.00    +0.000 A 
ATOM     24  C   UNL     1       1.446   9.214  18.869  0.00  0.00    +0.000 A 
ATOM     25  C   UNL     1       1.924   8.059  19.493  0.00  0.00    +0.000 A 
ATOM     26  C   UNL     1       1.649   7.816  20.847  0.00  0.00    +0.000 A 
ATOM     27  C   UNL     1       0.924   8.754  21.587  0.00  0.00    +0.000 A 
BRANCH  22  29
ATOM     28  O   UNL     1      -0.296  11.042  22.931  0.00  0.00    +0.000 OA
ATOM     29  C   UNL     1      -0.312  10.949  21.717  0.00  0.00    +0.000 C 
BRANCH  29  30
ATOM     30  O   UNL     1      -1.088  11.717  20.925  0.00  0.00    +0.000 OA
ATOM     31  H   UNL     1      -0.783  12.633  20.795  0.00  0.00    +0.000 HD
ENDBRANCH  29  30
ENDBRANCH  22  29
ENDBRANCH  19  25
ENDBRANCH  17  19
ENDBRANCH   1  17
TORSDOF 7
ENDMDL
MODEL 9
REMARK VINA RESULT:      -7.3      2.513      7.796
REMARK  Name = 
REMARK  7 active torsions:
REMARK  status: ('A' for Active; 'I' for Inactive)
REMARK    1  A    between atoms: C_2  and  O_3
REMARK    2  A    between atoms: C_2  and  C_4
REMARK    3  A    between atoms: C_7  and  S_8
REMARK    4  A    between atoms: S_8  and  N_11
REMARK    5  A    between atoms: N_11  and  C_12
REMARK    6  A    between atoms: C_17  and  C_18
REMARK    7  A    between atoms: N_20  and  C_21
REMARK                            x       y       z     vdW  Elec       q    Type
REMARK                         _______ _______ _______ _____ _____    ______ ____
ROOT
ATOM      1  C   UNL     1       4.286   4.837  18.563  0.00  0.00    +0.000 A 
ATOM      2  C   UNL     1       4.479   3.476  18.281  0.00  0.00    +0.000 A 
ATOM      3  C   UNL     1       3.403   2.656  17.929  0.00  0.00    +0.000 A 
ATOM      4  C   UNL     1       2.119   3.184  17.870  0.00  0.00    +0.000 A 
ATOM      5  C   UNL     1       1.922   4.540  18.117  0.00  0.00    +0.000 A 
ATOM      6  C   UNL     1       2.997   5.392  18.446  0.00  0.00    +0.000 A 
ENDROOT
BRANCH   6   7
ATOM      7  C   UNL     1       2.627   6.826  18.667  0.00  0.00    +0.000 C 
ATOM      8  O   UNL     1       3.039   7.647  17.851  0.00  0.00    +0.000 OA
ATOM      9  N   UNL     1       1.847   7.111  19.768  0.00  0.00    +0.000 N 
ATOM     10  H   UNL     1       1.674   6.347  20.408  0.00  0.00    +0.000 HD
BRANCH   9  11
ATOM     11  C   UNL     1       1.417   8.388  20.185  0.00  0.00    +0.000 A 
ATOM     12  C   UNL     1       1.204   9.454  19.309  0.00  0.00    +0.000 A 
ATOM     13  C   UNL     1       0.798  10.703  19.791  0.00  0.00    +0.000 A 
ATOM     14  C   UNL     1       0.608  10.894  21.151  0.00  0.00    +0.000 A 
ATOM     15  C   UNL     1       0.806   9.836  22.036  0.00  0.00    +0.000 A 
ATOM     16  C   UNL     1       1.201   8.585  21.553  0.00  0.00    +0.000 A 
ENDBRANCH   9  11
ENDBRANCH   6   7
BRANCH   1  17
ATOM     17  N   UNL     1       5.417   5.584  19.034  0.00  0.00    +0.000 N 
ATOM     18  H   UNL     1       5.861   5.235  19.884  0.00  0.00    +0.000 HD
BRANCH  17  19
ATOM     19  S   UNL     1       6.553   6.207  17.945  0.00  0.00    +0.000 S 
ATOM     20  O   UNL     1       7.833   5.736  18.428  0.00  0.00    +0.000 OA
ATOM     21  O   UNL     1       6.290   7.613  17.745  0.00  0.00    +0.000 OA
BRANCH  19  25
ATOM     22  C   UNL     1       5.845   4.124  13.939  0.00  0.00    +0.000 A 
ATOM     23  C   UNL     1       5.114   5.273  14.272  0.00  0.00    +0.000 A 
ATOM     24  C   UNL     1       5.306   5.897  15.507  0.00  0.00    +0.000 A 
ATOM     25  C   UNL     1       6.224   5.362  16.415  0.00  0.00    +0.000 A 
ATOM     26  C   UNL     1       6.984   4.233  16.076  0.00  0.00    +0.000 A 
ATOM     27  C   UNL     1       6.795   3.616  14.836  0.00  0.00    +0.000 A 
BRANCH  22  29
ATOM     28  O   UNL     1       4.563   3.580  12.012  0.00  0.00    +0.000 OA
ATOM     29  C   UNL     1       5.627   3.515  12.603  0.00  0.00    +0.000 C 
BRANCH  29  30
ATOM     30  O   UNL     1       6.696   2.841  12.132  0.00  0.00    +0.000 OA
ATOM     31  H   UNL     1       7.391   2.643  12.784  0.00  0.00    +0.000 HD
ENDBRANCH  29  30
ENDBRANCH  22  29
ENDBRANCH  19  25
ENDBRANCH  17  19
ENDBRANCH   1  17
TORSDOF 7
ENDMDL
