MODEL 1
REMARK VINA RESULT:      -9.1      0.000      0.000
REMARK  Name = 
REMARK  6 active torsions:
REMARK  status: ('A' for Active; 'I' for Inactive)
REMARK    1  A    between atoms: C_2  and  C_4
REMARK    2  A    between atoms: C_6  and  N_7
REMARK    3  A    between atoms: C_8  and  C_10
REMARK    4  A    between atoms: C_13  and  N_14
REMARK    5  A    between atoms: N_14  and  S_15
REMARK    6  A    between atoms: S_15  and  C_18
REMARK                            x       y       z     vdW  Elec       q    Type
REMARK                         _______ _______ _______ _____ _____    ______ ____
ROOT
ATOM      1  C   UNL     1       7.790   7.405  18.146  0.00  0.00    +0.000 A 
ATOM      2  C   UNL     1       7.816   6.553  19.257  0.00  0.00    +0.000 A 
ATOM      3  C   UNL     1       7.204   5.287  19.183  0.00  0.00    +0.000 A 
ATOM      4  C   UNL     1       6.573   4.883  18.004  0.00  0.00    +0.000 A 
ATOM      5  C   UNL     1       6.560   5.720  16.895  0.00  0.00    +0.000 A 
ATOM      6  C   UNL     1       7.160   6.974  16.967  0.00  0.00    +0.000 A 
ENDROOT
BRANCH   1   8
ATOM      7  N   UNL     1       9.120   9.201  19.199  0.00  0.00    +0.000 N 
ATOM      8  C   UNL     1       8.300   8.807  18.152  0.00  0.00    +0.000 C 
ATOM      9  O   UNL     1       7.996   9.513  17.191  0.00  0.00    +0.000 OA
ATOM     10  H   UNL     1       9.507   8.481  19.799  0.00  0.00    +0.000 HD
BRANCH   7  13
ATOM     11  C   UNL     1      10.704  12.541  18.495  0.00  0.00    +0.000 A 
ATOM     12  C   UNL     1      10.163  11.257  18.307  0.00  0.00    +0.000 A 
ATOM     13  C   UNL     1       9.624  10.515  19.367  0.00  0.00    +0.000 A 
ATOM     14  C   UNL     1       9.574  11.106  20.629  0.00  0.00    +0.000 A 
ATOM     15  C   UNL     1      10.086  12.398  20.826  0.00  0.00    +0.000 A 
ATOM     16  C   UNL     1      10.655  13.116  19.767  0.00  0.00    +0.000 A 
ATOM     17 CL   UNL     1      11.297  14.675  20.141  0.00  0.00    +0.000 Cl
BRANCH  11  19
ATOM     18  N   UNL     1      12.324  12.608  16.680  0.00  0.00    +0.000 N 
ATOM     19  C   UNL     1      11.286  13.238  17.315  0.00  0.00    +0.000 C 
ATOM     20  O   UNL     1      10.871  14.311  16.902  0.00  0.00    +0.000 OA
ATOM     21  H   UNL     1      12.735  13.076  15.882  0.00  0.00    +0.000 HD
ATOM     22  H   UNL     1      12.750  11.747  16.998  0.00  0.00    +0.000 HD
ENDBRANCH  11  19
ENDBRANCH   7  13
ENDBRANCH   1   8
BRANCH   4  23
ATOM     23  N   UNL     1       5.910   3.635  17.893  0.00  0.00    +0.000 N 
ATOM     24  H   UNL     1       6.111   2.903  18.572  0.00  0.00    +0.000 HD
BRANCH  23  25
ATOM     25  S   UNL     1       4.331   3.577  17.311  0.00  0.00    +0.000 S 
ATOM     26  O   UNL     1       4.373   4.171  15.991  0.00  0.00    +0.000 OA
ATOM     27  O   UNL     1       3.807   2.241  17.507  0.00  0.00    +0.000 OA
BRANCH  25  28
ATOM     28  C   UNL     1       3.435   4.695  18.370  0.00  0.00    +0.000 A 
ATOM     29  C   UNL     1       3.081   4.308  19.669  0.00  0.00    +0.000 A 
ATOM     30  C   UNL     1       2.447   5.228  20.511  0.00  0.00    +0.000 A 
ATOM     31  C   UNL     1       2.184   6.517  20.053  0.00  0.00    +0.000 A 
ATOM     32  F   UNL     1       1.590   7.398  20.869  0.00  0.00    +0.000 F 
ATOM     33  C   UNL     1       2.539   6.909  18.767  0.00  0.00    +0.000 A 
ATOM     34  C   UNL     1       3.174   5.998  17.920  0.00  0.00    +0.000 A 
ENDBRANCH  25  28
ENDBRANCH  23  25
ENDBRANCH   4  23
TORSDOF 6
ENDMDL
MODEL 2
REMARK VINA RESULT:      -8.8      7.325      9.970
REMARK  Name = 
REMARK  6 active torsions:
REMARK  status: ('A' for Active; 'I' for Inactive)
REMARK    1  A    between atoms: C_2  and  C_4
REMARK    2  A    between atoms: C_6  and  N_7
REMARK    3  A    between atoms: C_8  and  C_10
REMARK    4  A    between atoms: C_13  and  N_14
REMARK    5  A    between atoms: N_14  and  S_15
REMARK    6  A    between atoms: S_15  and  C_18
REMARK                            x       y       z     vdW  Elec       q    Type
REMARK                         _______ _______ _______ _____ _____    ______ ____
ROOT
ATOM      1  C   UNL     1       0.517   9.469  20.259  0.00  0.00    +0.000 A 
ATOM      2  C   UNL     1       1.216   9.400  19.048  0.00  0.00    +0.000 A 
ATOM      3  C   UNL     1       2.104   8.333  18.812  0.00  0.00    +0.000 A 
ATOM      4  C   UNL     1       2.286   7.346  19.784  0.00  0.00    +0.000 A 
ATOM      5  C   UNL     1       1.580   7.404  20.980  0.00  0.00    +0.000 A 
ATOM      6  C   UNL     1       0.706   8.460  21.218  0.00  0.00    +0.000 A 
ENDROOT
BRANCH   1   8
ATOM      7  N   UNL     1      -0.317  11.030  21.984  0.00  0.00    +0.000 N 
ATOM      8  C   UNL     1      -0.354  10.612  20.661  0.00  0.00    +0.000 C 
ATOM      9  O   UNL     1      -1.015  11.146  19.772  0.00  0.00    +0.000 OA
ATOM     10  H   UNL     1       0.436  10.690  22.571  0.00  0.00    +0.000 HD
BRANCH   7  13
ATOM     11  C   UNL     1      -3.272  12.874  23.409  0.00  0.00    +0.000 A 
ATOM     12  C   UNL     1      -2.455  11.835  22.927  0.00  0.00    +0.000 A 
ATOM     13  C   UNL     1      -1.134  12.058  22.518  0.00  0.00    +0.000 A 
ATOM     14  C   UNL     1      -0.605  13.341  22.659  0.00  0.00    +0.000 A 
ATOM     15  C   UNL     1      -1.400  14.382  23.165  0.00  0.00    +0.000 A 
ATOM     16  C   UNL     1      -2.730  14.156  23.536  0.00  0.00    +0.000 A 
ATOM     17 CL   UNL     1      -3.624  15.522  24.097  0.00  0.00    +0.000 Cl
BRANCH  11  19
ATOM     18  N   UNL     1      -4.888  12.155  25.081  0.00  0.00    +0.000 N 
ATOM     19  C   UNL     1      -4.674  12.548  23.786  0.00  0.00    +0.000 C 
ATOM     20  O   UNL     1      -5.612  12.631  23.004  0.00  0.00    +0.000 OA
ATOM     21  H   UNL     1      -5.836  11.920  25.347  0.00  0.00    +0.000 HD
ATOM     22  H   UNL     1      -4.154  12.016  25.763  0.00  0.00    +0.000 HD
ENDBRANCH  11  19
ENDBRANCH   7  13
ENDBRANCH   1   8
BRANCH   4  23
ATOM     23  N   UNL     1       3.196   6.274  19.610  0.00  0.00    +0.000 N 
ATOM     24  H   UNL     1       3.782   5.987  20.392  0.00  0.00    +0.000 HD
BRANCH  23  25
ATOM     25  S   UNL     1       2.800   4.999  18.583  0.00  0.00    +0.000 S 
ATOM     26  O   UNL     1       2.991   3.792  19.359  0.00  0.00    +0.000 OA
ATOM     27  O   UNL     1       1.528   5.282  17.952  0.00  0.00    +0.000 OA
BRANCH  25  28
ATOM     28  C   UNL     1       4.070   5.036  17.333  0.00  0.00    +0.000 A 
ATOM     29  C   UNL     1       4.560   3.842  16.788  0.00  0.00    +0.000 A 
ATOM     30  C   UNL     1       5.501   3.895  15.754  0.00  0.00    +0.000 A 
ATOM     31  C   UNL     1       5.931   5.129  15.273  0.00  0.00    +0.000 A 
ATOM     32  F   UNL     1       6.820   5.173  14.272  0.00  0.00    +0.000 F 
ATOM     33  C   UNL     1       5.442   6.317  15.806  0.00  0.00    +0.000 A 
ATOM     34  C   UNL     1       4.502   6.275  16.837  0.00  0.00    +0.000 A 
ENDBRANCH  25  28
ENDBRANCH  23  25
ENDBRANCH   4  23
TORSDOF 6
ENDMDL
MODEL 3
REMARK VINA RESULT:      -8.6      7.305      9.946
REMARK  Name = 
REMARK  6 active torsions:
REMARK  status: ('A' for Active; 'I' for Inactive)
REMARK    1  A    between atoms: C_2  and  C_4
REMARK    2  A    between atoms: C_6  and  N_7
REMARK    3  A    between atoms: C_8  and  C_10
REMARK    4  A    between atoms: C_13  and  N_14
REMARK    5  A    between atoms: N_14  and  S_15
REMARK    6  A    between atoms: S_15  and  C_18
REMARK                            x       y       z     vdW  Elec       q    Type
REMARK                         _______ _______ _______ _____ _____    ______ ____
ROOT
ATOM      1  C   UNL     1       0.524   9.398  20.293  0.00  0.00    +0.000 A 
ATOM      2  C   UNL     1       1.210   9.356  19.073  0.00  0.00    +0.000 A 
ATOM      3  C   UNL     1       2.108   8.304  18.812  0.00  0.00    +0.000 A 
ATOM      4  C   UNL     1       2.313   7.305  19.766  0.00  0.00    +0.000 A 
ATOM      5  C   UNL     1       1.620   7.336  20.971  0.00  0.00    +0.000 A 
ATOM      6  C   UNL     1       0.736   8.377  21.234  0.00  0.00    +0.000 A 
ENDROOT
BRANCH   1   8
ATOM      7  N   UNL     1      -0.192  11.033  22.002  0.00  0.00    +0.000 N 
ATOM      8  C   UNL     1      -0.356  10.525  20.722  0.00  0.00    +0.000 C 
ATOM      9  O   UNL     1      -1.142  10.965  19.884  0.00  0.00    +0.000 OA
ATOM     10  H   UNL     1       0.639  10.769  22.517  0.00  0.00    +0.000 HD
BRANCH   7  13
ATOM     11  C   UNL     1      -3.093  12.847  23.570  0.00  0.00    +0.000 A 
ATOM     12  C   UNL     1      -2.285  11.814  23.061  0.00  0.00    +0.000 A 
ATOM     13  C   UNL     1      -0.998  12.056  22.563  0.00  0.00    +0.000 A 
ATOM     14  C   UNL     1      -0.492  13.354  22.639  0.00  0.00    +0.000 A 
ATOM     15  C   UNL     1      -1.277  14.389  23.170  0.00  0.00    +0.000 A 
ATOM     16  C   UNL     1      -2.576  14.143  23.631  0.00  0.00    +0.000 A 
ATOM     17 CL   UNL     1      -3.464  15.503  24.215  0.00  0.00    +0.000 Cl
BRANCH  11  19
ATOM     18  N   UNL     1      -5.487  12.694  23.157  0.00  0.00    +0.000 N 
ATOM     19  C   UNL     1      -4.461  12.499  24.044  0.00  0.00    +0.000 C 
ATOM     20  O   UNL     1      -4.686  12.047  25.158  0.00  0.00    +0.000 OA
ATOM     21  H   UNL     1      -6.423  12.471  23.471  0.00  0.00    +0.000 HD
ATOM     22  H   UNL     1      -5.378  13.111  22.242  0.00  0.00    +0.000 HD
ENDBRANCH  11  19
ENDBRANCH   7  13
ENDBRANCH   1   8
BRANCH   4  23
ATOM     23  N   UNL     1       3.234   6.247  19.566  0.00  0.00    +0.000 N 
ATOM     24  H   UNL     1       3.827   5.951  20.339  0.00  0.00    +0.000 HD
BRANCH  23  25
ATOM     25  S   UNL     1       2.847   4.989  18.515  0.00  0.00    +0.000 S 
ATOM     26  O   UNL     1       3.055   3.768  19.266  0.00  0.00    +0.000 OA
ATOM     27  O   UNL     1       1.569   5.270  17.896  0.00  0.00    +0.000 OA
BRANCH  25  28
ATOM     28  C   UNL     1       4.111   5.065  17.261  0.00  0.00    +0.000 A 
ATOM     29  C   UNL     1       4.711   6.288  16.936  0.00  0.00    +0.000 A 
ATOM     30  C   UNL     1       5.755   6.314  16.005  0.00  0.00    +0.000 A 
ATOM     31  C   UNL     1       6.191   5.127  15.421  0.00  0.00    +0.000 A 
ATOM     32  F   UNL     1       7.201   5.157  14.541  0.00  0.00    +0.000 F 
ATOM     33  C   UNL     1       5.603   3.909  15.746  0.00  0.00    +0.000 A 
ATOM     34  C   UNL     1       4.562   3.873  16.675  0.00  0.00    +0.000 A 
ENDBRANCH  25  28
ENDBRANCH  23  25
ENDBRANCH   4  23
TORSDOF 6
ENDMDL
MODEL 4
REMARK VINA RESULT:      -8.6      6.457      9.027
REMARK  Name = 
REMARK  6 active torsions:
REMARK  status: ('A' for Active; 'I' for Inactive)
REMARK    1  A    between atoms: C_2  and  C_4
REMARK    2  A    between atoms: C_6  and  N_7
REMARK    3  A    between atoms: C_8  and  C_10
REMARK    4  A    between atoms: C_13  and  N_14
REMARK    5  A    between atoms: N_14  and  S_15
REMARK    6  A    between atoms: S_15  and  C_18
REMARK                            x       y       z     vdW  Elec       q    Type
REMARK                         _______ _______ _______ _____ _____    ______ ____
ROOT
ATOM      1  C   UNL     1       1.551   8.392  19.734  0.00  0.00    +0.000 A 
ATOM      2  C   UNL     1       1.564   7.368  20.690  0.00  0.00    +0.000 A 
ATOM      3  C   UNL     1       2.155   6.128  20.379  0.00  0.00    +0.000 A 
ATOM      4  C   UNL     1       2.727   5.922  19.122  0.00  0.00    +0.000 A 
ATOM      5  C   UNL     1       2.730   6.942  18.178  0.00  0.00    +0.000 A 
ATOM      6  C   UNL     1       2.143   8.166  18.481  0.00  0.00    +0.000 A 
ENDROOT
BRANCH   1   8
ATOM      7  N   UNL     1       0.635  10.152  21.206  0.00  0.00    +0.000 N 
ATOM      8  C   UNL     1       0.851   9.697  19.913  0.00  0.00    +0.000 C 
ATOM      9  O   UNL     1       0.553  10.313  18.891  0.00  0.00    +0.000 OA
ATOM     10  H   UNL     1       1.133   9.697  21.962  0.00  0.00    +0.000 HD
BRANCH   7  13
ATOM     11  C   UNL     1      -2.092  12.515  22.276  0.00  0.00    +0.000 A 
ATOM     12  C   UNL     1      -1.386  11.328  22.009  0.00  0.00    +0.000 A 
ATOM     13  C   UNL     1      -0.071  11.340  21.526  0.00  0.00    +0.000 A 
ATOM     14  C   UNL     1       0.566  12.571  21.370  0.00  0.00    +0.000 A 
ATOM     15  C   UNL     1      -0.118  13.762  21.659  0.00  0.00    +0.000 A 
ATOM     16  C   UNL     1      -1.444  13.740  22.106  0.00  0.00    +0.000 A 
ATOM     17 CL   UNL     1      -2.198  15.270  22.380  0.00  0.00    +0.000 Cl
BRANCH  11  19
ATOM     18  N   UNL     1      -3.678  12.190  24.094  0.00  0.00    +0.000 N 
ATOM     19  C   UNL     1      -3.498  12.403  22.752  0.00  0.00    +0.000 C 
ATOM     20  O   UNL     1      -4.465  12.506  22.010  0.00  0.00    +0.000 OA
ATOM     21  H   UNL     1      -4.629  12.102  24.429  0.00  0.00    +0.000 HD
ATOM     22  H   UNL     1      -2.925  12.044  24.754  0.00  0.00    +0.000 HD
ENDBRANCH  11  19
ENDBRANCH   7  13
ENDBRANCH   1   8
BRANCH   4  23
ATOM     23  N   UNL     1       3.300   4.680  18.748  0.00  0.00    +0.000 N 
ATOM     24  H   UNL     1       2.927   4.184  17.940  0.00  0.00    +0.000 HD
BRANCH  23  25
ATOM     25  S   UNL     1       4.946   4.414  18.981  0.00  0.00    +0.000 S 
ATOM     26  O   UNL     1       5.441   5.583  19.679  0.00  0.00    +0.000 OA
ATOM     27  O   UNL     1       5.134   3.088  19.530  0.00  0.00    +0.000 OA
BRANCH  25  28
ATOM     28  C   UNL     1       5.630   4.447  17.336  0.00  0.00    +0.000 A 
ATOM     29  C   UNL     1       4.801   4.263  16.222  0.00  0.00    +0.000 A 
ATOM     30  C   UNL     1       5.343   4.370  14.937  0.00  0.00    +0.000 A 
ATOM     31  C   UNL     1       6.695   4.667  14.780  0.00  0.00    +0.000 A 
ATOM     32  F   UNL     1       7.205   4.784  13.547  0.00  0.00    +0.000 F 
ATOM     33  C   UNL     1       7.521   4.859  15.882  0.00  0.00    +0.000 A 
ATOM     34  C   UNL     1       6.988   4.755  17.169  0.00  0.00    +0.000 A 
ENDBRANCH  25  28
ENDBRANCH  23  25
ENDBRANCH   4  23
TORSDOF 6
ENDMDL
MODEL 5
REMARK VINA RESULT:      -8.6      7.605     10.164
REMARK  Name = 
REMARK  6 active torsions:
REMARK  status: ('A' for Active; 'I' for Inactive)
REMARK    1  A    between atoms: C_2  and  C_4
REMARK    2  A    between atoms: C_6  and  N_7
REMARK    3  A    between atoms: C_8  and  C_10
REMARK    4  A    between atoms: C_13  and  N_14
REMARK    5  A    between atoms: N_14  and  S_15
REMARK    6  A    between atoms: S_15  and  C_18
REMARK                            x       y       z     vdW  Elec       q    Type
REMARK                         _______ _______ _______ _____ _____    ______ ____
ROOT
ATOM      1  C   UNL     1       0.663   9.718  20.723  0.00  0.00    +0.000 A 
ATOM      2  C   UNL     1       0.806  10.153  19.400  0.00  0.00    +0.000 A 
ATOM      3  C   UNL     1       1.537   9.373  18.483  0.00  0.00    +0.000 A 
ATOM      4  C   UNL     1       2.117   8.171  18.892  0.00  0.00    +0.000 A 
ATOM      5  C   UNL     1       1.962   7.729  20.201  0.00  0.00    +0.000 A 
ATOM      6  C   UNL     1       1.244   8.500  21.111  0.00  0.00    +0.000 A 
ENDROOT
BRANCH   1   8
ATOM      7  N   UNL     1      -0.846  11.542  21.433  0.00  0.00    +0.000 N 
ATOM      8  C   UNL     1       0.014  10.518  21.803  0.00  0.00    +0.000 C 
ATOM      9  O   UNL     1       0.249  10.179  22.962  0.00  0.00    +0.000 OA
ATOM     10  H   UNL     1      -1.160  11.576  20.470  0.00  0.00    +0.000 HD
BRANCH   7  13
ATOM     11  C   UNL     1      -3.442  13.156  23.628  0.00  0.00    +0.000 A 
ATOM     12  C   UNL     1      -2.809  12.249  22.758  0.00  0.00    +0.000 A 
ATOM     13  C   UNL     1      -1.480  12.420  22.347  0.00  0.00    +0.000 A 
ATOM     14  C   UNL     1      -0.757  13.490  22.874  0.00  0.00    +0.000 A 
ATOM     15  C   UNL     1      -1.368  14.386  23.764  0.00  0.00    +0.000 A 
ATOM     16  C   UNL     1      -2.707  14.227  24.140  0.00  0.00    +0.000 A 
ATOM     17 CL   UNL     1      -3.365  15.421  25.200  0.00  0.00    +0.000 Cl
BRANCH  11  19
ATOM     18  N   UNL     1      -5.106  12.054  25.022  0.00  0.00    +0.000 N 
ATOM     19  C   UNL     1      -4.868  12.911  23.979  0.00  0.00    +0.000 C 
ATOM     20  O   UNL     1      -5.801  13.445  23.395  0.00  0.00    +0.000 OA
ATOM     21  H   UNL     1      -6.071  11.871  25.264  0.00  0.00    +0.000 HD
ATOM     22  H   UNL     1      -4.386  11.540  25.513  0.00  0.00    +0.000 HD
ENDBRANCH  11  19
ENDBRANCH   7  13
ENDBRANCH   1   8
BRANCH   4  23
ATOM     23  N   UNL     1       2.894   7.371  18.017  0.00  0.00    +0.000 N 
ATOM     24  H   UNL     1       3.679   7.792  17.524  0.00  0.00    +0.000 HD
BRANCH  23  25
ATOM     25  S   UNL     1       3.134   5.741  18.366  0.00  0.00    +0.000 S 
ATOM     26  O   UNL     1       3.816   5.706  19.642  0.00  0.00    +0.000 OA
ATOM     27  O   UNL     1       1.888   5.030  18.171  0.00  0.00    +0.000 OA
BRANCH  25  28
ATOM     28  C   UNL     1       4.294   5.197  17.127  0.00  0.00    +0.000 A 
ATOM     29  C   UNL     1       4.544   3.831  16.944  0.00  0.00    +0.000 A 
ATOM     30  C   UNL     1       5.399   3.422  15.915  0.00  0.00    +0.000 A 
ATOM     31  C   UNL     1       5.982   4.373  15.081  0.00  0.00    +0.000 A 
ATOM     32  F   UNL     1       6.788   3.973  14.088  0.00  0.00    +0.000 F 
ATOM     33  C   UNL     1       5.732   5.730  15.254  0.00  0.00    +0.000 A 
ATOM     34  C   UNL     1       4.879   6.148  16.277  0.00  0.00    +0.000 A 
ENDBRANCH  25  28
ENDBRANCH  23  25
ENDBRANCH   4  23
TORSDOF 6
ENDMDL
MODEL 6
REMARK VINA RESULT:      -8.6      7.697     10.260
REMARK  Name = 
REMARK  6 active torsions:
REMARK  status: ('A' for Active; 'I' for Inactive)
REMARK    1  A    between atoms: C_2  and  C_4
REMARK    2  A    between atoms: C_6  and  N_7
REMARK    3  A    between atoms: C_8  and  C_10
REMARK    4  A    between atoms: C_13  and  N_14
REMARK    5  A    between atoms: N_14  and  S_15
REMARK    6  A    between atoms: S_15  and  C_18
REMARK                            x       y       z     vdW  Elec       q    Type
REMARK                         _______ _______ _______ _____ _____    ______ ____
ROOT
ATOM      1  C   UNL     1       0.671   9.599  21.318  0.00  0.00    +0.000 A 
ATOM      2  C   UNL     1       1.141   8.315  21.619  0.00  0.00    +0.000 A 
ATOM      3  C   UNL     1       1.739   7.535  20.610  0.00  0.00    +0.000 A 
ATOM      4  C   UNL     1       1.862   8.041  19.314  0.00  0.00    +0.000 A 
ATOM      5  C   UNL     1       1.410   9.322  19.018  0.00  0.00    +0.000 A 
ATOM      6  C   UNL     1       0.815  10.093  20.012  0.00  0.00    +0.000 A 
ENDROOT
BRANCH   1   8
ATOM      7  N   UNL     1      -0.798  11.535  21.766  0.00  0.00    +0.000 N 
ATOM      8  C   UNL     1      -0.082  10.461  22.275  0.00  0.00    +0.000 C 
ATOM      9  O   UNL     1      -0.059  10.128  23.459  0.00  0.00    +0.000 OA
ATOM     10  H   UNL     1      -0.953  11.573  20.765  0.00  0.00    +0.000 HD
BRANCH   7  13
ATOM     11  C   UNL     1      -3.548  13.244  23.684  0.00  0.00    +0.000 A 
ATOM     12  C   UNL     1      -2.842  12.284  22.936  0.00  0.00    +0.000 A 
ATOM     13  C   UNL     1      -1.506  12.471  22.561  0.00  0.00    +0.000 A 
ATOM     14  C   UNL     1      -0.848  13.619  23.004  0.00  0.00    +0.000 A 
ATOM     15  C   UNL     1      -1.532  14.572  23.775  0.00  0.00    +0.000 A 
ATOM     16  C   UNL     1      -2.879  14.392  24.113  0.00  0.00    +0.000 A 
ATOM     17 CL   UNL     1      -3.628  15.656  25.021  0.00  0.00    +0.000 Cl
BRANCH  11  19
ATOM     18  N   UNL     1      -5.224  11.996  24.932  0.00  0.00    +0.000 N 
ATOM     19  C   UNL     1      -4.976  12.973  24.004  0.00  0.00    +0.000 C 
ATOM     20  O   UNL     1      -5.903  13.586  23.491  0.00  0.00    +0.000 OA
ATOM     21  H   UNL     1      -6.192  11.796  25.150  0.00  0.00    +0.000 HD
ATOM     22  H   UNL     1      -4.511  11.417  25.355  0.00  0.00    +0.000 HD
ENDBRANCH  11  19
ENDBRANCH   7  13
ENDBRANCH   1   8
BRANCH   4  23
ATOM     23  N   UNL     1       2.421   7.281  18.256  0.00  0.00    +0.000 N 
ATOM     24  H   UNL     1       2.953   7.757  17.530  0.00  0.00    +0.000 HD
BRANCH  23  25
ATOM     25  S   UNL     1       2.961   5.713  18.548  0.00  0.00    +0.000 S 
ATOM     26  O   UNL     1       3.742   5.784  19.765  0.00  0.00    +0.000 OA
ATOM     27  O   UNL     1       1.842   4.803  18.437  0.00  0.00    +0.000 OA
BRANCH  25  28
ATOM     28  C   UNL     1       4.090   5.386  17.209  0.00  0.00    +0.000 A 
ATOM     29  C   UNL     1       4.705   6.444  16.528  0.00  0.00    +0.000 A 
ATOM     30  C   UNL     1       5.647   6.165  15.532  0.00  0.00    +0.000 A 
ATOM     31  C   UNL     1       5.969   4.843  15.237  0.00  0.00    +0.000 A 
ATOM     32  F   UNL     1       6.883   4.582  14.292  0.00  0.00    +0.000 F 
ATOM     33  C   UNL     1       5.367   3.788  15.915  0.00  0.00    +0.000 A 
ATOM     34  C   UNL     1       4.427   4.057  16.911  0.00  0.00    +0.000 A 
ENDBRANCH  25  28
ENDBRANCH  23  25
ENDBRANCH   4  23
TORSDOF 6
ENDMDL
MODEL 7
REMARK VINA RESULT:      -8.6      6.395      8.688
REMARK  Name = 
REMARK  6 active torsions:
REMARK  status: ('A' for Active; 'I' for Inactive)
REMARK    1  A    between atoms: C_2  and  C_4
REMARK    2  A    between atoms: C_6  and  N_7
REMARK    3  A    between atoms: C_8  and  C_10
REMARK    4  A    between atoms: C_13  and  N_14
REMARK    5  A    between atoms: N_14  and  S_15
REMARK    6  A    between atoms: S_15  and  C_18
REMARK                            x       y       z     vdW  Elec       q    Type
REMARK                         _______ _______ _______ _____ _____    ______ ____
ROOT
ATOM      1  C   UNL     1       1.698   8.475  19.474  0.00  0.00    +0.000 A 
ATOM      2  C   UNL     1       1.636   7.518  20.494  0.00  0.00    +0.000 A 
ATOM      3  C   UNL     1       2.165   6.231  20.279  0.00  0.00    +0.000 A 
ATOM      4  C   UNL     1       2.748   5.910  19.051  0.00  0.00    +0.000 A 
ATOM      5  C   UNL     1       2.824   6.864  18.042  0.00  0.00    +0.000 A 
ATOM      6  C   UNL     1       2.299   8.135  18.251  0.00  0.00    +0.000 A 
ENDROOT
BRANCH   1   8
ATOM      7  N   UNL     1       0.097  10.040  20.521  0.00  0.00    +0.000 N 
ATOM      8  C   UNL     1       1.066   9.825  19.551  0.00  0.00    +0.000 C 
ATOM      9  O   UNL     1       1.487  10.681  18.774  0.00  0.00    +0.000 OA
ATOM     10  H   UNL     1       0.003   9.355  21.261  0.00  0.00    +0.000 HD
BRANCH   7  13
ATOM     11  C   UNL     1      -1.112  13.348  21.848  0.00  0.00    +0.000 A 
ATOM     12  C   UNL     1      -0.352  12.175  21.683  0.00  0.00    +0.000 A 
ATOM     13  C   UNL     1      -0.628  11.249  20.668  0.00  0.00    +0.000 A 
ATOM     14  C   UNL     1      -1.650  11.542  19.764  0.00  0.00    +0.000 A 
ATOM     15  C   UNL     1      -2.398  12.722  19.902  0.00  0.00    +0.000 A 
ATOM     16  C   UNL     1      -2.137  13.623  20.941  0.00  0.00    +0.000 A 
ATOM     17 CL   UNL     1      -3.155  15.014  21.038  0.00  0.00    +0.000 Cl
BRANCH  11  19
ATOM     18  N   UNL     1      -1.568  14.190  24.086  0.00  0.00    +0.000 N 
ATOM     19  C   UNL     1      -0.766  14.254  22.977  0.00  0.00    +0.000 C 
ATOM     20  O   UNL     1       0.189  15.019  22.951  0.00  0.00    +0.000 OA
ATOM     21  H   UNL     1      -1.350  14.808  24.857  0.00  0.00    +0.000 HD
ATOM     22  H   UNL     1      -2.401  13.620  24.155  0.00  0.00    +0.000 HD
ENDBRANCH  11  19
ENDBRANCH   7  13
ENDBRANCH   1   8
BRANCH   4  23
ATOM     23  N   UNL     1       3.258   4.618  18.772  0.00  0.00    +0.000 N 
ATOM     24  H   UNL     1       2.851   4.076  18.013  0.00  0.00    +0.000 HD
BRANCH  23  25
ATOM     25  S   UNL     1       4.895   4.297  19.005  0.00  0.00    +0.000 S 
ATOM     26  O   UNL     1       5.418   5.426  19.746  0.00  0.00    +0.000 OA
ATOM     27  O   UNL     1       5.042   2.948  19.508  0.00  0.00    +0.000 OA
BRANCH  25  28
ATOM     28  C   UNL     1       5.590   4.368  17.366  0.00  0.00    +0.000 A 
ATOM     29  C   UNL     1       4.772   4.186  16.243  0.00  0.00    +0.000 A 
ATOM     30  C   UNL     1       5.322   4.323  14.964  0.00  0.00    +0.000 A 
ATOM     31  C   UNL     1       6.669   4.645  14.822  0.00  0.00    +0.000 A 
ATOM     32  F   UNL     1       7.186   4.790  13.594  0.00  0.00    +0.000 F 
ATOM     33  C   UNL     1       7.484   4.833  15.933  0.00  0.00    +0.000 A 
ATOM     34  C   UNL     1       6.944   4.701  17.213  0.00  0.00    +0.000 A 
ENDBRANCH  25  28
ENDBRANCH  23  25
ENDBRANCH   4  23
TORSDOF 6
ENDMDL
MODEL 8
REMARK VINA RESULT:      -8.6      5.380      6.862
REMARK  Name = 
REMARK  6 active torsions:
REMARK  status: ('A' for Active; 'I' for Inactive)
REMARK    1  A    between atoms: C_2  and  C_4
REMARK    2  A    between atoms: C_6  and  N_7
REMARK    3  A    between atoms: C_8  and  C_10
REMARK    4  A    between atoms: C_13  and  N_14
REMARK    5  A    between atoms: N_14  and  S_15
REMARK    6  A    between atoms: S_15  and  C_18
REMARK                            x       y       z     vdW  Elec       q    Type
REMARK                         _______ _______ _______ _____ _____    ______ ____
ROOT
ATOM      1  C   UNL     1       1.755   7.502  19.634  0.00  0.00    +0.000 A 
ATOM      2  C   UNL     1       1.679   6.565  20.671  0.00  0.00    +0.000 A 
ATOM      3  C   UNL     1       1.868   5.198  20.394  0.00  0.00    +0.000 A 
ATOM      4  C   UNL     1       2.131   4.778  19.088  0.00  0.00    +0.000 A 
ATOM      5  C   UNL     1       2.224   5.708  18.060  0.00  0.00    +0.000 A 
ATOM      6  C   UNL     1       2.033   7.060  18.330  0.00  0.00    +0.000 A 
ENDROOT
BRANCH   1   8
ATOM      7  N   UNL     1       1.292   9.720  18.646  0.00  0.00    +0.000 N 
ATOM      8  C   UNL     1       1.455   8.955  19.793  0.00  0.00    +0.000 C 
ATOM      9  O   UNL     1       1.322   9.373  20.942  0.00  0.00    +0.000 OA
ATOM     10  H   UNL     1       1.176   9.236  17.763  0.00  0.00    +0.000 HD
BRANCH   7  13
ATOM     11  C   UNL     1       1.878  13.437  18.634  0.00  0.00    +0.000 A 
ATOM     12  C   UNL     1       2.111  12.051  18.584  0.00  0.00    +0.000 A 
ATOM     13  C   UNL     1       1.067  11.120  18.646  0.00  0.00    +0.000 A 
ATOM     14  C   UNL     1      -0.243  11.596  18.696  0.00  0.00    +0.000 A 
ATOM     15  C   UNL     1      -0.492  12.978  18.719  0.00  0.00    +0.000 A 
ATOM     16  C   UNL     1       0.562  13.899  18.693  0.00  0.00    +0.000 A 
ATOM     17 CL   UNL     1       0.135  15.570  18.777  0.00  0.00    +0.000 Cl
BRANCH  11  19
ATOM     18  N   UNL     1       3.472  14.764  17.361  0.00  0.00    +0.000 N 
ATOM     19  C   UNL     1       3.055  14.348  18.598  0.00  0.00    +0.000 C 
ATOM     20  O   UNL     1       3.631  14.735  19.605  0.00  0.00    +0.000 OA
ATOM     21  H   UNL     1       4.278  15.376  17.322  0.00  0.00    +0.000 HD
ATOM     22  H   UNL     1       3.076  14.444  16.487  0.00  0.00    +0.000 HD
ENDBRANCH  11  19
ENDBRANCH   7  13
ENDBRANCH   1   8
BRANCH   4  23
ATOM     23  N   UNL     1       2.290   3.410  18.752  0.00  0.00    +0.000 N 
ATOM     24  H   UNL     1       1.712   3.009  18.016  0.00  0.00    +0.000 HD
BRANCH  23  25
ATOM     25  S   UNL     1       3.811   2.695  18.858  0.00  0.00    +0.000 S 
ATOM     26  O   UNL     1       4.081   2.546  20.273  0.00  0.00    +0.000 OA
ATOM     27  O   UNL     1       3.855   1.552  17.970  0.00  0.00    +0.000 OA
BRANCH  25  28
ATOM     28  C   UNL     1       4.922   3.940  18.232  0.00  0.00    +0.000 A 
ATOM     29  C   UNL     1       5.656   4.741  19.116  0.00  0.00    +0.000 A 
ATOM     30  C   UNL     1       6.580   5.658  18.605  0.00  0.00    +0.000 A 
ATOM     31  C   UNL     1       6.766   5.758  17.228  0.00  0.00    +0.000 A 
ATOM     32  F   UNL     1       7.664   6.628  16.746  0.00  0.00    +0.000 F 
ATOM     33  C   UNL     1       6.046   4.960  16.347  0.00  0.00    +0.000 A 
ATOM     34  C   UNL     1       5.123   4.040  16.847  0.00  0.00    +0.000 A 
ENDBRANCH  25  28
ENDBRANCH  23  25
ENDBRANCH   4  23
TORSDOF 6
ENDMDL
MODEL 9
REMARK VINA RESULT:      -8.6      6.498      9.133
REMARK  Name = 
REMARK  6 active torsions:
REMARK  status: ('A' for Active; 'I' for Inactive)
REMARK    1  A    between atoms: C_2  and  C_4
REMARK    2  A    between atoms: C_6  and  N_7
REMARK    3  A    between atoms: C_8  and  C_10
REMARK    4  A    between atoms: C_13  and  N_14
REMARK    5  A    between atoms: N_14  and  S_15
REMARK    6  A    between atoms: S_15  and  C_18
REMARK                            x       y       z     vdW  Elec       q    Type
REMARK                         _______ _______ _______ _____ _____    ______ ____
ROOT
ATOM      1  C   UNL     1       1.503   7.966  20.427  0.00  0.00    +0.000 A 
ATOM      2  C   UNL     1       2.125   8.105  19.181  0.00  0.00    +0.000 A 
ATOM      3  C   UNL     1       2.695   6.981  18.554  0.00  0.00    +0.000 A 
ATOM      4  C   UNL     1       2.640   5.731  19.174  0.00  0.00    +0.000 A 
ATOM      5  C   UNL     1       2.008   5.587  20.404  0.00  0.00    +0.000 A 
ATOM      6  C   UNL     1       1.448   6.698  21.028  0.00  0.00    +0.000 A 
ENDROOT
BRANCH   1   8
ATOM      7  N   UNL     1       0.200  10.060  20.587  0.00  0.00    +0.000 N 
ATOM      8  C   UNL     1       0.973   9.105  21.232  0.00  0.00    +0.000 C 
ATOM      9  O   UNL     1       1.218   9.095  22.438  0.00  0.00    +0.000 OA
ATOM     10  H   UNL     1      -0.146   9.846  19.659  0.00  0.00    +0.000 HD
BRANCH   7  13
ATOM     11  C   UNL     1      -2.085  12.428  22.413  0.00  0.00    +0.000 A 
ATOM     12  C   UNL     1      -1.565  11.253  21.840  0.00  0.00    +0.000 A 
ATOM     13  C   UNL     1      -0.314  11.225  21.210  0.00  0.00    +0.000 A 
ATOM     14  C   UNL     1       0.455  12.388  21.213  0.00  0.00    +0.000 A 
ATOM     15  C   UNL     1      -0.040  13.561  21.805  0.00  0.00    +0.000 A 
ATOM     16  C   UNL     1      -1.307  13.587  22.400  0.00  0.00    +0.000 A 
ATOM     17 CL   UNL     1      -1.829  15.099  23.050  0.00  0.00    +0.000 Cl
BRANCH  11  19
ATOM     18  N   UNL     1      -4.498  12.678  22.216  0.00  0.00    +0.000 N 
ATOM     19  C   UNL     1      -3.439  12.369  23.028  0.00  0.00    +0.000 C 
ATOM     20  O   UNL     1      -3.629  12.051  24.194  0.00  0.00    +0.000 OA
ATOM     21  H   UNL     1      -5.423  12.651  22.625  0.00  0.00    +0.000 HD
ATOM     22  H   UNL     1      -4.410  12.998  21.260  0.00  0.00    +0.000 HD
ENDBRANCH  11  19
ENDBRANCH   7  13
ENDBRANCH   1   8
BRANCH   4  23
ATOM     23  N   UNL     1       3.232   4.577  18.602  0.00  0.00    +0.000 N 
ATOM     24  H   UNL     1       2.908   4.250  17.693  0.00  0.00    +0.000 HD
BRANCH  23  25
ATOM     25  S   UNL     1       4.862   4.253  18.873  0.00  0.00    +0.000 S 
ATOM     26  O   UNL     1       5.360   5.360  19.663  0.00  0.00    +0.000 OA
ATOM     27  O   UNL     1       4.998   2.889  19.339  0.00  0.00    +0.000 OA
BRANCH  25  28
ATOM     28  C   UNL     1       5.606   4.374  17.258  0.00  0.00    +0.000 A 
ATOM     29  C   UNL     1       4.820   4.239  16.106  0.00  0.00    +0.000 A 
ATOM     30  C   UNL     1       5.408   4.415  14.849  0.00  0.00    +0.000 A 
ATOM     31  C   UNL     1       6.761   4.731  14.758  0.00  0.00    +0.000 A 
ATOM     32  F   UNL     1       7.315   4.913  13.551  0.00  0.00    +0.000 F 
ATOM     33  C   UNL     1       7.544   4.873  15.898  0.00  0.00    +0.000 A 
ATOM     34  C   UNL     1       6.966   4.701  17.157  0.00  0.00    +0.000 A 
ENDBRANCH  25  28
ENDBRANCH  23  25
ENDBRANCH   4  23
TORSDOF 6
ENDMDL
