MODEL 1
REMARK VINA RESULT:      -8.5      0.000      0.000
REMARK  Name = 
REMARK  3 active torsions:
REMARK  status: ('A' for Active; 'I' for Inactive)
REMARK    1  A    between atoms: C_1  and  C_2
REMARK    2  A    between atoms: C_4  and  N_5
REMARK    3  A    between atoms: C_6  and  C_8
REMARK                            x       y       z     vdW  Elec       q    Type
REMARK                         _______ _______ _______ _____ _____    ______ ____
ROOT
ATOM      1  C   UNL     1       8.468   8.801  18.257  0.00  0.00    +0.000 C 
ATOM      2  C   UNL     1       7.706   7.604  17.818  0.00  0.00    +0.000 A 
ATOM      3  C   UNL     1       6.681   6.949  18.543  0.00  0.00    +0.000 A 
ATOM      4  C   UNL     1       6.212   5.968  17.705  0.00  0.00    +0.000 A 
ATOM      5  N   UNL     1       6.958   6.087  16.547  0.00  0.00    +0.000 N 
ATOM      6  C   UNL     1       6.755   5.377  15.377  0.00  0.00    +0.000 A 
ATOM      7  N   UNL     1       5.725   4.569  15.213  0.00  0.00    +0.000 NA
ATOM      8  C   UNL     1       5.841   4.125  13.920  0.00  0.00    +0.000 A 
ATOM      9  C   UNL     1       4.983   3.291  13.192  0.00  0.00    +0.000 A 
ATOM     10  C   UNL     1       5.353   2.919  11.895  0.00  0.00    +0.000 A 
ATOM     11  C   UNL     1       6.545   3.382  11.334  0.00  0.00    +0.000 A 
ATOM     12  C   UNL     1       7.395   4.253  12.030  0.00  0.00    +0.000 A 
ATOM     13  C   UNL     1       7.005   4.611  13.322  0.00  0.00    +0.000 A 
ATOM     14  N   UNL     1       7.559   5.439  14.270  0.00  0.00    +0.000 N 
ATOM     15  N   UNL     1       7.919   7.036  16.619  0.00  0.00    +0.000 NA
ATOM     16  H   UNL     1       8.404   5.990  14.188  0.00  0.00    +0.000 HD
ENDROOT
BRANCH   4  17
ATOM     17  N   UNL     1       5.191   5.030  17.903  0.00  0.00    +0.000 N 
ATOM     18  C   UNL     1       3.811   5.380  17.978  0.00  0.00    +0.000 C 
ATOM     19  O   UNL     1       3.446   6.534  17.795  0.00  0.00    +0.000 OA
ATOM     20  H   UNL     1       5.503   4.057  17.936  0.00  0.00    +0.000 HD
BRANCH  18  21
ATOM     21  C   UNL     1       2.825   4.311  18.258  0.00  0.00    +0.000 A 
ATOM     22  C   UNL     1       2.841   3.072  17.607  0.00  0.00    +0.000 A 
ATOM     23  C   UNL     1       1.921   2.087  17.982  0.00  0.00    +0.000 A 
ATOM     24  C   UNL     1       0.989   2.337  18.991  0.00  0.00    +0.000 A 
ATOM     25  C   UNL     1       0.968   3.572  19.635  0.00  0.00    +0.000 A 
ATOM     26  C   UNL     1       1.887   4.554  19.273  0.00  0.00    +0.000 A 
ENDBRANCH  18  21
ENDBRANCH   4  17
TORSDOF 2
ENDMDL
MODEL 2
REMARK VINA RESULT:      -8.5      3.220      7.270
REMARK  Name = 
REMARK  3 active torsions:
REMARK  status: ('A' for Active; 'I' for Inactive)
REMARK    1  A    between atoms: C_1  and  C_2
REMARK    2  A    between atoms: C_4  and  N_5
REMARK    3  A    between atoms: C_6  and  C_8
REMARK                            x       y       z     vdW  Elec       q    Type
REMARK                         _______ _______ _______ _____ _____    ______ ____
ROOT
ATOM      1  C   UNL     1       1.560   2.020  22.378  0.00  0.00    +0.000 C 
ATOM      2  C   UNL     1       2.108   2.948  21.356  0.00  0.00    +0.000 A 
ATOM      3  C   UNL     1       2.877   2.588  20.222  0.00  0.00    +0.000 A 
ATOM      4  C   UNL     1       3.069   3.758  19.528  0.00  0.00    +0.000 A 
ATOM      5  N   UNL     1       2.415   4.731  20.260  0.00  0.00    +0.000 N 
ATOM      6  C   UNL     1       2.242   6.050  19.879  0.00  0.00    +0.000 A 
ATOM      7  N   UNL     1       2.601   6.493  18.689  0.00  0.00    +0.000 NA
ATOM      8  C   UNL     1       2.201   7.805  18.678  0.00  0.00    +0.000 A 
ATOM      9  C   UNL     1       2.276   8.742  17.640  0.00  0.00    +0.000 A 
ATOM     10  C   UNL     1       1.860  10.054  17.891  0.00  0.00    +0.000 A 
ATOM     11  C   UNL     1       1.367  10.417  19.146  0.00  0.00    +0.000 A 
ATOM     12  C   UNL     1       1.243   9.483  20.185  0.00  0.00    +0.000 A 
ATOM     13  C   UNL     1       1.664   8.179  19.911  0.00  0.00    +0.000 A 
ATOM     14  N   UNL     1       1.673   7.024  20.655  0.00  0.00    +0.000 N 
ATOM     15  N   UNL     1       1.877   4.270  21.412  0.00  0.00    +0.000 NA
ATOM     16  H   UNL     1       1.337   6.899  21.602  0.00  0.00    +0.000 HD
ENDROOT
BRANCH   4  17
ATOM     17  N   UNL     1       3.748   3.985  18.324  0.00  0.00    +0.000 N 
ATOM     18  C   UNL     1       5.161   4.153  18.241  0.00  0.00    +0.000 C 
ATOM     19  O   UNL     1       5.866   4.029  19.234  0.00  0.00    +0.000 OA
ATOM     20  H   UNL     1       3.157   3.969  17.489  0.00  0.00    +0.000 HD
BRANCH  18  21
ATOM     21  C   UNL     1       5.761   4.455  16.921  0.00  0.00    +0.000 A 
ATOM     22  C   UNL     1       7.095   4.847  16.765  0.00  0.00    +0.000 A 
ATOM     23  C   UNL     1       7.607   5.042  15.478  0.00  0.00    +0.000 A 
ATOM     24  C   UNL     1       6.796   4.854  14.357  0.00  0.00    +0.000 A 
ATOM     25  C   UNL     1       5.466   4.469  14.512  0.00  0.00    +0.000 A 
ATOM     26  C   UNL     1       4.951   4.265  15.790  0.00  0.00    +0.000 A 
ENDBRANCH  18  21
ENDBRANCH   4  17
TORSDOF 2
ENDMDL
MODEL 3
REMARK VINA RESULT:      -7.9      1.630      6.060
REMARK  Name = 
REMARK  3 active torsions:
REMARK  status: ('A' for Active; 'I' for Inactive)
REMARK    1  A    between atoms: C_1  and  C_2
REMARK    2  A    between atoms: C_4  and  N_5
REMARK    3  A    between atoms: C_6  and  C_8
REMARK                            x       y       z     vdW  Elec       q    Type
REMARK                         _______ _______ _______ _____ _____    ______ ____
ROOT
ATOM      1  C   UNL     1       8.223   8.206  18.196  0.00  0.00    +0.000 C 
ATOM      2  C   UNL     1       7.259   7.249  17.596  0.00  0.00    +0.000 A 
ATOM      3  C   UNL     1       7.393   6.593  16.348  0.00  0.00    +0.000 A 
ATOM      4  C   UNL     1       6.317   5.743  16.266  0.00  0.00    +0.000 A 
ATOM      5  N   UNL     1       5.617   5.924  17.444  0.00  0.00    +0.000 N 
ATOM      6  C   UNL     1       4.519   5.187  17.853  0.00  0.00    +0.000 A 
ATOM      7  N   UNL     1       4.088   4.134  17.185  0.00  0.00    +0.000 NA
ATOM      8  C   UNL     1       3.050   3.651  17.942  0.00  0.00    +0.000 A 
ATOM      9  C   UNL     1       2.266   2.508  17.738  0.00  0.00    +0.000 A 
ATOM     10  C   UNL     1       1.209   2.256  18.618  0.00  0.00    +0.000 A 
ATOM     11  C   UNL     1       0.950   3.119  19.686  0.00  0.00    +0.000 A 
ATOM     12  C   UNL     1       1.751   4.244  19.932  0.00  0.00    +0.000 A 
ATOM     13  C   UNL     1       2.800   4.475  19.040  0.00  0.00    +0.000 A 
ATOM     14  N   UNL     1       3.779   5.438  18.978  0.00  0.00    +0.000 N 
ATOM     15  N   UNL     1       6.138   6.884  18.241  0.00  0.00    +0.000 NA
ATOM     16  H   UNL     1       3.934   6.201  19.625  0.00  0.00    +0.000 HD
ENDROOT
BRANCH   4  17
ATOM     17  N   UNL     1       5.958   4.845  15.254  0.00  0.00    +0.000 N 
ATOM     18  C   UNL     1       6.681   4.712  14.032  0.00  0.00    +0.000 C 
ATOM     19  O   UNL     1       7.714   5.342  13.843  0.00  0.00    +0.000 OA
ATOM     20  H   UNL     1       5.162   4.243  15.477  0.00  0.00    +0.000 HD
BRANCH  18  21
ATOM     21  C   UNL     1       6.169   3.776  13.005  0.00  0.00    +0.000 A 
ATOM     22  C   UNL     1       4.823   3.728  12.624  0.00  0.00    +0.000 A 
ATOM     23  C   UNL     1       4.431   2.868  11.593  0.00  0.00    +0.000 A 
ATOM     24  C   UNL     1       5.371   2.059  10.951  0.00  0.00    +0.000 A 
ATOM     25  C   UNL     1       6.710   2.102  11.333  0.00  0.00    +0.000 A 
ATOM     26  C   UNL     1       7.109   2.962  12.353  0.00  0.00    +0.000 A 
ENDBRANCH  18  21
ENDBRANCH   4  17
TORSDOF 2
ENDMDL
MODEL 4
REMARK VINA RESULT:      -7.2      3.496      5.750
REMARK  Name = 
REMARK  3 active torsions:
REMARK  status: ('A' for Active; 'I' for Inactive)
REMARK    1  A    between atoms: C_1  and  C_2
REMARK    2  A    between atoms: C_4  and  N_5
REMARK    3  A    between atoms: C_6  and  C_8
REMARK                            x       y       z     vdW  Elec       q    Type
REMARK                         _______ _______ _______ _____ _____    ______ ____
ROOT
ATOM      1  C   UNL     1       1.785   2.281  21.950  0.00  0.00    +0.000 C 
ATOM      2  C   UNL     1       2.072   3.321  20.929  0.00  0.00    +0.000 A 
ATOM      3  C   UNL     1       1.682   4.682  20.985  0.00  0.00    +0.000 A 
ATOM      4  C   UNL     1       2.250   5.268  19.880  0.00  0.00    +0.000 A 
ATOM      5  N   UNL     1       2.939   4.255  19.241  0.00  0.00    +0.000 N 
ATOM      6  C   UNL     1       3.764   4.407  18.140  0.00  0.00    +0.000 A 
ATOM      7  N   UNL     1       4.068   5.592  17.646  0.00  0.00    +0.000 NA
ATOM      8  C   UNL     1       4.949   5.322  16.629  0.00  0.00    +0.000 A 
ATOM      9  C   UNL     1       5.642   6.215  15.801  0.00  0.00    +0.000 A 
ATOM     10  C   UNL     1       6.442   5.695  14.778  0.00  0.00    +0.000 A 
ATOM     11  C   UNL     1       6.558   4.315  14.596  0.00  0.00    +0.000 A 
ATOM     12  C   UNL     1       5.908   3.405  15.443  0.00  0.00    +0.000 A 
ATOM     13  C   UNL     1       5.115   3.947  16.457  0.00  0.00    +0.000 A 
ATOM     14  N   UNL     1       4.367   3.382  17.461  0.00  0.00    +0.000 N 
ATOM     15  N   UNL     1       2.791   3.045  19.828  0.00  0.00    +0.000 NA
ATOM     16  H   UNL     1       4.261   2.397  17.670  0.00  0.00    +0.000 HD
ENDROOT
BRANCH   4  17
ATOM     17  N   UNL     1       2.203   6.599  19.447  0.00  0.00    +0.000 N 
ATOM     18  C   UNL     1       1.607   7.649  20.204  0.00  0.00    +0.000 C 
ATOM     19  O   UNL     1       1.163   7.439  21.326  0.00  0.00    +0.000 OA
ATOM     20  H   UNL     1       2.682   6.778  18.561  0.00  0.00    +0.000 HD
BRANCH  18  21
ATOM     21  C   UNL     1       1.556   9.006  19.614  0.00  0.00    +0.000 A 
ATOM     22  C   UNL     1       2.076   9.305  18.351  0.00  0.00    +0.000 A 
ATOM     23  C   UNL     1       1.922  10.596  17.832  0.00  0.00    +0.000 A 
ATOM     24  C   UNL     1       1.262  11.580  18.569  0.00  0.00    +0.000 A 
ATOM     25  C   UNL     1       0.748  11.285  19.829  0.00  0.00    +0.000 A 
ATOM     26  C   UNL     1       0.890  10.000  20.349  0.00  0.00    +0.000 A 
ENDBRANCH  18  21
ENDBRANCH   4  17
TORSDOF 2
ENDMDL
MODEL 5
REMARK VINA RESULT:      -7.1      7.621      9.748
REMARK  Name = 
REMARK  3 active torsions:
REMARK  status: ('A' for Active; 'I' for Inactive)
REMARK    1  A    between atoms: C_1  and  C_2
REMARK    2  A    between atoms: C_4  and  N_5
REMARK    3  A    between atoms: C_6  and  C_8
REMARK                            x       y       z     vdW  Elec       q    Type
REMARK                         _______ _______ _______ _____ _____    ______ ____
ROOT
ATOM      1  C   UNL     1      -1.857  13.423  23.489  0.00  0.00    +0.000 C 
ATOM      2  C   UNL     1      -1.416  12.684  22.278  0.00  0.00    +0.000 A 
ATOM      3  C   UNL     1      -0.283  11.840  22.176  0.00  0.00    +0.000 A 
ATOM      4  C   UNL     1      -0.339  11.309  20.911  0.00  0.00    +0.000 A 
ATOM      5  N   UNL     1      -1.477  11.843  20.338  0.00  0.00    +0.000 N 
ATOM      6  C   UNL     1      -2.000  11.499  19.104  0.00  0.00    +0.000 A 
ATOM      7  N   UNL     1      -1.504  10.514  18.379  0.00  0.00    +0.000 NA
ATOM      8  C   UNL     1      -2.330  10.446  17.285  0.00  0.00    +0.000 A 
ATOM      9  C   UNL     1      -2.309   9.539  16.218  0.00  0.00    +0.000 A 
ATOM     10  C   UNL     1      -3.222   9.714  15.173  0.00  0.00    +0.000 A 
ATOM     11  C   UNL     1      -4.145  10.762  15.202  0.00  0.00    +0.000 A 
ATOM     12  C   UNL     1      -4.212  11.653  16.283  0.00  0.00    +0.000 A 
ATOM     13  C   UNL     1      -3.290  11.458  17.314  0.00  0.00    +0.000 A 
ATOM     14  N   UNL     1      -3.076  12.102  18.509  0.00  0.00    +0.000 N 
ATOM     15  N   UNL     1      -2.115  12.734  21.131  0.00  0.00    +0.000 NA
ATOM     16  H   UNL     1      -3.597  12.882  18.891  0.00  0.00    +0.000 HD
ENDROOT
BRANCH   4  17
ATOM     17  N   UNL     1       0.522  10.402  20.280  0.00  0.00    +0.000 N 
ATOM     18  C   UNL     1       0.553   9.009  20.586  0.00  0.00    +0.000 C 
ATOM     19  O   UNL     1      -0.241   8.524  21.381  0.00  0.00    +0.000 OA
ATOM     20  H   UNL     1       1.096  10.803  19.536  0.00  0.00    +0.000 HD
BRANCH  18  21
ATOM     21  C   UNL     1       1.553   8.157  19.902  0.00  0.00    +0.000 A 
ATOM     22  C   UNL     1       1.994   6.936  20.422  0.00  0.00    +0.000 A 
ATOM     23  C   UNL     1       2.884   6.153  19.678  0.00  0.00    +0.000 A 
ATOM     24  C   UNL     1       3.335   6.588  18.431  0.00  0.00    +0.000 A 
ATOM     25  C   UNL     1       2.901   7.806  17.915  0.00  0.00    +0.000 A 
ATOM     26  C   UNL     1       2.008   8.587  18.645  0.00  0.00    +0.000 A 
ENDBRANCH  18  21
ENDBRANCH   4  17
TORSDOF 2
ENDMDL
MODEL 6
REMARK VINA RESULT:      -7.1      9.786     12.647
REMARK  Name = 
REMARK  3 active torsions:
REMARK  status: ('A' for Active; 'I' for Inactive)
REMARK    1  A    between atoms: C_1  and  C_2
REMARK    2  A    between atoms: C_4  and  N_5
REMARK    3  A    between atoms: C_6  and  C_8
REMARK                            x       y       z     vdW  Elec       q    Type
REMARK                         _______ _______ _______ _____ _____    ______ ____
ROOT
ATOM      1  C   UNL     1      -2.993   9.986  13.508  0.00  0.00    +0.000 C 
ATOM      2  C   UNL     1      -3.191  10.152  14.970  0.00  0.00    +0.000 A 
ATOM      3  C   UNL     1      -2.294   9.749  15.990  0.00  0.00    +0.000 A 
ATOM      4  C   UNL     1      -2.853  10.195  17.163  0.00  0.00    +0.000 A 
ATOM      5  N   UNL     1      -4.022  10.832  16.793  0.00  0.00    +0.000 N 
ATOM      6  C   UNL     1      -4.859  11.541  17.637  0.00  0.00    +0.000 A 
ATOM      7  N   UNL     1      -4.553  11.775  18.899  0.00  0.00    +0.000 NA
ATOM      8  C   UNL     1      -5.584  12.555  19.361  0.00  0.00    +0.000 A 
ATOM      9  C   UNL     1      -5.746  13.147  20.620  0.00  0.00    +0.000 A 
ATOM     10  C   UNL     1      -6.927  13.849  20.881  0.00  0.00    +0.000 A 
ATOM     11  C   UNL     1      -7.916  13.969  19.902  0.00  0.00    +0.000 A 
ATOM     12  C   UNL     1      -7.752  13.420  18.622  0.00  0.00    +0.000 A 
ATOM     13  C   UNL     1      -6.565  12.724  18.384  0.00  0.00    +0.000 A 
ATOM     14  N   UNL     1      -6.061  12.088  17.275  0.00  0.00    +0.000 N 
ATOM     15  N   UNL     1      -4.280  10.762  15.467  0.00  0.00    +0.000 NA
ATOM     16  H   UNL     1      -6.486  12.019  16.359  0.00  0.00    +0.000 HD
ENDROOT
BRANCH   4  17
ATOM     17  N   UNL     1      -2.386  10.084  18.478  0.00  0.00    +0.000 N 
ATOM     18  C   UNL     1      -1.238  10.776  18.963  0.00  0.00    +0.000 C 
ATOM     19  O   UNL     1      -0.639  11.572  18.251  0.00  0.00    +0.000 OA
ATOM     20  H   UNL     1      -2.965   9.506  19.092  0.00  0.00    +0.000 HD
BRANCH  18  21
ATOM     21  C   UNL     1      -0.798  10.529  20.355  0.00  0.00    +0.000 A 
ATOM     22  C   UNL     1      -1.167  11.351  21.426  0.00  0.00    +0.000 A 
ATOM     23  C   UNL     1      -0.773  11.007  22.724  0.00  0.00    +0.000 A 
ATOM     24  C   UNL     1      -0.012   9.858  22.951  0.00  0.00    +0.000 A 
ATOM     25  C   UNL     1       0.360   9.043  21.885  0.00  0.00    +0.000 A 
ATOM     26  C   UNL     1      -0.036   9.374  20.591  0.00  0.00    +0.000 A 
ENDBRANCH  18  21
ENDBRANCH   4  17
TORSDOF 2
ENDMDL
MODEL 7
REMARK VINA RESULT:      -7.0      7.343      9.469
REMARK  Name = 
REMARK  3 active torsions:
REMARK  status: ('A' for Active; 'I' for Inactive)
REMARK    1  A    between atoms: C_1  and  C_2
REMARK    2  A    between atoms: C_4  and  N_5
REMARK    3  A    between atoms: C_6  and  C_8
REMARK                            x       y       z     vdW  Elec       q    Type
REMARK                         _______ _______ _______ _____ _____    ______ ____
ROOT
ATOM      1  C   UNL     1      -1.532  12.872  23.442  0.00  0.00    +0.000 C 
ATOM      2  C   UNL     1      -1.134  12.214  22.172  0.00  0.00    +0.000 A 
ATOM      3  C   UNL     1      -0.010  11.374  21.977  0.00  0.00    +0.000 A 
ATOM      4  C   UNL     1      -0.110  10.929  20.682  0.00  0.00    +0.000 A 
ATOM      5  N   UNL     1      -1.263  11.505  20.183  0.00  0.00    +0.000 N 
ATOM      6  C   UNL     1      -1.827  11.245  18.946  0.00  0.00    +0.000 A 
ATOM      7  N   UNL     1      -1.361  10.309  18.141  0.00  0.00    +0.000 NA
ATOM      8  C   UNL     1      -2.222  10.317  17.073  0.00  0.00    +0.000 A 
ATOM      9  C   UNL     1      -2.240   9.484  15.948  0.00  0.00    +0.000 A 
ATOM     10  C   UNL     1      -3.186   9.732  14.947  0.00  0.00    +0.000 A 
ATOM     11  C   UNL     1      -4.102  10.779  15.076  0.00  0.00    +0.000 A 
ATOM     12  C   UNL     1      -4.128  11.596  16.215  0.00  0.00    +0.000 A 
ATOM     13  C   UNL     1      -3.175  11.330  17.201  0.00  0.00    +0.000 A 
ATOM     14  N   UNL     1      -2.918  11.891  18.428  0.00  0.00    +0.000 N 
ATOM     15  N   UNL     1      -1.869  12.343  21.054  0.00  0.00    +0.000 NA
ATOM     16  H   UNL     1      -3.422  12.646  18.878  0.00  0.00    +0.000 HD
ENDROOT
BRANCH   4  17
ATOM     17  N   UNL     1       0.725  10.063  19.964  0.00  0.00    +0.000 N 
ATOM     18  C   UNL     1       0.928   8.697  20.321  0.00  0.00    +0.000 C 
ATOM     19  O   UNL     1       0.310   8.193  21.250  0.00  0.00    +0.000 OA
ATOM     20  H   UNL     1       1.141  10.467  19.123  0.00  0.00    +0.000 HD
BRANCH  18  21
ATOM     21  C   UNL     1       1.886   7.894  19.527  0.00  0.00    +0.000 A 
ATOM     22  C   UNL     1       2.434   8.340  18.319  0.00  0.00    +0.000 A 
ATOM     23  C   UNL     1       3.390   7.554  17.666  0.00  0.00    +0.000 A 
ATOM     24  C   UNL     1       3.792   6.333  18.210  0.00  0.00    +0.000 A 
ATOM     25  C   UNL     1       3.244   5.886  19.409  0.00  0.00    +0.000 A 
ATOM     26  C   UNL     1       2.297   6.666  20.069  0.00  0.00    +0.000 A 
ENDBRANCH  18  21
ENDBRANCH   4  17
TORSDOF 2
ENDMDL
MODEL 8
REMARK VINA RESULT:      -7.0      1.918      6.137
REMARK  Name = 
REMARK  3 active torsions:
REMARK  status: ('A' for Active; 'I' for Inactive)
REMARK    1  A    between atoms: C_1  and  C_2
REMARK    2  A    between atoms: C_4  and  N_5
REMARK    3  A    between atoms: C_6  and  C_8
REMARK                            x       y       z     vdW  Elec       q    Type
REMARK                         _______ _______ _______ _____ _____    ______ ____
ROOT
ATOM      1  C   UNL     1       8.819   5.985  20.161  0.00  0.00    +0.000 C 
ATOM      2  C   UNL     1       7.755   5.466  19.265  0.00  0.00    +0.000 A 
ATOM      3  C   UNL     1       7.914   5.071  17.914  0.00  0.00    +0.000 A 
ATOM      4  C   UNL     1       6.691   4.575  17.534  0.00  0.00    +0.000 A 
ATOM      5  N   UNL     1       5.886   4.688  18.652  0.00  0.00    +0.000 N 
ATOM      6  C   UNL     1       4.595   4.204  18.771  0.00  0.00    +0.000 A 
ATOM      7  N   UNL     1       4.030   3.465  17.835  0.00  0.00    +0.000 NA
ATOM      8  C   UNL     1       2.805   3.132  18.356  0.00  0.00    +0.000 A 
ATOM      9  C   UNL     1       1.811   2.307  17.815  0.00  0.00    +0.000 A 
ATOM     10  C   UNL     1       0.605   2.170  18.510  0.00  0.00    +0.000 A 
ATOM     11  C   UNL     1       0.403   2.830  19.724  0.00  0.00    +0.000 A 
ATOM     12  C   UNL     1       1.403   3.624  20.304  0.00  0.00    +0.000 A 
ATOM     13  C   UNL     1       2.599   3.746  19.592  0.00  0.00    +0.000 A 
ATOM     14  N   UNL     1       3.777   4.404  19.851  0.00  0.00    +0.000 N 
ATOM     15  N   UNL     1       6.496   5.288  19.699  0.00  0.00    +0.000 NA
ATOM     16  H   UNL     1       4.011   4.947  20.673  0.00  0.00    +0.000 HD
ENDROOT
BRANCH   4  17
ATOM     17  N   UNL     1       6.284   4.035  16.308  0.00  0.00    +0.000 N 
ATOM     18  C   UNL     1       6.673   4.574  15.047  0.00  0.00    +0.000 C 
ATOM     19  O   UNL     1       7.457   5.511  14.981  0.00  0.00    +0.000 OA
ATOM     20  H   UNL     1       5.724   3.182  16.380  0.00  0.00    +0.000 HD
BRANCH  18  21
ATOM     21  C   UNL     1       6.125   3.959  13.816  0.00  0.00    +0.000 A 
ATOM     22  C   UNL     1       4.754   3.893  13.544  0.00  0.00    +0.000 A 
ATOM     23  C   UNL     1       4.320   3.364  12.324  0.00  0.00    +0.000 A 
ATOM     24  C   UNL     1       5.244   2.899  11.386  0.00  0.00    +0.000 A 
ATOM     25  C   UNL     1       6.609   2.959  11.658  0.00  0.00    +0.000 A 
ATOM     26  C   UNL     1       7.049   3.492  12.867  0.00  0.00    +0.000 A 
ENDBRANCH  18  21
ENDBRANCH   4  17
TORSDOF 2
ENDMDL
MODEL 9
REMARK VINA RESULT:      -6.8      9.563     12.484
REMARK  Name = 
REMARK  3 active torsions:
REMARK  status: ('A' for Active; 'I' for Inactive)
REMARK    1  A    between atoms: C_1  and  C_2
REMARK    2  A    between atoms: C_4  and  N_5
REMARK    3  A    between atoms: C_6  and  C_8
REMARK                            x       y       z     vdW  Elec       q    Type
REMARK                         _______ _______ _______ _____ _____    ______ ____
ROOT
ATOM      1  C   UNL     1      -3.339  10.143  13.855  0.00  0.00    +0.000 C 
ATOM      2  C   UNL     1      -3.349  10.285  15.333  0.00  0.00    +0.000 A 
ATOM      3  C   UNL     1      -2.441   9.685  16.240  0.00  0.00    +0.000 A 
ATOM      4  C   UNL     1      -2.782  10.178  17.475  0.00  0.00    +0.000 A 
ATOM      5  N   UNL     1      -3.845  11.032  17.249  0.00  0.00    +0.000 N 
ATOM      6  C   UNL     1      -4.444  11.847  18.194  0.00  0.00    +0.000 A 
ATOM      7  N   UNL     1      -3.970  11.972  19.419  0.00  0.00    +0.000 NA
ATOM      8  C   UNL     1      -4.784  12.906  20.007  0.00  0.00    +0.000 A 
ATOM      9  C   UNL     1      -4.702  13.468  21.287  0.00  0.00    +0.000 A 
ATOM     10  C   UNL     1      -5.699  14.362  21.690  0.00  0.00    +0.000 A 
ATOM     11  C   UNL     1      -6.746  14.698  20.829  0.00  0.00    +0.000 A 
ATOM     12  C   UNL     1      -6.821  14.180  19.528  0.00  0.00    +0.000 A 
ATOM     13  C   UNL     1      -5.815  13.290  19.147  0.00  0.00    +0.000 A 
ATOM     14  N   UNL     1      -5.555  12.618  17.977  0.00  0.00    +0.000 N 
ATOM     15  N   UNL     1      -4.249  11.063  15.958  0.00  0.00    +0.000 NA
ATOM     16  H   UNL     1      -6.078  12.663  17.112  0.00  0.00    +0.000 HD
ENDROOT
BRANCH   4  17
ATOM     17  N   UNL     1      -2.209   9.932  18.729  0.00  0.00    +0.000 N 
ATOM     18  C   UNL     1      -0.914  10.399  19.104  0.00  0.00    +0.000 C 
ATOM     19  O   UNL     1      -0.264  11.113  18.352  0.00  0.00    +0.000 OA
ATOM     20  H   UNL     1      -2.813   9.435  19.387  0.00  0.00    +0.000 HD
BRANCH  18  21
ATOM     21  C   UNL     1      -0.384  10.020  20.434  0.00  0.00    +0.000 A 
ATOM     22  C   UNL     1       0.660   9.104  20.603  0.00  0.00    +0.000 A 
ATOM     23  C   UNL     1       1.155   8.856  21.888  0.00  0.00    +0.000 A 
ATOM     24  C   UNL     1       0.611   9.511  22.994  0.00  0.00    +0.000 A 
ATOM     25  C   UNL     1      -0.431  10.419  22.827  0.00  0.00    +0.000 A 
ATOM     26  C   UNL     1      -0.924  10.677  21.550  0.00  0.00    +0.000 A 
ENDBRANCH  18  21
ENDBRANCH   4  17
TORSDOF 2
ENDMDL
