MODEL 1
REMARK VINA RESULT:      -9.0      0.000      0.000
REMARK  Name = 
REMARK  5 active torsions:
REMARK  status: ('A' for Active; 'I' for Inactive)
REMARK    1  A    between atoms: C_1  and  C_2
REMARK    2  A    between atoms: C_5  and  N_6
REMARK    3  A    between atoms: C_10  and  N_11
REMARK    4  A    between atoms: C_12  and  C_14
REMARK    5  A    between atoms: C_14  and  N_15
REMARK                            x       y       z     vdW  Elec       q    Type
REMARK                         _______ _______ _______ _____ _____    ______ ____
ROOT
ATOM      1  C   UNL     1       3.152   4.331  20.342  0.00  0.00    +0.000 C 
ENDROOT
BRANCH   1   2
ATOM      2  N   UNL     1       3.734   4.227  19.014  0.00  0.00    +0.000 N 
ATOM      3  C   UNL     1       3.094   3.521  17.998  0.00  0.00    +0.000 A 
ATOM      4  N   UNL     1       3.493   3.378  16.765  0.00  0.00    +0.000 NA
ATOM      5  C   UNL     1       4.700   4.043  16.496  0.00  0.00    +0.000 A 
ATOM      6  C   UNL     1       5.383   4.730  17.455  0.00  0.00    +0.000 A 
ATOM      7  O   UNL     1       6.497   5.310  16.946  0.00  0.00    +0.000 OA
ATOM      8  C   UNL     1       6.526   4.953  15.626  0.00  0.00    +0.000 A 
ATOM      9  C   UNL     1       7.517   5.338  14.725  0.00  0.00    +0.000 A 
ATOM     10  C   UNL     1       7.407   4.840  13.424  0.00  0.00    +0.000 A 
ATOM     11  C   UNL     1       6.344   4.008  13.058  0.00  0.00    +0.000 A 
ATOM     12  C   UNL     1       5.343   3.656  13.980  0.00  0.00    +0.000 A 
ATOM     13  C   UNL     1       5.436   4.140  15.297  0.00  0.00    +0.000 A 
ATOM     14  C   UNL     1       4.971   4.831  18.816  0.00  0.00    +0.000 A 
ATOM     15  O   UNL     1       5.613   5.352  19.728  0.00  0.00    +0.000 OA
ENDBRANCH   1   2
BRANCH   1  17
ATOM     16  N   UNL     1       2.580   6.726  20.342  0.00  0.00    +0.000 N 
ATOM     17  C   UNL     1       2.087   5.424  20.358  0.00  0.00    +0.000 C 
ATOM     18  O   UNL     1       0.907   5.104  20.476  0.00  0.00    +0.000 OA
ATOM     19  H   UNL     1       3.572   6.836  20.542  0.00  0.00    +0.000 HD
BRANCH  16  26
ATOM     20  C   UNL     1       2.206   8.223  17.820  0.00  0.00    +0.000 C 
ATOM     21  C   UNL     1       1.613   8.644  19.140  0.00  0.00    +0.000 A 
ATOM     22  C   UNL     1       0.866   9.841  19.160  0.00  0.00    +0.000 A 
ATOM     23  C   UNL     1       0.295  10.317  20.338  0.00  0.00    +0.000 A 
ATOM     24  C   UNL     1       0.439   9.573  21.507  0.00  0.00    +0.000 A 
ATOM     25  C   UNL     1       1.158   8.369  21.505  0.00  0.00    +0.000 A 
ATOM     26  C   UNL     1       1.784   7.908  20.335  0.00  0.00    +0.000 A 
BRANCH  24  27
ATOM     27  N   UNL     1      -0.160  10.062  22.756  0.00  0.00    +0.000 N 
ATOM     28  O   UNL     1      -1.139  10.818  22.666  0.00  0.00    +0.000 OA
ATOM     29  O   UNL     1       0.341   9.692  23.827  0.00  0.00    +0.000 OA
ENDBRANCH  24  27
ENDBRANCH  16  26
ENDBRANCH   1  17
TORSDOF 4
ENDMDL
MODEL 2
REMARK VINA RESULT:      -8.4      0.771      1.005
REMARK  Name = 
REMARK  5 active torsions:
REMARK  status: ('A' for Active; 'I' for Inactive)
REMARK    1  A    between atoms: C_1  and  C_2
REMARK    2  A    between atoms: C_5  and  N_6
REMARK    3  A    between atoms: C_10  and  N_11
REMARK    4  A    between atoms: C_12  and  C_14
REMARK    5  A    between atoms: C_14  and  N_15
REMARK                            x       y       z     vdW  Elec       q    Type
REMARK                         _______ _______ _______ _____ _____    ______ ____
ROOT
ATOM      1  C   UNL     1       4.040   4.904  19.765  0.00  0.00    +0.000 C 
ENDROOT
BRANCH   1   2
ATOM      2  N   UNL     1       4.485   4.665  18.402  0.00  0.00    +0.000 N 
ATOM      3  C   UNL     1       3.759   3.848  17.537  0.00  0.00    +0.000 A 
ATOM      4  N   UNL     1       4.034   3.579  16.292  0.00  0.00    +0.000 NA
ATOM      5  C   UNL     1       5.193   4.223  15.831  0.00  0.00    +0.000 A 
ATOM      6  C   UNL     1       5.956   5.016  16.636  0.00  0.00    +0.000 A 
ATOM      7  O   UNL     1       7.000   5.549  15.957  0.00  0.00    +0.000 OA
ATOM      8  C   UNL     1       6.901   5.054  14.686  0.00  0.00    +0.000 A 
ATOM      9  C   UNL     1       7.786   5.350  13.651  0.00  0.00    +0.000 A 
ATOM     10  C   UNL     1       7.555   4.716  12.428  0.00  0.00    +0.000 A 
ATOM     11  C   UNL     1       6.479   3.839  12.264  0.00  0.00    +0.000 A 
ATOM     12  C   UNL     1       5.584   3.576  13.316  0.00  0.00    +0.000 A 
ATOM     13  C   UNL     1       5.801   4.199  14.559  0.00  0.00    +0.000 A 
ATOM     14  C   UNL     1       5.683   5.257  18.014  0.00  0.00    +0.000 A 
ATOM     15  O   UNL     1       6.403   5.879  18.795  0.00  0.00    +0.000 OA
ENDBRANCH   1   2
BRANCH   1  17
ATOM     16  N   UNL     1       2.970   7.095  20.117  0.00  0.00    +0.000 N 
ATOM     17  C   UNL     1       2.779   5.765  19.755  0.00  0.00    +0.000 C 
ATOM     18  O   UNL     1       1.695   5.230  19.529  0.00  0.00    +0.000 OA
ATOM     19  H   UNL     1       3.860   7.319  20.560  0.00  0.00    +0.000 HD
BRANCH  16  26
ATOM     20  C   UNL     1       2.067   8.386  17.617  0.00  0.00    +0.000 C 
ATOM     21  C   UNL     1       1.525   8.729  18.980  0.00  0.00    +0.000 A 
ATOM     22  C   UNL     1       0.554   9.751  19.050  0.00  0.00    +0.000 A 
ATOM     23  C   UNL     1       0.008  10.147  20.269  0.00  0.00    +0.000 A 
ATOM     24  C   UNL     1       0.408   9.493  21.433  0.00  0.00    +0.000 A 
ATOM     25  C   UNL     1       1.356   8.460  21.383  0.00  0.00    +0.000 A 
ATOM     26  C   UNL     1       1.953   8.090  20.166  0.00  0.00    +0.000 A 
BRANCH  24  27
ATOM     27  N   UNL     1      -0.161   9.899  22.725  0.00  0.00    +0.000 N 
ATOM     28  O   UNL     1       0.430   9.536  23.753  0.00  0.00    +0.000 OA
ATOM     29  O   UNL     1      -1.193  10.584  22.717  0.00  0.00    +0.000 OA
ENDBRANCH  24  27
ENDBRANCH  16  26
ENDBRANCH   1  17
TORSDOF 4
ENDMDL
MODEL 3
REMARK VINA RESULT:      -8.3      1.151      1.684
REMARK  Name = 
REMARK  5 active torsions:
REMARK  status: ('A' for Active; 'I' for Inactive)
REMARK    1  A    between atoms: C_1  and  C_2
REMARK    2  A    between atoms: C_5  and  N_6
REMARK    3  A    between atoms: C_10  and  N_11
REMARK    4  A    between atoms: C_12  and  C_14
REMARK    5  A    between atoms: C_14  and  N_15
REMARK                            x       y       z     vdW  Elec       q    Type
REMARK                         _______ _______ _______ _____ _____    ______ ____
ROOT
ATOM      1  C   UNL     1       3.111   4.328  20.348  0.00  0.00    +0.000 C 
ENDROOT
BRANCH   1   2
ATOM      2  N   UNL     1       3.939   4.505  19.167  0.00  0.00    +0.000 N 
ATOM      3  C   UNL     1       5.159   5.175  19.233  0.00  0.00    +0.000 A 
ATOM      4  N   UNL     1       6.002   5.373  18.259  0.00  0.00    +0.000 NA
ATOM      5  C   UNL     1       5.580   4.815  17.042  0.00  0.00    +0.000 A 
ATOM      6  C   UNL     1       4.387   4.168  16.911  0.00  0.00    +0.000 A 
ATOM      7  O   UNL     1       4.220   3.692  15.653  0.00  0.00    +0.000 OA
ATOM      8  C   UNL     1       5.338   4.075  14.965  0.00  0.00    +0.000 A 
ATOM      9  C   UNL     1       5.575   3.790  13.622  0.00  0.00    +0.000 A 
ATOM     10  C   UNL     1       6.753   4.302  13.072  0.00  0.00    +0.000 A 
ATOM     11  C   UNL     1       7.644   5.051  13.847  0.00  0.00    +0.000 A 
ATOM     12  C   UNL     1       7.395   5.302  15.207  0.00  0.00    +0.000 A 
ATOM     13  C   UNL     1       6.211   4.802  15.781  0.00  0.00    +0.000 A 
ATOM     14  C   UNL     1       3.442   4.008  17.966  0.00  0.00    +0.000 A 
ATOM     15  O   UNL     1       2.315   3.524  17.859  0.00  0.00    +0.000 OA
ENDBRANCH   1   2
BRANCH   1  17
ATOM     16  N   UNL     1       2.541   6.725  20.345  0.00  0.00    +0.000 N 
ATOM     17  C   UNL     1       2.049   5.424  20.406  0.00  0.00    +0.000 C 
ATOM     18  O   UNL     1       0.876   5.107  20.593  0.00  0.00    +0.000 OA
ATOM     19  H   UNL     1       3.543   6.836  20.490  0.00  0.00    +0.000 HD
BRANCH  16  26
ATOM     20  C   UNL     1       2.168   8.276  17.857  0.00  0.00    +0.000 C 
ATOM     21  C   UNL     1       1.576   8.669  19.186  0.00  0.00    +0.000 A 
ATOM     22  C   UNL     1       0.832   9.867  19.233  0.00  0.00    +0.000 A 
ATOM     23  C   UNL     1       0.262  10.318  20.421  0.00  0.00    +0.000 A 
ATOM     24  C   UNL     1       0.406   9.549  21.574  0.00  0.00    +0.000 A 
ATOM     25  C   UNL     1       1.124   8.344  21.545  0.00  0.00    +0.000 A 
ATOM     26  C   UNL     1       1.748   7.907  20.365  0.00  0.00    +0.000 A 
BRANCH  24  27
ATOM     27  N   UNL     1      -0.191  10.012  22.833  0.00  0.00    +0.000 N 
ATOM     28  O   UNL     1      -1.231  10.684  22.763  0.00  0.00    +0.000 OA
ATOM     29  O   UNL     1       0.372   9.704  23.893  0.00  0.00    +0.000 OA
ENDBRANCH  24  27
ENDBRANCH  16  26
ENDBRANCH   1  17
TORSDOF 4
ENDMDL
MODEL 4
REMARK VINA RESULT:      -8.0      4.239      6.208
REMARK  Name = 
REMARK  5 active torsions:
REMARK  status: ('A' for Active; 'I' for Inactive)
REMARK    1  A    between atoms: C_1  and  C_2
REMARK    2  A    between atoms: C_5  and  N_6
REMARK    3  A    between atoms: C_10  and  N_11
REMARK    4  A    between atoms: C_12  and  C_14
REMARK    5  A    between atoms: C_14  and  N_15
REMARK                            x       y       z     vdW  Elec       q    Type
REMARK                         _______ _______ _______ _____ _____    ______ ____
ROOT
ATOM      1  C   UNL     1       0.920  10.366  19.984  0.00  0.00    +0.000 C 
ENDROOT
BRANCH   1   2
ATOM      2  N   UNL     1       1.504   9.147  19.451  0.00  0.00    +0.000 N 
ATOM      3  C   UNL     1       1.977   9.085  18.141  0.00  0.00    +0.000 A 
ATOM      4  N   UNL     1       2.545   8.068  17.557  0.00  0.00    +0.000 NA
ATOM      5  C   UNL     1       2.674   6.951  18.396  0.00  0.00    +0.000 A 
ATOM      6  C   UNL     1       2.211   6.945  19.678  0.00  0.00    +0.000 A 
ATOM      7  O   UNL     1       2.481   5.768  20.294  0.00  0.00    +0.000 OA
ATOM      8  C   UNL     1       3.116   5.001  19.357  0.00  0.00    +0.000 A 
ATOM      9  C   UNL     1       3.570   3.702  19.575  0.00  0.00    +0.000 A 
ATOM     10  C   UNL     1       4.156   3.052  18.486  0.00  0.00    +0.000 A 
ATOM     11  C   UNL     1       4.283   3.692  17.249  0.00  0.00    +0.000 A 
ATOM     12  C   UNL     1       3.841   5.013  17.062  0.00  0.00    +0.000 A 
ATOM     13  C   UNL     1       3.241   5.685  18.143  0.00  0.00    +0.000 A 
ATOM     14  C   UNL     1       1.536   8.040  20.292  0.00  0.00    +0.000 A 
ATOM     15  O   UNL     1       1.014   8.034  21.406  0.00  0.00    +0.000 OA
ENDBRANCH   1   2
BRANCH   1  17
ATOM     16  N   UNL     1      -1.208  10.261  18.747  0.00  0.00    +0.000 N 
ATOM     17  C   UNL     1      -0.032  10.977  18.958  0.00  0.00    +0.000 C 
ATOM     18  O   UNL     1       0.325  11.973  18.333  0.00  0.00    +0.000 OA
ATOM     19  H   UNL     1      -1.230   9.311  19.112  0.00  0.00    +0.000 HD
BRANCH  16  26
ATOM     20  C   UNL     1      -3.346  12.076  19.682  0.00  0.00    +0.000 C 
ATOM     21  C   UNL     1      -3.291  11.490  18.294  0.00  0.00    +0.000 A 
ATOM     22  C   UNL     1      -4.348  11.812  17.416  0.00  0.00    +0.000 A 
ATOM     23  C   UNL     1      -4.390  11.303  16.119  0.00  0.00    +0.000 A 
ATOM     24  C   UNL     1      -3.348  10.490  15.678  0.00  0.00    +0.000 A 
ATOM     25  C   UNL     1      -2.277  10.176  16.528  0.00  0.00    +0.000 A 
ATOM     26  C   UNL     1      -2.252  10.638  17.854  0.00  0.00    +0.000 A 
BRANCH  24  27
ATOM     27  N   UNL     1      -3.379   9.949  14.314  0.00  0.00    +0.000 N 
ATOM     28  O   UNL     1      -4.489   9.710  13.815  0.00  0.00    +0.000 OA
ATOM     29  O   UNL     1      -2.299   9.765  13.735  0.00  0.00    +0.000 OA
ENDBRANCH  24  27
ENDBRANCH  16  26
ENDBRANCH   1  17
TORSDOF 4
ENDMDL
MODEL 5
REMARK VINA RESULT:      -7.8      5.540      6.948
REMARK  Name = 
REMARK  5 active torsions:
REMARK  status: ('A' for Active; 'I' for Inactive)
REMARK    1  A    between atoms: C_1  and  C_2
REMARK    2  A    between atoms: C_5  and  N_6
REMARK    3  A    between atoms: C_10  and  N_11
REMARK    4  A    between atoms: C_12  and  C_14
REMARK    5  A    between atoms: C_14  and  N_15
REMARK                            x       y       z     vdW  Elec       q    Type
REMARK                         _______ _______ _______ _____ _____    ______ ____
ROOT
ATOM      1  C   UNL     1       8.270   7.524  17.565  0.00  0.00    +0.000 C 
ENDROOT
BRANCH   1   2
ATOM      2  N   UNL     1       6.995   6.864  17.789  0.00  0.00    +0.000 N 
ATOM      3  C   UNL     1       5.846   7.259  17.105  0.00  0.00    +0.000 A 
ATOM      4  N   UNL     1       4.657   6.733  17.194  0.00  0.00    +0.000 NA
ATOM      5  C   UNL     1       4.599   5.648  18.082  0.00  0.00    +0.000 A 
ATOM      6  C   UNL     1       5.683   5.230  18.795  0.00  0.00    +0.000 A 
ATOM      7  O   UNL     1       5.386   4.149  19.556  0.00  0.00    +0.000 OA
ATOM      8  C   UNL     1       4.061   3.895  19.330  0.00  0.00    +0.000 A 
ATOM      9  C   UNL     1       3.343   2.858  19.923  0.00  0.00    +0.000 A 
ATOM     10  C   UNL     1       1.984   2.778  19.608  0.00  0.00    +0.000 A 
ATOM     11  C   UNL     1       1.392   3.693  18.732  0.00  0.00    +0.000 A 
ATOM     12  C   UNL     1       2.145   4.714  18.126  0.00  0.00    +0.000 A 
ATOM     13  C   UNL     1       3.513   4.818  18.433  0.00  0.00    +0.000 A 
ATOM     14  C   UNL     1       6.966   5.848  18.739  0.00  0.00    +0.000 A 
ATOM     15  O   UNL     1       7.935   5.566  19.443  0.00  0.00    +0.000 OA
ENDBRANCH   1   2
BRANCH   1  17
ATOM     16  N   UNL     1       9.183   9.229  19.091  0.00  0.00    +0.000 N 
ATOM     17  C   UNL     1       8.223   8.944  18.123  0.00  0.00    +0.000 C 
ATOM     18  O   UNL     1       7.315   9.694  17.769  0.00  0.00    +0.000 OA
ATOM     19  H   UNL     1       9.670   8.429  19.493  0.00  0.00    +0.000 HD
BRANCH  16  26
ATOM     20  C   UNL     1      10.617  11.415  17.713  0.00  0.00    +0.000 C 
ATOM     21  C   UNL     1      10.048  11.532  19.103  0.00  0.00    +0.000 A 
ATOM     22  C   UNL     1      10.251  12.752  19.783  0.00  0.00    +0.000 A 
ATOM     23  C   UNL     1       9.775  12.946  21.079  0.00  0.00    +0.000 A 
ATOM     24  C   UNL     1       9.057  11.922  21.694  0.00  0.00    +0.000 A 
ATOM     25  C   UNL     1       8.826  10.709  21.028  0.00  0.00    +0.000 A 
ATOM     26  C   UNL     1       9.348  10.484  19.744  0.00  0.00    +0.000 A 
BRANCH  24  27
ATOM     27  N   UNL     1       8.548  12.113  23.059  0.00  0.00    +0.000 N 
ATOM     28  O   UNL     1       8.668  13.239  23.564  0.00  0.00    +0.000 OA
ATOM     29  O   UNL     1       8.026  11.144  23.627  0.00  0.00    +0.000 OA
ENDBRANCH  24  27
ENDBRANCH  16  26
ENDBRANCH   1  17
TORSDOF 4
ENDMDL
MODEL 6
REMARK VINA RESULT:      -7.7      4.006      6.697
REMARK  Name = 
REMARK  5 active torsions:
REMARK  status: ('A' for Active; 'I' for Inactive)
REMARK    1  A    between atoms: C_1  and  C_2
REMARK    2  A    between atoms: C_5  and  N_6
REMARK    3  A    between atoms: C_10  and  N_11
REMARK    4  A    between atoms: C_12  and  C_14
REMARK    5  A    between atoms: C_14  and  N_15
REMARK                            x       y       z     vdW  Elec       q    Type
REMARK                         _______ _______ _______ _____ _____    ______ ____
ROOT
ATOM      1  C   UNL     1       0.737  11.990  19.679  0.00  0.00    +0.000 C 
ENDROOT
BRANCH   1   2
ATOM      2  N   UNL     1       1.189  10.648  19.354  0.00  0.00    +0.000 N 
ATOM      3  C   UNL     1       1.748  10.354  18.112  0.00  0.00    +0.000 A 
ATOM      4  N   UNL     1       2.215   9.205  17.710  0.00  0.00    +0.000 NA
ATOM      5  C   UNL     1       2.125   8.201  18.687  0.00  0.00    +0.000 A 
ATOM      6  C   UNL     1       1.567   8.423  19.911  0.00  0.00    +0.000 A 
ATOM      7  O   UNL     1       1.625   7.314  20.687  0.00  0.00    +0.000 OA
ATOM      8  C   UNL     1       2.219   6.355  19.913  0.00  0.00    +0.000 A 
ATOM      9  C   UNL     1       2.473   5.049  20.328  0.00  0.00    +0.000 A 
ATOM     10  C   UNL     1       3.047   4.193  19.385  0.00  0.00    +0.000 A 
ATOM     11  C   UNL     1       3.355   4.643  18.098  0.00  0.00    +0.000 A 
ATOM     12  C   UNL     1       3.114   5.973  17.712  0.00  0.00    +0.000 A 
ATOM     13  C   UNL     1       2.530   6.852  18.642  0.00  0.00    +0.000 A 
ATOM     14  C   UNL     1       1.004   9.666  20.322  0.00  0.00    +0.000 A 
ATOM     15  O   UNL     1       0.401   9.873  21.375  0.00  0.00    +0.000 OA
ENDBRANCH   1   2
BRANCH   1  17
ATOM     16  N   UNL     1      -1.591  11.377  19.160  0.00  0.00    +0.000 N 
ATOM     17  C   UNL     1      -0.565  12.292  18.941  0.00  0.00    +0.000 C 
ATOM     18  O   UNL     1      -0.599  13.235  18.153  0.00  0.00    +0.000 OA
ATOM     19  H   UNL     1      -1.326  10.496  19.596  0.00  0.00    +0.000 HD
BRANCH  16  26
ATOM     20  C   UNL     1      -2.173   9.985  16.618  0.00  0.00    +0.000 C 
ATOM     21  C   UNL     1      -3.184  10.809  17.373  0.00  0.00    +0.000 A 
ATOM     22  C   UNL     1      -4.468  10.939  16.800  0.00  0.00    +0.000 A 
ATOM     23  C   UNL     1      -5.461  11.696  17.417  0.00  0.00    +0.000 A 
ATOM     24  C   UNL     1      -5.185  12.304  18.640  0.00  0.00    +0.000 A 
ATOM     25  C   UNL     1      -3.923  12.170  19.238  0.00  0.00    +0.000 A 
ATOM     26  C   UNL     1      -2.898  11.455  18.598  0.00  0.00    +0.000 A 
BRANCH  24  27
ATOM     27  N   UNL     1      -6.225  13.103  19.303  0.00  0.00    +0.000 N 
ATOM     28  O   UNL     1      -5.930  13.655  20.373  0.00  0.00    +0.000 OA
ATOM     29  O   UNL     1      -7.334  13.184  18.756  0.00  0.00    +0.000 OA
ENDBRANCH  24  27
ENDBRANCH  16  26
ENDBRANCH   1  17
TORSDOF 4
ENDMDL
MODEL 7
REMARK VINA RESULT:      -7.6      3.653      6.023
REMARK  Name = 
REMARK  5 active torsions:
REMARK  status: ('A' for Active; 'I' for Inactive)
REMARK    1  A    between atoms: C_1  and  C_2
REMARK    2  A    between atoms: C_5  and  N_6
REMARK    3  A    between atoms: C_10  and  N_11
REMARK    4  A    between atoms: C_12  and  C_14
REMARK    5  A    between atoms: C_14  and  N_15
REMARK                            x       y       z     vdW  Elec       q    Type
REMARK                         _______ _______ _______ _____ _____    ______ ____
ROOT
ATOM      1  C   UNL     1       1.430  10.433  18.493  0.00  0.00    +0.000 C 
ENDROOT
BRANCH   1   2
ATOM      2  N   UNL     1       1.652   9.091  19.006  0.00  0.00    +0.000 N 
ATOM      3  C   UNL     1       1.281   8.742  20.303  0.00  0.00    +0.000 A 
ATOM      4  N   UNL     1       1.398   7.573  20.868  0.00  0.00    +0.000 NA
ATOM      5  C   UNL     1       1.955   6.604  20.020  0.00  0.00    +0.000 A 
ATOM      6  C   UNL     1       2.358   6.891  18.750  0.00  0.00    +0.000 A 
ATOM      7  O   UNL     1       2.831   5.787  18.121  0.00  0.00    +0.000 OA
ATOM      8  C   UNL     1       2.743   4.777  19.039  0.00  0.00    +0.000 A 
ATOM      9  C   UNL     1       3.131   3.459  18.803  0.00  0.00    +0.000 A 
ATOM     10  C   UNL     1       3.011   2.571  19.874  0.00  0.00    +0.000 A 
ATOM     11  C   UNL     1       2.515   2.995  21.111  0.00  0.00    +0.000 A 
ATOM     12  C   UNL     1       2.106   4.324  21.315  0.00  0.00    +0.000 A 
ATOM     13  C   UNL     1       2.223   5.239  20.253  0.00  0.00    +0.000 A 
ATOM     14  C   UNL     1       2.283   8.185  18.158  0.00  0.00    +0.000 A 
ATOM     15  O   UNL     1       2.731   8.504  17.057  0.00  0.00    +0.000 OA
ENDBRANCH   1   2
BRANCH   1  17
ATOM     16  N   UNL     1      -0.916  10.713  17.797  0.00  0.00    +0.000 N 
ATOM     17  C   UNL     1       0.010  10.885  18.823  0.00  0.00    +0.000 C 
ATOM     18  O   UNL     1      -0.203  11.442  19.898  0.00  0.00    +0.000 OA
ATOM     19  H   UNL     1      -0.535  10.518  16.873  0.00  0.00    +0.000 HD
BRANCH  16  26
ATOM     20  C   UNL     1      -2.684  10.139  15.499  0.00  0.00    +0.000 C 
ATOM     21  C   UNL     1      -3.152  10.792  16.774  0.00  0.00    +0.000 A 
ATOM     22  C   UNL     1      -4.509  11.175  16.843  0.00  0.00    +0.000 A 
ATOM     23  C   UNL     1      -5.027  11.800  17.974  0.00  0.00    +0.000 A 
ATOM     24  C   UNL     1      -4.191  12.018  19.068  0.00  0.00    +0.000 A 
ATOM     25  C   UNL     1      -2.845  11.626  19.029  0.00  0.00    +0.000 A 
ATOM     26  C   UNL     1      -2.299  11.044  17.873  0.00  0.00    +0.000 A 
BRANCH  24  27
ATOM     27  N   UNL     1      -4.725  12.675  20.268  0.00  0.00    +0.000 N 
ATOM     28  O   UNL     1      -4.388  13.849  20.479  0.00  0.00    +0.000 OA
ATOM     29  O   UNL     1      -5.484  12.023  21.000  0.00  0.00    +0.000 OA
ENDBRANCH  24  27
ENDBRANCH  16  26
ENDBRANCH   1  17
TORSDOF 4
ENDMDL
MODEL 8
REMARK VINA RESULT:      -7.6      3.480      9.899
REMARK  Name = 
REMARK  5 active torsions:
REMARK  status: ('A' for Active; 'I' for Inactive)
REMARK    1  A    between atoms: C_1  and  C_2
REMARK    2  A    between atoms: C_5  and  N_6
REMARK    3  A    between atoms: C_10  and  N_11
REMARK    4  A    between atoms: C_12  and  C_14
REMARK    5  A    between atoms: C_14  and  N_15
REMARK                            x       y       z     vdW  Elec       q    Type
REMARK                         _______ _______ _______ _____ _____    ______ ____
ROOT
ATOM      1  C   UNL     1       1.463   9.477  22.025  0.00  0.00    +0.000 C 
ENDROOT
BRANCH   1   2
ATOM      2  N   UNL     1       0.368  10.424  21.893  0.00  0.00    +0.000 N 
ATOM      3  C   UNL     1       0.262  11.256  20.780  0.00  0.00    +0.000 A 
ATOM      4  N   UNL     1      -0.680  12.121  20.531  0.00  0.00    +0.000 NA
ATOM      5  C   UNL     1      -1.671  12.160  21.525  0.00  0.00    +0.000 A 
ATOM      6  C   UNL     1      -1.609  11.387  22.646  0.00  0.00    +0.000 A 
ATOM      7  O   UNL     1      -2.693  11.579  23.436  0.00  0.00    +0.000 OA
ATOM      8  C   UNL     1      -3.449  12.524  22.799  0.00  0.00    +0.000 A 
ATOM      9  C   UNL     1      -4.661  13.020  23.276  0.00  0.00    +0.000 A 
ATOM     10  C   UNL     1      -5.273  14.017  22.513  0.00  0.00    +0.000 A 
ATOM     11  C   UNL     1      -4.691  14.476  21.328  0.00  0.00    +0.000 A 
ATOM     12  C   UNL     1      -3.481  13.941  20.854  0.00  0.00    +0.000 A 
ATOM     13  C   UNL     1      -2.842  12.940  21.609  0.00  0.00    +0.000 A 
ATOM     14  C   UNL     1      -0.545  10.487  22.941  0.00  0.00    +0.000 A 
ATOM     15  O   UNL     1      -0.403   9.854  23.987  0.00  0.00    +0.000 OA
ENDBRANCH   1   2
BRANCH   1  17
ATOM     16  N   UNL     1       2.254   7.600  20.640  0.00  0.00    +0.000 N 
ATOM     17  C   UNL     1       1.151   8.211  21.232  0.00  0.00    +0.000 C 
ATOM     18  O   UNL     1      -0.022   7.872  21.087  0.00  0.00    +0.000 OA
ATOM     19  H   UNL     1       3.108   8.153  20.599  0.00  0.00    +0.000 HD
BRANCH  16  26
ATOM     20  C   UNL     1       2.816   7.715  17.741  0.00  0.00    +0.000 C 
ATOM     21  C   UNL     1       2.465   6.448  18.476  0.00  0.00    +0.000 A 
ATOM     22  C   UNL     1       2.372   5.263  17.714  0.00  0.00    +0.000 A 
ATOM     23  C   UNL     1       2.037   4.047  18.306  0.00  0.00    +0.000 A 
ATOM     24  C   UNL     1       1.824   4.002  19.683  0.00  0.00    +0.000 A 
ATOM     25  C   UNL     1       1.933   5.163  20.462  0.00  0.00    +0.000 A 
ATOM     26  C   UNL     1       2.217   6.404  19.868  0.00  0.00    +0.000 A 
BRANCH  24  27
ATOM     27  N   UNL     1       1.472   2.726  20.319  0.00  0.00    +0.000 N 
ATOM     28  O   UNL     1       1.155   2.751  21.518  0.00  0.00    +0.000 OA
ATOM     29  O   UNL     1       1.506   1.700  19.626  0.00  0.00    +0.000 OA
ENDBRANCH  24  27
ENDBRANCH  16  26
ENDBRANCH   1  17
TORSDOF 4
ENDMDL
MODEL 9
REMARK VINA RESULT:      -7.5      5.395      6.972
REMARK  Name = 
REMARK  5 active torsions:
REMARK  status: ('A' for Active; 'I' for Inactive)
REMARK    1  A    between atoms: C_1  and  C_2
REMARK    2  A    between atoms: C_5  and  N_6
REMARK    3  A    between atoms: C_10  and  N_11
REMARK    4  A    between atoms: C_12  and  C_14
REMARK    5  A    between atoms: C_14  and  N_15
REMARK                            x       y       z     vdW  Elec       q    Type
REMARK                         _______ _______ _______ _____ _____    ______ ____
ROOT
ATOM      1  C   UNL     1       8.208   7.476  17.406  0.00  0.00    +0.000 C 
ENDROOT
BRANCH   1   2
ATOM      2  N   UNL     1       7.133   6.640  17.915  0.00  0.00    +0.000 N 
ATOM      3  C   UNL     1       7.257   5.960  19.126  0.00  0.00    +0.000 A 
ATOM      4  N   UNL     1       6.362   5.208  19.702  0.00  0.00    +0.000 NA
ATOM      5  C   UNL     1       5.162   5.126  18.978  0.00  0.00    +0.000 A 
ATOM      6  C   UNL     1       4.990   5.750  17.779  0.00  0.00    +0.000 A 
ATOM      7  O   UNL     1       3.741   5.549  17.294  0.00  0.00    +0.000 OA
ATOM      8  C   UNL     1       3.115   4.750  18.211  0.00  0.00    +0.000 A 
ATOM      9  C   UNL     1       1.803   4.296  18.099  0.00  0.00    +0.000 A 
ATOM     10  C   UNL     1       1.345   3.450  19.112  0.00  0.00    +0.000 A 
ATOM     11  C   UNL     1       2.171   3.095  20.183  0.00  0.00    +0.000 A 
ATOM     12  C   UNL     1       3.483   3.587  20.286  0.00  0.00    +0.000 A 
ATOM     13  C   UNL     1       3.969   4.436  19.275  0.00  0.00    +0.000 A 
ATOM     14  C   UNL     1       5.994   6.522  17.125  0.00  0.00    +0.000 A 
ATOM     15  O   UNL     1       5.911   7.010  15.998  0.00  0.00    +0.000 OA
ENDBRANCH   1   2
BRANCH   1  17
ATOM     16  N   UNL     1       9.169   9.139  18.948  0.00  0.00    +0.000 N 
ATOM     17  C   UNL     1       8.141   8.857  18.052  0.00  0.00    +0.000 C 
ATOM     18  O   UNL     1       7.169   9.575  17.825  0.00  0.00    +0.000 OA
ATOM     19  H   UNL     1       9.729   8.346  19.256  0.00  0.00    +0.000 HD
BRANCH  16  26
ATOM     20  C   UNL     1      11.007  11.205  17.906  0.00  0.00    +0.000 C 
ATOM     21  C   UNL     1      10.220  11.351  19.182  0.00  0.00    +0.000 A 
ATOM     22  C   UNL     1      10.409  12.536  19.926  0.00  0.00    +0.000 A 
ATOM     23  C   UNL     1       9.737  12.751  21.126  0.00  0.00    +0.000 A 
ATOM     24  C   UNL     1       8.835  11.788  21.578  0.00  0.00    +0.000 A 
ATOM     25  C   UNL     1       8.616  10.614  20.843  0.00  0.00    +0.000 A 
ATOM     26  C   UNL     1       9.329  10.362  19.659  0.00  0.00    +0.000 A 
BRANCH  24  27
ATOM     27  N   UNL     1       8.118  12.003  22.841  0.00  0.00    +0.000 N 
ATOM     28  O   UNL     1       7.459  13.047  22.957  0.00  0.00    +0.000 OA
ATOM     29  O   UNL     1       8.207  11.131  23.717  0.00  0.00    +0.000 OA
ENDBRANCH  24  27
ENDBRANCH  16  26
ENDBRANCH   1  17
TORSDOF 4
ENDMDL
