MODEL 1
REMARK VINA RESULT:      -9.0      0.000      0.000
REMARK  Name = 
REMARK  5 active torsions:
REMARK  status: ('A' for Active; 'I' for Inactive)
REMARK    1  A    between atoms: C_1  and  N_2
REMARK    2  A    between atoms: C_6  and  C_7
REMARK    3  A    between atoms: C_7  and  C_8
REMARK    4  A    between atoms: C_8  and  C_9
REMARK    5  A    between atoms: C_24  and  C_25
REMARK                            x       y       z     vdW  Elec       q    Type
REMARK                         _______ _______ _______ _____ _____    ______ ____
ROOT
ATOM      1  C   UNL     1       4.725   5.445  17.035  0.00  0.00    +0.000 A 
ATOM      2  C   UNL     1       4.267   6.768  17.161  0.00  0.00    +0.000 A 
ATOM      3  C   UNL     1       3.383   7.155  18.160  0.00  0.00    +0.000 A 
ATOM      4  C   UNL     1       2.943   6.233  19.093  0.00  0.00    +0.000 A 
ATOM      5  C   UNL     1       3.403   4.925  19.004  0.00  0.00    +0.000 A 
ATOM      6  C   UNL     1       4.276   4.521  17.999  0.00  0.00    +0.000 A 
ATOM      7  C   UNL     1       2.872   4.118  20.138  0.00  0.00    +0.000 C 
ATOM      8  C   UNL     1       1.859   5.090  20.777  0.00  0.00    +0.000 C 
ATOM      9  N   UNL     1       2.082   6.416  20.197  0.00  0.00    +0.000 N 
ATOM     10  C   UNL     1       1.424   7.556  20.602  0.00  0.00    +0.000 C 
ATOM     11  N   UNL     1       0.704   7.705  21.688  0.00  0.00    +0.000 NA
ATOM     12  C   UNL     1       0.250   9.042  21.696  0.00  0.00    +0.000 A 
ATOM     13  C   UNL     1      -0.489   9.690  22.664  0.00  0.00    +0.000 A 
ATOM     14  C   UNL     1      -0.812  11.041  22.463  0.00  0.00    +0.000 A 
ATOM     15  C   UNL     1      -0.400  11.727  21.301  0.00  0.00    +0.000 A 
ATOM     16  C   UNL     1       0.352  11.076  20.323  0.00  0.00    +0.000 A 
ATOM     17  C   UNL     1       0.658   9.746  20.570  0.00  0.00    +0.000 A 
ATOM     18  C   UNL     1       1.494   8.835  19.771  0.00  0.00    +0.000 C 
ENDROOT
BRANCH   1  19
ATOM     19  C   UNL     1       5.708   5.055  15.842  0.00  0.00    +0.000 C 
ATOM     20  C   UNL     1       5.682   3.581  15.358  0.00  0.00    +0.000 C 
ATOM     21  O   UNL     1       5.267   3.957  14.026  0.00  0.00    +0.000 OA
ATOM     22  C   UNL     1       5.163   5.339  14.408  0.00  0.00    +0.000 C 
BRANCH  19  23
ATOM     23  C   UNL     1       7.094   5.698  16.061  0.00  0.00    +0.000 C 
BRANCH  23  29
ATOM     24  C   UNL     1       7.787   8.245  17.849  0.00  0.00    +0.000 C 
ATOM     25  N   UNL     1       7.826   6.859  18.232  0.00  0.00    +0.000 N 
ATOM     26  C   UNL     1       8.214   6.406  19.458  0.00  0.00    +0.000 A 
ATOM     27  N   UNL     1       8.123   5.100  19.495  0.00  0.00    +0.000 NA
ATOM     28  N   UNL     1       7.686   4.682  18.263  0.00  0.00    +0.000 NA
ATOM     29  C   UNL     1       7.515   5.741  17.495  0.00  0.00    +0.000 A 
ENDBRANCH  23  29
ENDBRANCH  19  23
ENDBRANCH   1  19
BRANCH  16  30
ATOM     30  C   UNL     1       0.834  11.747  19.064  0.00  0.00    +0.000 C 
ATOM     31  F   UNL     1       2.188  11.768  18.930  0.00  0.00    +0.000 F 
ATOM     32  F   UNL     1       0.357  11.145  17.937  0.00  0.00    +0.000 F 
ATOM     33  F   UNL     1       0.430  13.047  18.979  0.00  0.00    +0.000 F 
ENDBRANCH  16  30
TORSDOF 4
ENDMDL
MODEL 2
REMARK VINA RESULT:      -8.9      0.664      1.210
REMARK  Name = 
REMARK  5 active torsions:
REMARK  status: ('A' for Active; 'I' for Inactive)
REMARK    1  A    between atoms: C_1  and  N_2
REMARK    2  A    between atoms: C_6  and  C_7
REMARK    3  A    between atoms: C_7  and  C_8
REMARK    4  A    between atoms: C_8  and  C_9
REMARK    5  A    between atoms: C_24  and  C_25
REMARK                            x       y       z     vdW  Elec       q    Type
REMARK                         _______ _______ _______ _____ _____    ______ ____
ROOT
ATOM      1  C   UNL     1       4.692   5.154  17.337  0.00  0.00    +0.000 A 
ATOM      2  C   UNL     1       4.321   6.507  17.415  0.00  0.00    +0.000 A 
ATOM      3  C   UNL     1       3.410   6.972  18.354  0.00  0.00    +0.000 A 
ATOM      4  C   UNL     1       2.854   6.102  19.274  0.00  0.00    +0.000 A 
ATOM      5  C   UNL     1       3.225   4.764  19.231  0.00  0.00    +0.000 A 
ATOM      6  C   UNL     1       4.124   4.281  18.286  0.00  0.00    +0.000 A 
ATOM      7  C   UNL     1       2.575   4.016  20.345  0.00  0.00    +0.000 C 
ATOM      8  C   UNL     1       1.597   5.068  20.908  0.00  0.00    +0.000 C 
ATOM      9  N   UNL     1       1.945   6.364  20.323  0.00  0.00    +0.000 N 
ATOM     10  C   UNL     1       1.347   7.554  20.672  0.00  0.00    +0.000 C 
ATOM     11  N   UNL     1       0.578   7.773  21.711  0.00  0.00    +0.000 NA
ATOM     12  C   UNL     1       0.218   9.138  21.673  0.00  0.00    +0.000 A 
ATOM     13  C   UNL     1      -0.528   9.854  22.585  0.00  0.00    +0.000 A 
ATOM     14  C   UNL     1      -0.743  11.220  22.346  0.00  0.00    +0.000 A 
ATOM     15  C   UNL     1      -0.218  11.853  21.200  0.00  0.00    +0.000 A 
ATOM     16  C   UNL     1       0.542  11.134  20.277  0.00  0.00    +0.000 A 
ATOM     17  C   UNL     1       0.739   9.791  20.562  0.00  0.00    +0.000 A 
ATOM     18  C   UNL     1       1.553   8.810  19.827  0.00  0.00    +0.000 C 
ENDROOT
BRANCH   1  19
ATOM     19  C   UNL     1       5.712   4.674  16.209  0.00  0.00    +0.000 C 
ATOM     20  C   UNL     1       5.304   3.437  15.365  0.00  0.00    +0.000 C 
ATOM     21  O   UNL     1       5.312   4.192  14.134  0.00  0.00    +0.000 OA
ATOM     22  C   UNL     1       5.590   5.413  14.840  0.00  0.00    +0.000 C 
BRANCH  19  23
ATOM     23  C   UNL     1       7.158   4.710  16.747  0.00  0.00    +0.000 C 
BRANCH  23  29
ATOM     24  C   UNL     1       7.880   5.519  19.745  0.00  0.00    +0.000 C 
ATOM     25  N   UNL     1       7.852   6.367  18.584  0.00  0.00    +0.000 N 
ATOM     26  C   UNL     1       8.107   7.706  18.597  0.00  0.00    +0.000 A 
ATOM     27  N   UNL     1       8.018   8.184  17.381  0.00  0.00    +0.000 NA
ATOM     28  N   UNL     1       7.676   7.144  16.553  0.00  0.00    +0.000 NA
ATOM     29  C   UNL     1       7.566   6.047  17.277  0.00  0.00    +0.000 A 
ENDBRANCH  23  29
ENDBRANCH  19  23
ENDBRANCH   1  19
BRANCH  16  30
ATOM     30  C   UNL     1       1.141  11.746  19.039  0.00  0.00    +0.000 C 
ATOM     31  F   UNL     1       1.567  10.836  18.121  0.00  0.00    +0.000 F 
ATOM     32  F   UNL     1       0.263  12.557  18.382  0.00  0.00    +0.000 F 
ATOM     33  F   UNL     1       2.221  12.530  19.316  0.00  0.00    +0.000 F 
ENDBRANCH  16  30
TORSDOF 4
ENDMDL
MODEL 3
REMARK VINA RESULT:      -8.2      4.324      8.325
REMARK  Name = 
REMARK  5 active torsions:
REMARK  status: ('A' for Active; 'I' for Inactive)
REMARK    1  A    between atoms: C_1  and  N_2
REMARK    2  A    between atoms: C_6  and  C_7
REMARK    3  A    between atoms: C_7  and  C_8
REMARK    4  A    between atoms: C_8  and  C_9
REMARK    5  A    between atoms: C_24  and  C_25
REMARK                            x       y       z     vdW  Elec       q    Type
REMARK                         _______ _______ _______ _____ _____    ______ ____
ROOT
ATOM      1  C   UNL     1       1.104  11.861  19.489  0.00  0.00    +0.000 A 
ATOM      2  C   UNL     1       1.867  11.130  18.563  0.00  0.00    +0.000 A 
ATOM      3  C   UNL     1       2.082   9.764  18.693  0.00  0.00    +0.000 A 
ATOM      4  C   UNL     1       1.514   9.069  19.745  0.00  0.00    +0.000 A 
ATOM      5  C   UNL     1       0.734   9.766  20.659  0.00  0.00    +0.000 A 
ATOM      6  C   UNL     1       0.525  11.136  20.550  0.00  0.00    +0.000 A 
ATOM      7  C   UNL     1       0.160   8.827  21.663  0.00  0.00    +0.000 C 
ATOM      8  C   UNL     1       0.898   7.513  21.332  0.00  0.00    +0.000 C 
ATOM      9  N   UNL     1       1.574   7.690  20.045  0.00  0.00    +0.000 N 
ATOM     10  C   UNL     1       2.251   6.689  19.386  0.00  0.00    +0.000 C 
ATOM     11  N   UNL     1       2.207   5.404  19.646  0.00  0.00    +0.000 NA
ATOM     12  C   UNL     1       3.040   4.767  18.701  0.00  0.00    +0.000 A 
ATOM     13  C   UNL     1       3.267   3.418  18.532  0.00  0.00    +0.000 A 
ATOM     14  C   UNL     1       4.130   3.010  17.502  0.00  0.00    +0.000 A 
ATOM     15  C   UNL     1       4.760   3.951  16.661  0.00  0.00    +0.000 A 
ATOM     16  C   UNL     1       4.529   5.318  16.826  0.00  0.00    +0.000 A 
ATOM     17  C   UNL     1       3.659   5.671  17.846  0.00  0.00    +0.000 A 
ATOM     18  C   UNL     1       3.166   7.011  18.205  0.00  0.00    +0.000 C 
ENDROOT
BRANCH   1  19
ATOM     19  C   UNL     1       0.928  13.435  19.308  0.00  0.00    +0.000 C 
ATOM     20  C   UNL     1      -0.150  13.916  18.301  0.00  0.00    +0.000 C 
ATOM     21  O   UNL     1      -0.894  14.608  19.327  0.00  0.00    +0.000 OA
ATOM     22  C   UNL     1      -0.005  14.128  20.349  0.00  0.00    +0.000 C 
BRANCH  19  23
ATOM     23  C   UNL     1       2.309  14.121  19.238  0.00  0.00    +0.000 C 
BRANCH  23  29
ATOM     24  C   UNL     1       2.526  17.058  20.459  0.00  0.00    +0.000 C 
ATOM     25  N   UNL     1       2.937  15.818  21.062  0.00  0.00    +0.000 N 
ATOM     26  C   UNL     1       3.537  15.712  22.281  0.00  0.00    +0.000 A 
ATOM     27  N   UNL     1       3.770  14.451  22.550  0.00  0.00    +0.000 NA
ATOM     28  N   UNL     1       3.334  13.714  21.477  0.00  0.00    +0.000 NA
ATOM     29  C   UNL     1       2.839  14.536  20.573  0.00  0.00    +0.000 A 
ENDBRANCH  23  29
ENDBRANCH  19  23
ENDBRANCH   1  19
BRANCH  16  30
ATOM     30  C   UNL     1       5.158   6.376  15.960  0.00  0.00    +0.000 C 
ATOM     31  F   UNL     1       4.278   7.300  15.485  0.00  0.00    +0.000 F 
ATOM     32  F   UNL     1       6.122   7.083  16.617  0.00  0.00    +0.000 F 
ATOM     33  F   UNL     1       5.776   5.853  14.864  0.00  0.00    +0.000 F 
ENDBRANCH  16  30
TORSDOF 4
ENDMDL
MODEL 4
REMARK VINA RESULT:      -8.2      4.705      8.506
REMARK  Name = 
REMARK  5 active torsions:
REMARK  status: ('A' for Active; 'I' for Inactive)
REMARK    1  A    between atoms: C_1  and  N_2
REMARK    2  A    between atoms: C_6  and  C_7
REMARK    3  A    between atoms: C_7  and  C_8
REMARK    4  A    between atoms: C_8  and  C_9
REMARK    5  A    between atoms: C_24  and  C_25
REMARK                            x       y       z     vdW  Elec       q    Type
REMARK                         _______ _______ _______ _____ _____    ______ ____
ROOT
ATOM      1  C   UNL     1       1.175  11.864  19.204  0.00  0.00    +0.000 A 
ATOM      2  C   UNL     1       1.946  11.100  18.310  0.00  0.00    +0.000 A 
ATOM      3  C   UNL     1       2.161   9.741  18.491  0.00  0.00    +0.000 A 
ATOM      4  C   UNL     1       1.588   9.083  19.565  0.00  0.00    +0.000 A 
ATOM      5  C   UNL     1       0.802   9.813  20.448  0.00  0.00    +0.000 A 
ATOM      6  C   UNL     1       0.591  11.178  20.287  0.00  0.00    +0.000 A 
ATOM      7  C   UNL     1       0.223   8.910  21.482  0.00  0.00    +0.000 C 
ATOM      8  C   UNL     1       0.965   7.587  21.205  0.00  0.00    +0.000 C 
ATOM      9  N   UNL     1       1.648   7.717  19.916  0.00  0.00    +0.000 N 
ATOM     10  C   UNL     1       2.332   6.694  19.298  0.00  0.00    +0.000 C 
ATOM     11  N   UNL     1       2.287   5.419  19.605  0.00  0.00    +0.000 NA
ATOM     12  C   UNL     1       3.128   4.749  18.690  0.00  0.00    +0.000 A 
ATOM     13  C   UNL     1       3.357   3.395  18.571  0.00  0.00    +0.000 A 
ATOM     14  C   UNL     1       4.227   2.951  17.563  0.00  0.00    +0.000 A 
ATOM     15  C   UNL     1       4.861   3.862  16.691  0.00  0.00    +0.000 A 
ATOM     16  C   UNL     1       4.627   5.233  16.805  0.00  0.00    +0.000 A 
ATOM     17  C   UNL     1       3.750   5.622  17.806  0.00  0.00    +0.000 A 
ATOM     18  C   UNL     1       3.253   6.974  18.112  0.00  0.00    +0.000 C 
ENDROOT
BRANCH   1  19
ATOM     19  C   UNL     1       0.998  13.430  18.963  0.00  0.00    +0.000 C 
ATOM     20  C   UNL     1      -0.395  13.920  18.490  0.00  0.00    +0.000 C 
ATOM     21  O   UNL     1      -0.579  14.741  19.664  0.00  0.00    +0.000 OA
ATOM     22  C   UNL     1       0.653  14.266  20.234  0.00  0.00    +0.000 C 
BRANCH  19  23
ATOM     23  C   UNL     1       2.230  13.999  18.226  0.00  0.00    +0.000 C 
BRANCH  23  29
ATOM     24  C   UNL     1       4.373  14.830  20.436  0.00  0.00    +0.000 C 
ATOM     25  N   UNL     1       3.533  15.694  19.650  0.00  0.00    +0.000 N 
ATOM     26  C   UNL     1       3.501  17.052  19.762  0.00  0.00    +0.000 A 
ATOM     27  N   UNL     1       2.648  17.546  18.899  0.00  0.00    +0.000 NA
ATOM     28  N   UNL     1       2.091  16.491  18.221  0.00  0.00    +0.000 NA
ATOM     29  C   UNL     1       2.616  15.371  18.678  0.00  0.00    +0.000 A 
ENDBRANCH  23  29
ENDBRANCH  19  23
ENDBRANCH   1  19
BRANCH  16  30
ATOM     30  C   UNL     1       5.260   6.260  15.904  0.00  0.00    +0.000 C 
ATOM     31  F   UNL     1       4.372   7.121  15.336  0.00  0.00    +0.000 F 
ATOM     32  F   UNL     1       6.169   7.038  16.559  0.00  0.00    +0.000 F 
ATOM     33  F   UNL     1       5.945   5.695  14.870  0.00  0.00    +0.000 F 
ENDBRANCH  16  30
TORSDOF 4
ENDMDL
MODEL 5
REMARK VINA RESULT:      -8.1      4.619      8.374
REMARK  Name = 
REMARK  5 active torsions:
REMARK  status: ('A' for Active; 'I' for Inactive)
REMARK    1  A    between atoms: C_1  and  N_2
REMARK    2  A    between atoms: C_6  and  C_7
REMARK    3  A    between atoms: C_7  and  C_8
REMARK    4  A    between atoms: C_8  and  C_9
REMARK    5  A    between atoms: C_24  and  C_25
REMARK                            x       y       z     vdW  Elec       q    Type
REMARK                         _______ _______ _______ _____ _____    ______ ____
ROOT
ATOM      1  C   UNL     1       1.202  11.878  19.107  0.00  0.00    +0.000 A 
ATOM      2  C   UNL     1       1.983  11.106  18.229  0.00  0.00    +0.000 A 
ATOM      3  C   UNL     1       2.188   9.746  18.419  0.00  0.00    +0.000 A 
ATOM      4  C   UNL     1       1.594   9.096  19.486  0.00  0.00    +0.000 A 
ATOM      5  C   UNL     1       0.797   9.834  20.353  0.00  0.00    +0.000 A 
ATOM      6  C   UNL     1       0.596  11.199  20.183  0.00  0.00    +0.000 A 
ATOM      7  C   UNL     1       0.196   8.939  21.382  0.00  0.00    +0.000 C 
ATOM      8  C   UNL     1       0.935   7.610  21.121  0.00  0.00    +0.000 C 
ATOM      9  N   UNL     1       1.640   7.731  19.843  0.00  0.00    +0.000 N 
ATOM     10  C   UNL     1       2.327   6.702  19.240  0.00  0.00    +0.000 C 
ATOM     11  N   UNL     1       2.270   5.429  19.551  0.00  0.00    +0.000 NA
ATOM     12  C   UNL     1       3.122   4.750  18.652  0.00  0.00    +0.000 A 
ATOM     13  C   UNL     1       3.345   3.394  18.542  0.00  0.00    +0.000 A 
ATOM     14  C   UNL     1       4.229   2.942  17.550  0.00  0.00    +0.000 A 
ATOM     15  C   UNL     1       4.882   3.845  16.685  0.00  0.00    +0.000 A 
ATOM     16  C   UNL     1       4.654   5.218  16.790  0.00  0.00    +0.000 A 
ATOM     17  C   UNL     1       3.763   5.616  17.775  0.00  0.00    +0.000 A 
ATOM     18  C   UNL     1       3.269   6.972  18.068  0.00  0.00    +0.000 C 
ENDROOT
BRANCH   1  19
ATOM     19  C   UNL     1       1.038  13.444  18.858  0.00  0.00    +0.000 C 
ATOM     20  C   UNL     1      -0.390  13.967  18.554  0.00  0.00    +0.000 C 
ATOM     21  O   UNL     1      -0.402  14.812  19.725  0.00  0.00    +0.000 OA
ATOM     22  C   UNL     1       0.879  14.312  20.145  0.00  0.00    +0.000 C 
BRANCH  19  23
ATOM     23  C   UNL     1       2.182  13.963  17.961  0.00  0.00    +0.000 C 
BRANCH  23  29
ATOM     24  C   UNL     1       1.995  17.146  17.987  0.00  0.00    +0.000 C 
ATOM     25  N   UNL     1       2.983  16.314  18.619  0.00  0.00    +0.000 N 
ATOM     26  C   UNL     1       4.052  16.782  19.324  0.00  0.00    +0.000 A 
ATOM     27  N   UNL     1       4.751  15.775  19.784  0.00  0.00    +0.000 NA
ATOM     28  N   UNL     1       4.144  14.621  19.356  0.00  0.00    +0.000 NA
ATOM     29  C   UNL     1       3.081  14.942  18.644  0.00  0.00    +0.000 A 
ENDBRANCH  23  29
ENDBRANCH  19  23
ENDBRANCH   1  19
BRANCH  16  30
ATOM     30  C   UNL     1       5.307   6.238  15.896  0.00  0.00    +0.000 C 
ATOM     31  F   UNL     1       4.436   7.118  15.329  0.00  0.00    +0.000 F 
ATOM     32  F   UNL     1       6.228   6.997  16.556  0.00  0.00    +0.000 F 
ATOM     33  F   UNL     1       5.985   5.666  14.860  0.00  0.00    +0.000 F 
ENDBRANCH  16  30
TORSDOF 4
ENDMDL
MODEL 6
REMARK VINA RESULT:      -8.1      3.943      8.678
REMARK  Name = 
REMARK  5 active torsions:
REMARK  status: ('A' for Active; 'I' for Inactive)
REMARK    1  A    between atoms: C_1  and  N_2
REMARK    2  A    between atoms: C_6  and  C_7
REMARK    3  A    between atoms: C_7  and  C_8
REMARK    4  A    between atoms: C_8  and  C_9
REMARK    5  A    between atoms: C_24  and  C_25
REMARK                            x       y       z     vdW  Elec       q    Type
REMARK                         _______ _______ _______ _____ _____    ______ ____
ROOT
ATOM      1  C   UNL     1       1.201  11.699  19.210  0.00  0.00    +0.000 A 
ATOM      2  C   UNL     1       1.962  10.941  18.303  0.00  0.00    +0.000 A 
ATOM      3  C   UNL     1       2.190   9.583  18.480  0.00  0.00    +0.000 A 
ATOM      4  C   UNL     1       1.640   8.921  19.563  0.00  0.00    +0.000 A 
ATOM      5  C   UNL     1       0.864   9.645  20.459  0.00  0.00    +0.000 A 
ATOM      6  C   UNL     1       0.640  11.008  20.302  0.00  0.00    +0.000 A 
ATOM      7  C   UNL     1       0.309   8.738  21.503  0.00  0.00    +0.000 C 
ATOM      8  C   UNL     1       1.055   7.420  21.212  0.00  0.00    +0.000 C 
ATOM      9  N   UNL     1       1.716   7.555  19.913  0.00  0.00    +0.000 N 
ATOM     10  C   UNL     1       2.396   6.537  19.283  0.00  0.00    +0.000 C 
ATOM     11  N   UNL     1       2.366   5.263  19.590  0.00  0.00    +0.000 NA
ATOM     12  C   UNL     1       3.196   4.599  18.660  0.00  0.00    +0.000 A 
ATOM     13  C   UNL     1       3.434   3.246  18.538  0.00  0.00    +0.000 A 
ATOM     14  C   UNL     1       4.290   2.809  17.514  0.00  0.00    +0.000 A 
ATOM     15  C   UNL     1       4.902   3.725  16.633  0.00  0.00    +0.000 A 
ATOM     16  C   UNL     1       4.660   5.094  16.751  0.00  0.00    +0.000 A 
ATOM     17  C   UNL     1       3.797   5.477  17.767  0.00  0.00    +0.000 A 
ATOM     18  C   UNL     1       3.295   6.824  18.082  0.00  0.00    +0.000 C 
ENDROOT
BRANCH   1  19
ATOM     19  C   UNL     1       1.009  13.263  18.973  0.00  0.00    +0.000 C 
ATOM     20  C   UNL     1       1.308  14.203  20.171  0.00  0.00    +0.000 C 
ATOM     21  O   UNL     1       2.362  14.885  19.458  0.00  0.00    +0.000 OA
ATOM     22  C   UNL     1       2.229  13.997  18.335  0.00  0.00    +0.000 C 
BRANCH  19  23
ATOM     23  C   UNL     1      -0.290  13.527  18.182  0.00  0.00    +0.000 C 
BRANCH  23  29
ATOM     24  C   UNL     1      -2.234  11.249  17.088  0.00  0.00    +0.000 C 
ATOM     25  N   UNL     1      -2.341  11.986  18.319  0.00  0.00    +0.000 N 
ATOM     26  C   UNL     1      -3.350  11.839  19.223  0.00  0.00    +0.000 A 
ATOM     27  N   UNL     1      -3.150  12.638  20.241  0.00  0.00    +0.000 NA
ATOM     28  N   UNL     1      -1.998  13.342  19.993  0.00  0.00    +0.000 NA
ATOM     29  C   UNL     1      -1.511  12.957  18.829  0.00  0.00    +0.000 A 
ENDBRANCH  23  29
ENDBRANCH  19  23
ENDBRANCH   1  19
BRANCH  16  30
ATOM     30  C   UNL     1       5.270   6.125  15.840  0.00  0.00    +0.000 C 
ATOM     31  F   UNL     1       4.424   7.137  15.502  0.00  0.00    +0.000 F 
ATOM     32  F   UNL     1       6.366   6.723  16.389  0.00  0.00    +0.000 F 
ATOM     33  F   UNL     1       5.701   5.591  14.662  0.00  0.00    +0.000 F 
ENDBRANCH  16  30
TORSDOF 4
ENDMDL
MODEL 7
REMARK VINA RESULT:      -8.0      4.705      9.945
REMARK  Name = 
REMARK  5 active torsions:
REMARK  status: ('A' for Active; 'I' for Inactive)
REMARK    1  A    between atoms: C_1  and  N_2
REMARK    2  A    between atoms: C_6  and  C_7
REMARK    3  A    between atoms: C_7  and  C_8
REMARK    4  A    between atoms: C_8  and  C_9
REMARK    5  A    between atoms: C_24  and  C_25
REMARK                            x       y       z     vdW  Elec       q    Type
REMARK                         _______ _______ _______ _____ _____    ______ ____
ROOT
ATOM      1  C   UNL     1      -0.420  10.971  20.867  0.00  0.00    +0.000 A 
ATOM      2  C   UNL     1      -0.187   9.638  21.248  0.00  0.00    +0.000 A 
ATOM      3  C   UNL     1       0.649   8.796  20.526  0.00  0.00    +0.000 A 
ATOM      4  C   UNL     1       1.310   9.267  19.406  0.00  0.00    +0.000 A 
ATOM      5  C   UNL     1       1.114  10.589  19.025  0.00  0.00    +0.000 A 
ATOM      6  C   UNL     1       0.267  11.438  19.730  0.00  0.00    +0.000 A 
ATOM      7  C   UNL     1       1.968  10.914  17.848  0.00  0.00    +0.000 C 
ATOM      8  C   UNL     1       2.523   9.527  17.462  0.00  0.00    +0.000 C 
ATOM      9  N   UNL     1       2.221   8.602  18.556  0.00  0.00    +0.000 N 
ATOM     10  C   UNL     1       2.652   7.296  18.603  0.00  0.00    +0.000 C 
ATOM     11  N   UNL     1       3.570   6.742  17.847  0.00  0.00    +0.000 NA
ATOM     12  C   UNL     1       3.693   5.401  18.270  0.00  0.00    +0.000 A 
ATOM     13  C   UNL     1       4.571   4.438  17.820  0.00  0.00    +0.000 A 
ATOM     14  C   UNL     1       4.524   3.164  18.408  0.00  0.00    +0.000 A 
ATOM     15  C   UNL     1       3.599   2.865  19.431  0.00  0.00    +0.000 A 
ATOM     16  C   UNL     1       2.712   3.838  19.892  0.00  0.00    +0.000 A 
ATOM     17  C   UNL     1       2.805   5.084  19.292  0.00  0.00    +0.000 A 
ATOM     18  C   UNL     1       2.068   6.316  19.619  0.00  0.00    +0.000 C 
ENDROOT
BRANCH   1  19
ATOM     19  C   UNL     1      -1.424  11.875  21.714  0.00  0.00    +0.000 C 
ATOM     20  C   UNL     1      -1.740  11.416  23.162  0.00  0.00    +0.000 C 
ATOM     21  O   UNL     1      -1.199  12.626  23.734  0.00  0.00    +0.000 OA
ATOM     22  C   UNL     1      -0.775  13.092  22.442  0.00  0.00    +0.000 C 
BRANCH  19  23
ATOM     23  C   UNL     1      -2.619  12.308  20.838  0.00  0.00    +0.000 C 
BRANCH  23  29
ATOM     24  C   UNL     1      -3.188  15.435  21.089  0.00  0.00    +0.000 C 
ATOM     25  N   UNL     1      -3.908  14.354  21.707  0.00  0.00    +0.000 N 
ATOM     26  C   UNL     1      -4.963  14.512  22.555  0.00  0.00    +0.000 A 
ATOM     27  N   UNL     1      -5.407  13.338  22.930  0.00  0.00    +0.000 NA
ATOM     28  N   UNL     1      -4.615  12.388  22.336  0.00  0.00    +0.000 NA
ATOM     29  C   UNL     1      -3.702  12.998  21.603  0.00  0.00    +0.000 A 
ENDBRANCH  23  29
ENDBRANCH  19  23
ENDBRANCH   1  19
BRANCH  16  30
ATOM     30  C   UNL     1       1.707   3.593  20.986  0.00  0.00    +0.000 C 
ATOM     31  F   UNL     1       2.112   4.012  22.216  0.00  0.00    +0.000 F 
ATOM     32  F   UNL     1       0.518   4.219  20.751  0.00  0.00    +0.000 F 
ATOM     33  F   UNL     1       1.400   2.272  21.125  0.00  0.00    +0.000 F 
ENDBRANCH  16  30
TORSDOF 4
ENDMDL
MODEL 8
REMARK VINA RESULT:      -8.0      4.526      9.042
REMARK  Name = 
REMARK  5 active torsions:
REMARK  status: ('A' for Active; 'I' for Inactive)
REMARK    1  A    between atoms: C_1  and  N_2
REMARK    2  A    between atoms: C_6  and  C_7
REMARK    3  A    between atoms: C_7  and  C_8
REMARK    4  A    between atoms: C_8  and  C_9
REMARK    5  A    between atoms: C_24  and  C_25
REMARK                            x       y       z     vdW  Elec       q    Type
REMARK                         _______ _______ _______ _____ _____    ______ ____
ROOT
ATOM      1  C   UNL     1       1.409  12.056  19.186  0.00  0.00    +0.000 A 
ATOM      2  C   UNL     1       2.154  11.262  18.298  0.00  0.00    +0.000 A 
ATOM      3  C   UNL     1       2.295   9.892  18.468  0.00  0.00    +0.000 A 
ATOM      4  C   UNL     1       1.669   9.255  19.525  0.00  0.00    +0.000 A 
ATOM      5  C   UNL     1       0.906  10.016  20.402  0.00  0.00    +0.000 A 
ATOM      6  C   UNL     1       0.770  11.392  20.251  0.00  0.00    +0.000 A 
ATOM      7  C   UNL     1       0.262   9.135  21.416  0.00  0.00    +0.000 C 
ATOM      8  C   UNL     1       0.938   7.777  21.137  0.00  0.00    +0.000 C 
ATOM      9  N   UNL     1       1.651   7.884  19.863  0.00  0.00    +0.000 N 
ATOM     10  C   UNL     1       2.291   6.832  19.246  0.00  0.00    +0.000 C 
ATOM     11  N   UNL     1       2.174   5.559  19.539  0.00  0.00    +0.000 NA
ATOM     12  C   UNL     1       2.995   4.854  18.631  0.00  0.00    +0.000 A 
ATOM     13  C   UNL     1       3.155   3.491  18.502  0.00  0.00    +0.000 A 
ATOM     14  C   UNL     1       4.019   3.012  17.505  0.00  0.00    +0.000 A 
ATOM     15  C   UNL     1       4.715   3.897  16.654  0.00  0.00    +0.000 A 
ATOM     16  C   UNL     1       4.551   5.277  16.778  0.00  0.00    +0.000 A 
ATOM     17  C   UNL     1       3.678   5.702  17.767  0.00  0.00    +0.000 A 
ATOM     18  C   UNL     1       3.246   7.075  18.079  0.00  0.00    +0.000 C 
ENDROOT
BRANCH   1  19
ATOM     19  C   UNL     1       1.319  13.632  18.959  0.00  0.00    +0.000 C 
ATOM     20  C   UNL     1       1.953  14.541  20.045  0.00  0.00    +0.000 C 
ATOM     21  O   UNL     1       2.890  15.117  19.109  0.00  0.00    +0.000 OA
ATOM     22  C   UNL     1       2.439  14.243  18.061  0.00  0.00    +0.000 C 
BRANCH  19  23
ATOM     23  C   UNL     1      -0.088  14.018  18.454  0.00  0.00    +0.000 C 
BRANCH  23  29
ATOM     24  C   UNL     1      -1.718  14.595  21.133  0.00  0.00    +0.000 C 
ATOM     25  N   UNL     1      -1.294  15.541  20.135  0.00  0.00    +0.000 N 
ATOM     26  C   UNL     1      -1.566  16.876  20.170  0.00  0.00    +0.000 A 
ATOM     27  N   UNL     1      -1.029  17.463  19.130  0.00  0.00    +0.000 NA
ATOM     28  N   UNL     1      -0.408  16.493  18.384  0.00  0.00    +0.000 NA
ATOM     29  C   UNL     1      -0.574  15.329  18.983  0.00  0.00    +0.000 A 
ENDBRANCH  23  29
ENDBRANCH  19  23
ENDBRANCH   1  19
BRANCH  16  30
ATOM     30  C   UNL     1       5.253   6.278  15.899  0.00  0.00    +0.000 C 
ATOM     31  F   UNL     1       4.424   7.197  15.334  0.00  0.00    +0.000 F 
ATOM     32  F   UNL     1       6.198   6.993  16.575  0.00  0.00    +0.000 F 
ATOM     33  F   UNL     1       5.917   5.688  14.865  0.00  0.00    +0.000 F 
ENDBRANCH  16  30
TORSDOF 4
ENDMDL
MODEL 9
REMARK VINA RESULT:      -7.9      2.071      2.890
REMARK  Name = 
REMARK  5 active torsions:
REMARK  status: ('A' for Active; 'I' for Inactive)
REMARK    1  A    between atoms: C_1  and  N_2
REMARK    2  A    between atoms: C_6  and  C_7
REMARK    3  A    between atoms: C_7  and  C_8
REMARK    4  A    between atoms: C_8  and  C_9
REMARK    5  A    between atoms: C_24  and  C_25
REMARK                            x       y       z     vdW  Elec       q    Type
REMARK                         _______ _______ _______ _____ _____    ______ ____
ROOT
ATOM      1  C   UNL     1       4.831   5.673  17.312  0.00  0.00    +0.000 A 
ATOM      2  C   UNL     1       4.377   6.996  17.449  0.00  0.00    +0.000 A 
ATOM      3  C   UNL     1       3.424   7.359  18.392  0.00  0.00    +0.000 A 
ATOM      4  C   UNL     1       2.907   6.412  19.257  0.00  0.00    +0.000 A 
ATOM      5  C   UNL     1       3.359   5.103  19.158  0.00  0.00    +0.000 A 
ATOM      6  C   UNL     1       4.301   4.722  18.208  0.00  0.00    +0.000 A 
ATOM      7  C   UNL     1       2.738   4.264  20.221  0.00  0.00    +0.000 C 
ATOM      8  C   UNL     1       1.689   5.226  20.815  0.00  0.00    +0.000 C 
ATOM      9  N   UNL     1       1.967   6.568  20.300  0.00  0.00    +0.000 N 
ATOM     10  C   UNL     1       1.292   7.702  20.694  0.00  0.00    +0.000 C 
ATOM     11  N   UNL     1       0.494   7.823  21.728  0.00  0.00    +0.000 NA
ATOM     12  C   UNL     1       0.053   9.164  21.748  0.00  0.00    +0.000 A 
ATOM     13  C   UNL     1      -0.750   9.788  22.679  0.00  0.00    +0.000 A 
ATOM     14  C   UNL     1      -1.044  11.149  22.502  0.00  0.00    +0.000 A 
ATOM     15  C   UNL     1      -0.540  11.868  21.398  0.00  0.00    +0.000 A 
ATOM     16  C   UNL     1       0.277  11.242  20.457  0.00  0.00    +0.000 A 
ATOM     17  C   UNL     1       0.552   9.901  20.681  0.00  0.00    +0.000 A 
ATOM     18  C   UNL     1       1.436   9.007  19.914  0.00  0.00    +0.000 C 
ENDROOT
BRANCH   1  19
ATOM     19  C   UNL     1       5.896   5.311  16.183  0.00  0.00    +0.000 C 
ATOM     20  C   UNL     1       7.372   5.709  16.448  0.00  0.00    +0.000 C 
ATOM     21  O   UNL     1       7.821   4.338  16.395  0.00  0.00    +0.000 OA
ATOM     22  C   UNL     1       6.473   3.863  16.248  0.00  0.00    +0.000 C 
BRANCH  19  23
ATOM     23  C   UNL     1       5.322   5.632  14.786  0.00  0.00    +0.000 C 
BRANCH  23  29
ATOM     24  C   UNL     1       8.017   5.507  13.086  0.00  0.00    +0.000 C 
ATOM     25  N   UNL     1       6.880   4.629  13.006  0.00  0.00    +0.000 N 
ATOM     26  C   UNL     1       6.766   3.590  12.132  0.00  0.00    +0.000 A 
ATOM     27  N   UNL     1       5.624   2.977  12.322  0.00  0.00    +0.000 NA
ATOM     28  N   UNL     1       4.963   3.638  13.327  0.00  0.00    +0.000 NA
ATOM     29  C   UNL     1       5.715   4.642  13.737  0.00  0.00    +0.000 A 
ENDBRANCH  23  29
ENDBRANCH  19  23
ENDBRANCH   1  19
BRANCH  16  30
ATOM     30  C   UNL     1       0.858  11.949  19.262  0.00  0.00    +0.000 C 
ATOM     31  F   UNL     1       2.208  12.115  19.317  0.00  0.00    +0.000 F 
ATOM     32  F   UNL     1       0.612  11.289  18.094  0.00  0.00    +0.000 F 
ATOM     33  F   UNL     1       0.336  13.196  19.089  0.00  0.00    +0.000 F 
ENDBRANCH  16  30
TORSDOF 4
ENDMDL
