MODEL 1
REMARK VINA RESULT:      -8.6      0.000      0.000
REMARK  Name = 
REMARK  4 active torsions:
REMARK  status: ('A' for Active; 'I' for Inactive)
REMARK    1  A    between atoms: C_2  and  C_11
REMARK    2  A    between atoms: N_3  and  C_4
REMARK    3  A    between atoms: C_4  and  C_5
REMARK    4  A    between atoms: C_14  and  N_15
REMARK                            x       y       z     vdW  Elec       q    Type
REMARK                         _______ _______ _______ _____ _____    ______ ____
ROOT
ATOM      1  C   UNL     1       2.481   7.202  19.066  0.00  0.00    +0.000 A 
ATOM      2  C   UNL     1       2.464   7.943  17.882  0.00  0.00    +0.000 A 
ATOM      3  C   UNL     1       1.729   9.113  17.815  0.00  0.00    +0.000 A 
ATOM      4  C   UNL     1       1.021   9.565  18.940  0.00  0.00    +0.000 A 
ATOM      5  C   UNL     1       1.093   8.890  20.158  0.00  0.00    +0.000 A 
ATOM      6  C   UNL     1       1.818   7.683  20.210  0.00  0.00    +0.000 A 
ENDROOT
BRANCH   4   7
ATOM      7  N   UNL     1       0.186  10.689  18.730  0.00  0.00    +0.000 N 
ATOM      8  C   UNL     1       0.246  11.802  19.548  0.00  0.00    +0.000 A 
ATOM      9  N   UNL     1      -0.919  12.379  19.702  0.00  0.00    +0.000 NA
ATOM     10  C   UNL     1      -1.764  11.658  18.903  0.00  0.00    +0.000 A 
ATOM     11  C   UNL     1      -3.157  11.762  18.794  0.00  0.00    +0.000 A 
ATOM     12  C   UNL     1      -3.823  10.931  17.891  0.00  0.00    +0.000 A 
ATOM     13  C   UNL     1      -3.110  10.045  17.082  0.00  0.00    +0.000 A 
ATOM     14  C   UNL     1      -1.720   9.894  17.203  0.00  0.00    +0.000 A 
ATOM     15  C   UNL     1      -1.076  10.690  18.160  0.00  0.00    +0.000 A 
ENDBRANCH   4   7
BRANCH   1  17
ATOM     16  O   UNL     1       3.612   5.385  20.034  0.00  0.00    +0.000 OA
ATOM     17  C   UNL     1       3.203   5.905  19.002  0.00  0.00    +0.000 C 
ATOM     18  N   UNL     1       3.472   5.409  17.747  0.00  0.00    +0.000 N 
ATOM     19  H   UNL     1       3.311   5.997  16.941  0.00  0.00    +0.000 HD
BRANCH  18  20
ATOM     20  C   UNL     1       4.434   4.334  17.608  0.00  0.00    +0.000 C 
BRANCH  20  21
ATOM     21  C   UNL     1       5.375   4.582  16.471  0.00  0.00    +0.000 A 
ATOM     22  C   UNL     1       5.227   3.915  15.249  0.00  0.00    +0.000 A 
ATOM     23  C   UNL     1       6.139   4.134  14.227  0.00  0.00    +0.000 A 
ATOM     24  C   UNL     1       7.178   5.021  14.453  0.00  0.00    +0.000 A 
ATOM     25  N   UNL     1       7.355   5.687  15.615  0.00  0.00    +0.000 NA
ATOM     26  C   UNL     1       6.455   5.449  16.598  0.00  0.00    +0.000 A 
ENDBRANCH  20  21
ENDBRANCH  18  20
ENDBRANCH   1  17
TORSDOF 4
ENDMDL
MODEL 2
REMARK VINA RESULT:      -8.3      2.584      8.532
REMARK  Name = 
REMARK  4 active torsions:
REMARK  status: ('A' for Active; 'I' for Inactive)
REMARK    1  A    between atoms: C_2  and  C_11
REMARK    2  A    between atoms: N_3  and  C_4
REMARK    3  A    between atoms: C_4  and  C_5
REMARK    4  A    between atoms: C_14  and  N_15
REMARK                            x       y       z     vdW  Elec       q    Type
REMARK                         _______ _______ _______ _____ _____    ______ ____
ROOT
ATOM      1  C   UNL     1       1.084   9.415  19.376  0.00  0.00    +0.000 A 
ATOM      2  C   UNL     1       1.235   8.651  20.536  0.00  0.00    +0.000 A 
ATOM      3  C   UNL     1       1.930   7.457  20.485  0.00  0.00    +0.000 A 
ATOM      4  C   UNL     1       2.502   7.024  19.278  0.00  0.00    +0.000 A 
ATOM      5  C   UNL     1       2.440   7.811  18.128  0.00  0.00    +0.000 A 
ATOM      6  C   UNL     1       1.703   9.011  18.179  0.00  0.00    +0.000 A 
ENDROOT
BRANCH   4   7
ATOM      7  N   UNL     1       3.065   5.726  19.295  0.00  0.00    +0.000 N 
ATOM      8  C   UNL     1       4.263   5.446  18.663  0.00  0.00    +0.000 A 
ATOM      9  N   UNL     1       4.303   4.233  18.171  0.00  0.00    +0.000 NA
ATOM     10  C   UNL     1       3.113   3.673  18.551  0.00  0.00    +0.000 A 
ATOM     11  C   UNL     1       2.579   2.433  18.179  0.00  0.00    +0.000 A 
ATOM     12  C   UNL     1       1.345   2.048  18.707  0.00  0.00    +0.000 A 
ATOM     13  C   UNL     1       0.678   2.865  19.622  0.00  0.00    +0.000 A 
ATOM     14  C   UNL     1       1.174   4.128  19.977  0.00  0.00    +0.000 A 
ATOM     15  C   UNL     1       2.382   4.525  19.388  0.00  0.00    +0.000 A 
ENDBRANCH   4   7
BRANCH   1  17
ATOM     16  O   UNL     1      -0.417  10.799  20.537  0.00  0.00    +0.000 OA
ATOM     17  C   UNL     1       0.225  10.620  19.507  0.00  0.00    +0.000 C 
ATOM     18  N   UNL     1       0.113  11.424  18.396  0.00  0.00    +0.000 N 
ATOM     19  H   UNL     1       0.484  11.098  17.514  0.00  0.00    +0.000 HD
BRANCH  18  20
ATOM     20  C   UNL     1      -0.940  12.418  18.351  0.00  0.00    +0.000 C 
BRANCH  20  21
ATOM     21  C   UNL     1      -2.254  11.811  17.974  0.00  0.00    +0.000 A 
ATOM     22  C   UNL     1      -2.423  11.151  16.751  0.00  0.00    +0.000 A 
ATOM     23  C   UNL     1      -3.664  10.635  16.410  0.00  0.00    +0.000 A 
ATOM     24  C   UNL     1      -4.708  10.789  17.307  0.00  0.00    +0.000 A 
ATOM     25  N   UNL     1      -4.588  11.416  18.496  0.00  0.00    +0.000 NA
ATOM     26  C   UNL     1      -3.367  11.918  18.801  0.00  0.00    +0.000 A 
ENDBRANCH  20  21
ENDBRANCH  18  20
ENDBRANCH   1  17
TORSDOF 4
ENDMDL
MODEL 3
REMARK VINA RESULT:      -8.3      2.761      8.778
REMARK  Name = 
REMARK  4 active torsions:
REMARK  status: ('A' for Active; 'I' for Inactive)
REMARK    1  A    between atoms: C_2  and  C_11
REMARK    2  A    between atoms: N_3  and  C_4
REMARK    3  A    between atoms: C_4  and  C_5
REMARK    4  A    between atoms: C_14  and  N_15
REMARK                            x       y       z     vdW  Elec       q    Type
REMARK                         _______ _______ _______ _____ _____    ______ ____
ROOT
ATOM      1  C   UNL     1       1.436   9.225  18.923  0.00  0.00    +0.000 A 
ATOM      2  C   UNL     1       1.407   8.611  20.178  0.00  0.00    +0.000 A 
ATOM      3  C   UNL     1       2.037   7.393  20.360  0.00  0.00    +0.000 A 
ATOM      4  C   UNL     1       2.721   6.787  19.296  0.00  0.00    +0.000 A 
ATOM      5  C   UNL     1       2.838   7.421  18.058  0.00  0.00    +0.000 A 
ATOM      6  C   UNL     1       2.168   8.646  17.871  0.00  0.00    +0.000 A 
ENDROOT
BRANCH   4   7
ATOM      7  N   UNL     1       3.207   5.480  19.541  0.00  0.00    +0.000 N 
ATOM      8  C   UNL     1       4.520   5.132  19.279  0.00  0.00    +0.000 A 
ATOM      9  N   UNL     1       4.644   3.889  18.888  0.00  0.00    +0.000 NA
ATOM     10  C   UNL     1       3.375   3.382  18.958  0.00  0.00    +0.000 A 
ATOM     11  C   UNL     1       2.914   2.132  18.524  0.00  0.00    +0.000 A 
ATOM     12  C   UNL     1       1.568   1.810  18.714  0.00  0.00    +0.000 A 
ATOM     13  C   UNL     1       0.710   2.701  19.362  0.00  0.00    +0.000 A 
ATOM     14  C   UNL     1       1.139   3.974  19.767  0.00  0.00    +0.000 A 
ATOM     15  C   UNL     1       2.477   4.304  19.510  0.00  0.00    +0.000 A 
ENDBRANCH   4   7
BRANCH   1  17
ATOM     16  O   UNL     1       1.198  11.535  18.576  0.00  0.00    +0.000 OA
ATOM     17  C   UNL     1       0.634  10.469  18.799  0.00  0.00    +0.000 C 
ATOM     18  N   UNL     1      -0.713  10.365  19.056  0.00  0.00    +0.000 N 
ATOM     19  H   UNL     1      -1.073   9.509  19.455  0.00  0.00    +0.000 HD
BRANCH  18  20
ATOM     20  C   UNL     1      -1.484  11.574  19.264  0.00  0.00    +0.000 C 
BRANCH  20  21
ATOM     21  C   UNL     1      -2.722  11.589  18.424  0.00  0.00    +0.000 A 
ATOM     22  C   UNL     1      -3.963  11.940  18.968  0.00  0.00    +0.000 A 
ATOM     23  C   UNL     1      -5.100  11.904  18.174  0.00  0.00    +0.000 A 
ATOM     24  C   UNL     1      -4.966  11.519  16.850  0.00  0.00    +0.000 A 
ATOM     25  N   UNL     1      -3.788  11.176  16.286  0.00  0.00    +0.000 NA
ATOM     26  C   UNL     1      -2.695  11.212  17.085  0.00  0.00    +0.000 A 
ENDBRANCH  20  21
ENDBRANCH  18  20
ENDBRANCH   1  17
TORSDOF 4
ENDMDL
MODEL 4
REMARK VINA RESULT:      -8.2      0.832      1.370
REMARK  Name = 
REMARK  4 active torsions:
REMARK  status: ('A' for Active; 'I' for Inactive)
REMARK    1  A    between atoms: C_2  and  C_11
REMARK    2  A    between atoms: N_3  and  C_4
REMARK    3  A    between atoms: C_4  and  C_5
REMARK    4  A    between atoms: C_14  and  N_15
REMARK                            x       y       z     vdW  Elec       q    Type
REMARK                         _______ _______ _______ _____ _____    ______ ____
ROOT
ATOM      1  C   UNL     1       2.609   7.043  18.895  0.00  0.00    +0.000 A 
ATOM      2  C   UNL     1       1.973   7.376  20.094  0.00  0.00    +0.000 A 
ATOM      3  C   UNL     1       1.309   8.585  20.205  0.00  0.00    +0.000 A 
ATOM      4  C   UNL     1       1.254   9.462  19.111  0.00  0.00    +0.000 A 
ATOM      5  C   UNL     1       1.805   9.114  17.878  0.00  0.00    +0.000 A 
ATOM      6  C   UNL     1       2.507   7.896  17.781  0.00  0.00    +0.000 A 
ENDROOT
BRANCH   4   7
ATOM      7  N   UNL     1       0.678  10.730  19.367  0.00  0.00    +0.000 N 
ATOM      8  C   UNL     1       1.032  11.478  20.475  0.00  0.00    +0.000 A 
ATOM      9  N   UNL     1       0.035  12.183  20.947  0.00  0.00    +0.000 NA
ATOM     10  C   UNL     1      -0.994  11.941  20.079  0.00  0.00    +0.000 A 
ATOM     11  C   UNL     1      -2.333  12.339  20.186  0.00  0.00    +0.000 A 
ATOM     12  C   UNL     1      -3.219  11.996  19.162  0.00  0.00    +0.000 A 
ATOM     13  C   UNL     1      -2.769  11.307  18.035  0.00  0.00    +0.000 A 
ATOM     14  C   UNL     1      -1.443  10.862  17.925  0.00  0.00    +0.000 A 
ATOM     15  C   UNL     1      -0.583  11.160  18.991  0.00  0.00    +0.000 A 
ENDBRANCH   4   7
BRANCH   1  17
ATOM     16  O   UNL     1       4.253   5.612  19.768  0.00  0.00    +0.000 OA
ATOM     17  C   UNL     1       3.391   5.780  18.913  0.00  0.00    +0.000 C 
ATOM     18  N   UNL     1       3.171   4.902  17.877  0.00  0.00    +0.000 N 
ATOM     19  H   UNL     1       2.617   5.203  17.087  0.00  0.00    +0.000 HD
BRANCH  18  20
ATOM     20  C   UNL     1       4.111   3.821  17.661  0.00  0.00    +0.000 C 
BRANCH  20  21
ATOM     21  C   UNL     1       5.195   4.217  16.710  0.00  0.00    +0.000 A 
ATOM     22  C   UNL     1       4.969   4.258  15.329  0.00  0.00    +0.000 A 
ATOM     23  C   UNL     1       6.006   4.588  14.468  0.00  0.00    +0.000 A 
ATOM     24  C   UNL     1       7.247   4.874  15.014  0.00  0.00    +0.000 A 
ATOM     25  N   UNL     1       7.506   4.849  16.339  0.00  0.00    +0.000 NA
ATOM     26  C   UNL     1       6.479   4.516  17.156  0.00  0.00    +0.000 A 
ENDBRANCH  20  21
ENDBRANCH  18  20
ENDBRANCH   1  17
TORSDOF 4
ENDMDL
MODEL 5
REMARK VINA RESULT:      -8.1      2.698      8.844
REMARK  Name = 
REMARK  4 active torsions:
REMARK  status: ('A' for Active; 'I' for Inactive)
REMARK    1  A    between atoms: C_2  and  C_11
REMARK    2  A    between atoms: N_3  and  C_4
REMARK    3  A    between atoms: C_4  and  C_5
REMARK    4  A    between atoms: C_14  and  N_15
REMARK                            x       y       z     vdW  Elec       q    Type
REMARK                         _______ _______ _______ _____ _____    ______ ____
ROOT
ATOM      1  C   UNL     1       1.295   9.267  19.081  0.00  0.00    +0.000 A 
ATOM      2  C   UNL     1       1.932   8.629  18.013  0.00  0.00    +0.000 A 
ATOM      3  C   UNL     1       2.538   7.402  18.211  0.00  0.00    +0.000 A 
ATOM      4  C   UNL     1       2.495   6.789  19.473  0.00  0.00    +0.000 A 
ATOM      5  C   UNL     1       1.791   7.364  20.531  0.00  0.00    +0.000 A 
ATOM      6  C   UNL     1       1.203   8.629  20.331  0.00  0.00    +0.000 A 
ENDROOT
BRANCH   4   7
ATOM      7  N   UNL     1       3.265   5.609  19.611  0.00  0.00    +0.000 N 
ATOM      8  C   UNL     1       4.599   5.565  19.248  0.00  0.00    +0.000 A 
ATOM      9  N   UNL     1       4.956   4.397  18.778  0.00  0.00    +0.000 NA
ATOM     10  C   UNL     1       3.833   3.624  18.897  0.00  0.00    +0.000 A 
ATOM     11  C   UNL     1       3.618   2.324  18.421  0.00  0.00    +0.000 A 
ATOM     12  C   UNL     1       2.389   1.711  18.676  0.00  0.00    +0.000 A 
ATOM     13  C   UNL     1       1.411   2.365  19.427  0.00  0.00    +0.000 A 
ATOM     14  C   UNL     1       1.588   3.682  19.878  0.00  0.00    +0.000 A 
ATOM     15  C   UNL     1       2.802   4.305  19.558  0.00  0.00    +0.000 A 
ENDBRANCH   4   7
BRANCH   1  17
ATOM     16  O   UNL     1       1.363  11.609  19.246  0.00  0.00    +0.000 OA
ATOM     17  C   UNL     1       0.776  10.630  18.798  0.00  0.00    +0.000 C 
ATOM     18  N   UNL     1      -0.422  10.708  18.125  0.00  0.00    +0.000 N 
ATOM     19  H   UNL     1      -0.964   9.866  17.987  0.00  0.00    +0.000 HD
BRANCH  18  20
ATOM     20  C   UNL     1      -1.132  11.971  18.099  0.00  0.00    +0.000 C 
BRANCH  20  21
ATOM     21  C   UNL     1      -2.613  11.768  18.061  0.00  0.00    +0.000 A 
ATOM     22  C   UNL     1      -3.250  11.290  16.909  0.00  0.00    +0.000 A 
ATOM     23  C   UNL     1      -4.630  11.152  16.890  0.00  0.00    +0.000 A 
ATOM     24  C   UNL     1      -5.341  11.493  18.029  0.00  0.00    +0.000 A 
ATOM     25  N   UNL     1      -4.766  11.955  19.160  0.00  0.00    +0.000 NA
ATOM     26  C   UNL     1      -3.418  12.088  19.149  0.00  0.00    +0.000 A 
ENDBRANCH  20  21
ENDBRANCH  18  20
ENDBRANCH   1  17
TORSDOF 4
ENDMDL
MODEL 6
REMARK VINA RESULT:      -8.1      1.384      2.561
REMARK  Name = 
REMARK  4 active torsions:
REMARK  status: ('A' for Active; 'I' for Inactive)
REMARK    1  A    between atoms: C_2  and  C_11
REMARK    2  A    between atoms: N_3  and  C_4
REMARK    3  A    between atoms: C_4  and  C_5
REMARK    4  A    between atoms: C_14  and  N_15
REMARK                            x       y       z     vdW  Elec       q    Type
REMARK                         _______ _______ _______ _____ _____    ______ ____
ROOT
ATOM      1  C   UNL     1       2.374   7.474  18.667  0.00  0.00    +0.000 A 
ATOM      2  C   UNL     1       2.196   8.496  17.730  0.00  0.00    +0.000 A 
ATOM      3  C   UNL     1       1.500   9.637  18.085  0.00  0.00    +0.000 A 
ATOM      4  C   UNL     1       0.995   9.779  19.387  0.00  0.00    +0.000 A 
ATOM      5  C   UNL     1       1.235   8.813  20.364  0.00  0.00    +0.000 A 
ATOM      6  C   UNL     1       1.917   7.639  19.987  0.00  0.00    +0.000 A 
ENDROOT
BRANCH   4   7
ATOM      7  N   UNL     1       0.177  10.912  19.609  0.00  0.00    +0.000 N 
ATOM      8  C   UNL     1      -1.138  10.956  19.181  0.00  0.00    +0.000 A 
ATOM      9  N   UNL     1      -1.512  12.157  18.821  0.00  0.00    +0.000 NA
ATOM     10  C   UNL     1      -0.425  12.945  19.084  0.00  0.00    +0.000 A 
ATOM     11  C   UNL     1      -0.233  14.296  18.763  0.00  0.00    +0.000 A 
ATOM     12  C   UNL     1       0.958  14.915  19.149  0.00  0.00    +0.000 A 
ATOM     13  C   UNL     1       1.920  14.212  19.877  0.00  0.00    +0.000 A 
ATOM     14  C   UNL     1       1.768  12.849  20.172  0.00  0.00    +0.000 A 
ATOM     15  C   UNL     1       0.595  12.228  19.722  0.00  0.00    +0.000 A 
ENDBRANCH   4   7
BRANCH   1  17
ATOM     16  O   UNL     1       2.349   5.270  17.855  0.00  0.00    +0.000 OA
ATOM     17  C   UNL     1       3.032   6.243  18.157  0.00  0.00    +0.000 C 
ATOM     18  N   UNL     1       4.407   6.231  18.158  0.00  0.00    +0.000 N 
ATOM     19  H   UNL     1       4.905   6.973  18.631  0.00  0.00    +0.000 HD
BRANCH  18  20
ATOM     20  C   UNL     1       5.099   4.971  17.981  0.00  0.00    +0.000 C 
BRANCH  20  21
ATOM     21  C   UNL     1       5.757   4.888  16.639  0.00  0.00    +0.000 A 
ATOM     22  C   UNL     1       5.207   4.115  15.609  0.00  0.00    +0.000 A 
ATOM     23  C   UNL     1       5.862   4.024  14.389  0.00  0.00    +0.000 A 
ATOM     24  C   UNL     1       7.052   4.714  14.230  0.00  0.00    +0.000 A 
ATOM     25  N   UNL     1       7.614   5.471  15.195  0.00  0.00    +0.000 NA
ATOM     26  C   UNL     1       6.959   5.537  16.379  0.00  0.00    +0.000 A 
ENDBRANCH  20  21
ENDBRANCH  18  20
ENDBRANCH   1  17
TORSDOF 4
ENDMDL
MODEL 7
REMARK VINA RESULT:      -8.1      1.943      2.639
REMARK  Name = 
REMARK  4 active torsions:
REMARK  status: ('A' for Active; 'I' for Inactive)
REMARK    1  A    between atoms: C_2  and  C_11
REMARK    2  A    between atoms: N_3  and  C_4
REMARK    3  A    between atoms: C_4  and  C_5
REMARK    4  A    between atoms: C_14  and  N_15
REMARK                            x       y       z     vdW  Elec       q    Type
REMARK                         _______ _______ _______ _____ _____    ______ ____
ROOT
ATOM      1  C   UNL     1       2.354   6.740  18.878  0.00  0.00    +0.000 A 
ATOM      2  C   UNL     1       1.941   6.438  20.179  0.00  0.00    +0.000 A 
ATOM      3  C   UNL     1       1.430   7.439  20.986  0.00  0.00    +0.000 A 
ATOM      4  C   UNL     1       1.306   8.747  20.493  0.00  0.00    +0.000 A 
ATOM      5  C   UNL     1       1.629   9.055  19.171  0.00  0.00    +0.000 A 
ATOM      6  C   UNL     1       2.178   8.038  18.365  0.00  0.00    +0.000 A 
ENDROOT
BRANCH   4   7
ATOM      7  N   UNL     1       0.910   9.725  21.437  0.00  0.00    +0.000 N 
ATOM      8  C   UNL     1       0.893   9.460  22.795  0.00  0.00    +0.000 A 
ATOM      9  N   UNL     1      -0.067  10.092  23.420  0.00  0.00    +0.000 NA
ATOM     10  C   UNL     1      -0.663  10.851  22.450  0.00  0.00    +0.000 A 
ATOM     11  C   UNL     1      -1.830  11.621  22.544  0.00  0.00    +0.000 A 
ATOM     12  C   UNL     1      -2.251  12.341  21.424  0.00  0.00    +0.000 A 
ATOM     13  C   UNL     1      -1.500  12.327  20.247  0.00  0.00    +0.000 A 
ATOM     14  C   UNL     1      -0.352  11.531  20.117  0.00  0.00    +0.000 A 
ATOM     15  C   UNL     1       0.020  10.766  21.231  0.00  0.00    +0.000 A 
ENDBRANCH   4   7
BRANCH   1  17
ATOM     16  O   UNL     1       2.296   4.752  17.629  0.00  0.00    +0.000 OA
ATOM     17  C   UNL     1       2.993   5.626  18.133  0.00  0.00    +0.000 C 
ATOM     18  N   UNL     1       4.368   5.582  18.147  0.00  0.00    +0.000 N 
ATOM     19  H   UNL     1       4.873   6.198  18.769  0.00  0.00    +0.000 HD
BRANCH  18  20
ATOM     20  C   UNL     1       5.037   4.369  17.722  0.00  0.00    +0.000 C 
BRANCH  20  21
ATOM     21  C   UNL     1       5.739   4.557  16.414  0.00  0.00    +0.000 A 
ATOM     22  C   UNL     1       5.249   3.978  15.238  0.00  0.00    +0.000 A 
ATOM     23  C   UNL     1       5.945   4.135  14.048  0.00  0.00    +0.000 A 
ATOM     24  C   UNL     1       7.115   4.875  14.065  0.00  0.00    +0.000 A 
ATOM     25  N   UNL     1       7.621   5.452  15.175  0.00  0.00    +0.000 NA
ATOM     26  C   UNL     1       6.927   5.276  16.325  0.00  0.00    +0.000 A 
ENDBRANCH  20  21
ENDBRANCH  18  20
ENDBRANCH   1  17
TORSDOF 4
ENDMDL
MODEL 8
REMARK VINA RESULT:      -8.1      2.574      8.644
REMARK  Name = 
REMARK  4 active torsions:
REMARK  status: ('A' for Active; 'I' for Inactive)
REMARK    1  A    between atoms: C_2  and  C_11
REMARK    2  A    between atoms: N_3  and  C_4
REMARK    3  A    between atoms: C_4  and  C_5
REMARK    4  A    between atoms: C_14  and  N_15
REMARK                            x       y       z     vdW  Elec       q    Type
REMARK                         _______ _______ _______ _____ _____    ______ ____
ROOT
ATOM      1  C   UNL     1       1.165   9.229  19.634  0.00  0.00    +0.000 A 
ATOM      2  C   UNL     1       1.767   8.754  18.466  0.00  0.00    +0.000 A 
ATOM      3  C   UNL     1       2.398   7.523  18.471  0.00  0.00    +0.000 A 
ATOM      4  C   UNL     1       2.413   6.743  19.638  0.00  0.00    +0.000 A 
ATOM      5  C   UNL     1       1.745   7.156  20.791  0.00  0.00    +0.000 A 
ATOM      6  C   UNL     1       1.131   8.425  20.788  0.00  0.00    +0.000 A 
ENDROOT
BRANCH   4   7
ATOM      7  N   UNL     1       3.204   5.571  19.585  0.00  0.00    +0.000 N 
ATOM      8  C   UNL     1       4.555   5.617  19.293  0.00  0.00    +0.000 A 
ATOM      9  N   UNL     1       4.963   4.570  18.624  0.00  0.00    +0.000 NA
ATOM     10  C   UNL     1       3.855   3.773  18.528  0.00  0.00    +0.000 A 
ATOM     11  C   UNL     1       3.696   2.589  17.796  0.00  0.00    +0.000 A 
ATOM     12  C   UNL     1       2.472   1.920  17.859  0.00  0.00    +0.000 A 
ATOM     13  C   UNL     1       1.441   2.400  18.669  0.00  0.00    +0.000 A 
ATOM     14  C   UNL     1       1.563   3.606  19.377  0.00  0.00    +0.000 A 
ATOM     15  C   UNL     1       2.776   4.296  19.252  0.00  0.00    +0.000 A 
ENDBRANCH   4   7
BRANCH   1  17
ATOM     16  O   UNL     1       0.530  11.283  20.580  0.00  0.00    +0.000 OA
ATOM     17  C   UNL     1       0.617  10.607  19.560  0.00  0.00    +0.000 C 
ATOM     18  N   UNL     1       0.128  11.013  18.340  0.00  0.00    +0.000 N 
ATOM     19  H   UNL     1       0.021  10.331  17.602  0.00  0.00    +0.000 HD
BRANCH  18  20
ATOM     20  C   UNL     1      -0.697  12.202  18.274  0.00  0.00    +0.000 C 
BRANCH  20  21
ATOM     21  C   UNL     1      -2.128  11.865  17.994  0.00  0.00    +0.000 A 
ATOM     22  C   UNL     1      -3.120  12.051  18.965  0.00  0.00    +0.000 A 
ATOM     23  C   UNL     1      -4.431  11.690  18.691  0.00  0.00    +0.000 A 
ATOM     24  C   UNL     1      -4.718  11.153  17.447  0.00  0.00    +0.000 A 
ATOM     25  N   UNL     1      -3.793  10.959  16.483  0.00  0.00    +0.000 NA
ATOM     26  C   UNL     1      -2.520  11.314  16.779  0.00  0.00    +0.000 A 
ENDBRANCH  20  21
ENDBRANCH  18  20
ENDBRANCH   1  17
TORSDOF 4
ENDMDL
MODEL 9
REMARK VINA RESULT:      -8.1      1.635      1.950
REMARK  Name = 
REMARK  4 active torsions:
REMARK  status: ('A' for Active; 'I' for Inactive)
REMARK    1  A    between atoms: C_2  and  C_11
REMARK    2  A    between atoms: N_3  and  C_4
REMARK    3  A    between atoms: C_4  and  C_5
REMARK    4  A    between atoms: C_14  and  N_15
REMARK                            x       y       z     vdW  Elec       q    Type
REMARK                         _______ _______ _______ _____ _____    ______ ____
ROOT
ATOM      1  C   UNL     1       2.058   7.768  19.149  0.00  0.00    +0.000 A 
ATOM      2  C   UNL     1       1.945   8.522  17.978  0.00  0.00    +0.000 A 
ATOM      3  C   UNL     1       1.143   9.649  17.963  0.00  0.00    +0.000 A 
ATOM      4  C   UNL     1       0.464  10.046  19.125  0.00  0.00    +0.000 A 
ATOM      5  C   UNL     1       0.629   9.360  20.329  0.00  0.00    +0.000 A 
ATOM      6  C   UNL     1       1.423   8.196  20.329  0.00  0.00    +0.000 A 
ENDROOT
BRANCH   4   7
ATOM      7  N   UNL     1      -0.441  11.123  18.971  0.00  0.00    +0.000 N 
ATOM      8  C   UNL     1      -0.505  12.157  19.889  0.00  0.00    +0.000 A 
ATOM      9  N   UNL     1      -1.716  12.633  20.028  0.00  0.00    +0.000 NA
ATOM     10  C   UNL     1      -2.464  11.933  19.122  0.00  0.00    +0.000 A 
ATOM     11  C   UNL     1      -3.854  11.950  18.945  0.00  0.00    +0.000 A 
ATOM     12  C   UNL     1      -4.412  11.163  17.935  0.00  0.00    +0.000 A 
ATOM     13  C   UNL     1      -3.595  10.409  17.090  0.00  0.00    +0.000 A 
ATOM     14  C   UNL     1      -2.206  10.344  17.275  0.00  0.00    +0.000 A 
ATOM     15  C   UNL     1      -1.671  11.090  18.334  0.00  0.00    +0.000 A 
ENDBRANCH   4   7
BRANCH   1  17
ATOM     16  O   UNL     1       3.131   5.879  20.041  0.00  0.00    +0.000 OA
ATOM     17  C   UNL     1       2.847   6.515  19.032  0.00  0.00    +0.000 C 
ATOM     18  N   UNL     1       3.317   6.195  17.779  0.00  0.00    +0.000 N 
ATOM     19  H   UNL     1       3.242   6.877  17.037  0.00  0.00    +0.000 HD
BRANCH  18  20
ATOM     20  C   UNL     1       4.343   5.180  17.651  0.00  0.00    +0.000 C 
BRANCH  20  21
ATOM     21  C   UNL     1       5.687   5.703  18.049  0.00  0.00    +0.000 A 
ATOM     22  C   UNL     1       6.314   6.721  17.321  0.00  0.00    +0.000 A 
ATOM     23  C   UNL     1       7.578   7.156  17.689  0.00  0.00    +0.000 A 
ATOM     24  C   UNL     1       8.184   6.562  18.784  0.00  0.00    +0.000 A 
ATOM     25  N   UNL     1       7.614   5.581  19.515  0.00  0.00    +0.000 NA
ATOM     26  C   UNL     1       6.383   5.169  19.129  0.00  0.00    +0.000 A 
ENDBRANCH  20  21
ENDBRANCH  18  20
ENDBRANCH   1  17
TORSDOF 4
ENDMDL
