MODEL 1
REMARK VINA RESULT:      -9.5      0.000      0.000
REMARK  Name = 
REMARK  3 active torsions:
REMARK  status: ('A' for Active; 'I' for Inactive)
REMARK    1  A    between atoms: C_2  and  C_3
REMARK    2  A    between atoms: C_3  and  C_4
REMARK    3  A    between atoms: C_4  and  C_5
REMARK                            x       y       z     vdW  Elec       q    Type
REMARK                         _______ _______ _______ _____ _____    ______ ____
ROOT
ATOM      1  O   UNL     1       8.354   6.941  18.973  0.00  0.00    +0.000 OA
ATOM      2  C   UNL     1       7.839   7.348  17.937  0.00  0.00    +0.000 C 
ATOM      3  N   UNL     1       7.810   8.647  17.461  0.00  0.00    +0.000 N 
ATOM      4  C   UNL     1       8.437   9.678  18.122  0.00  0.00    +0.000 A 
ATOM      5  N   UNL     1       9.126   9.639  19.236  0.00  0.00    +0.000 NA
ATOM      6  C   UNL     1       9.569  10.917  19.460  0.00  0.00    +0.000 A 
ATOM      7  C   UNL     1      10.353  11.428  20.504  0.00  0.00    +0.000 A 
ATOM      8  C   UNL     1      10.678  12.791  20.495  0.00  0.00    +0.000 A 
ATOM      9  C   UNL     1      10.230  13.625  19.468  0.00  0.00    +0.000 A 
ATOM     10  C   UNL     1       9.441  13.134  18.420  0.00  0.00    +0.000 A 
ATOM     11  C   UNL     1       9.134  11.771  18.456  0.00  0.00    +0.000 A 
ATOM     12  N   UNL     1       8.408  10.959  17.621  0.00  0.00    +0.000 N 
ATOM     13  H   UNL     1       7.323   8.843  16.599  0.00  0.00    +0.000 HD
ATOM     14  H   UNL     1       7.943  11.252  16.778  0.00  0.00    +0.000 HD
ENDROOT
BRANCH   2  15
ATOM     15  C   UNL     1       7.133   6.366  17.017  0.00  0.00    +0.000 C 
BRANCH  15  16
ATOM     16  C   UNL     1       5.620   6.580  16.928  0.00  0.00    +0.000 C 
BRANCH  16  17
ATOM     17  C   UNL     1       4.772   5.507  17.640  0.00  0.00    +0.000 C 
ATOM     18  C   UNL     1       3.534   6.095  18.319  0.00  0.00    +0.000 C 
ATOM     19  C   UNL     1       2.679   5.004  18.898  0.00  0.00    +0.000 A 
ATOM     20  C   UNL     1       1.903   5.226  20.042  0.00  0.00    +0.000 A 
ATOM     21  C   UNL     1       1.061   4.223  20.521  0.00  0.00    +0.000 A 
ATOM     22  C   UNL     1       0.970   3.005  19.847  0.00  0.00    +0.000 A 
ATOM     23  C   UNL     1       1.729   2.783  18.696  0.00  0.00    +0.000 A 
ATOM     24  C   UNL     1       2.593   3.777  18.236  0.00  0.00    +0.000 A 
ATOM     25  N   UNL     1       3.367   3.557  17.092  0.00  0.00    +0.000 N 
ATOM     26  C   UNL     1       4.363   4.401  16.667  0.00  0.00    +0.000 C 
ATOM     27  O   UNL     1       4.954   4.184  15.611  0.00  0.00    +0.000 OA
ATOM     28  H   UNL     1       3.202   2.740  16.520  0.00  0.00    +0.000 HD
ENDBRANCH  16  17
ENDBRANCH  15  16
ENDBRANCH   2  15
TORSDOF 3
ENDMDL
MODEL 2
REMARK VINA RESULT:      -9.5      1.679      2.385
REMARK  Name = 
REMARK  3 active torsions:
REMARK  status: ('A' for Active; 'I' for Inactive)
REMARK    1  A    between atoms: C_2  and  C_3
REMARK    2  A    between atoms: C_3  and  C_4
REMARK    3  A    between atoms: C_4  and  C_5
REMARK                            x       y       z     vdW  Elec       q    Type
REMARK                         _______ _______ _______ _____ _____    ______ ____
ROOT
ATOM      1  O   UNL     1       9.104   9.066  19.161  0.00  0.00    +0.000 OA
ATOM      2  C   UNL     1       8.396   9.414  18.222  0.00  0.00    +0.000 C 
ATOM      3  N   UNL     1       8.321  10.665  17.638  0.00  0.00    +0.000 N 
ATOM      4  C   UNL     1       9.120  11.708  18.047  0.00  0.00    +0.000 A 
ATOM      5  N   UNL     1      10.031  11.722  18.989  0.00  0.00    +0.000 NA
ATOM      6  C   UNL     1      10.566  12.984  18.987  0.00  0.00    +0.000 A 
ATOM      7  C   UNL     1      11.579  13.534  19.788  0.00  0.00    +0.000 A 
ATOM      8  C   UNL     1      11.952  14.867  19.576  0.00  0.00    +0.000 A 
ATOM      9  C   UNL     1      11.330  15.636  18.590  0.00  0.00    +0.000 A 
ATOM     10  C   UNL     1      10.313  15.106  17.785  0.00  0.00    +0.000 A 
ATOM     11  C   UNL     1       9.962  13.774  18.019  0.00  0.00    +0.000 A 
ATOM     12  N   UNL     1       9.039  12.939  17.440  0.00  0.00    +0.000 N 
ATOM     13  H   UNL     1       7.668  10.817  16.883  0.00  0.00    +0.000 HD
ATOM     14  H   UNL     1       8.416  13.187  16.689  0.00  0.00    +0.000 HD
ENDROOT
BRANCH   2  15
ATOM     15  C   UNL     1       7.465   8.401  17.573  0.00  0.00    +0.000 C 
BRANCH  15  16
ATOM     16  C   UNL     1       7.859   6.946  17.833  0.00  0.00    +0.000 C 
BRANCH  16  17
ATOM     17  C   UNL     1       6.673   5.982  18.044  0.00  0.00    +0.000 C 
ATOM     18  C   UNL     1       5.353   6.558  17.529  0.00  0.00    +0.000 C 
ATOM     19  C   UNL     1       4.251   5.543  17.648  0.00  0.00    +0.000 A 
ATOM     20  C   UNL     1       2.926   5.941  17.863  0.00  0.00    +0.000 A 
ATOM     21  C   UNL     1       1.908   4.988  17.898  0.00  0.00    +0.000 A 
ATOM     22  C   UNL     1       2.205   3.640  17.694  0.00  0.00    +0.000 A 
ATOM     23  C   UNL     1       3.522   3.239  17.462  0.00  0.00    +0.000 A 
ATOM     24  C   UNL     1       4.542   4.190  17.458  0.00  0.00    +0.000 A 
ATOM     25  N   UNL     1       5.867   3.795  17.242  0.00  0.00    +0.000 N 
ATOM     26  C   UNL     1       6.948   4.628  17.390  0.00  0.00    +0.000 C 
ATOM     27  O   UNL     1       8.080   4.235  17.111  0.00  0.00    +0.000 OA
ATOM     28  H   UNL     1       6.071   2.848  16.952  0.00  0.00    +0.000 HD
ENDBRANCH  16  17
ENDBRANCH  15  16
ENDBRANCH   2  15
TORSDOF 3
ENDMDL
MODEL 3
REMARK VINA RESULT:      -9.4      1.095      1.620
REMARK  Name = 
REMARK  3 active torsions:
REMARK  status: ('A' for Active; 'I' for Inactive)
REMARK    1  A    between atoms: C_2  and  C_3
REMARK    2  A    between atoms: C_3  and  C_4
REMARK    3  A    between atoms: C_4  and  C_5
REMARK                            x       y       z     vdW  Elec       q    Type
REMARK                         _______ _______ _______ _____ _____    ______ ____
ROOT
ATOM      1  O   UNL     1       7.329   7.674  17.114  0.00  0.00    +0.000 OA
ATOM      2  C   UNL     1       7.859   7.282  18.149  0.00  0.00    +0.000 C 
ATOM      3  N   UNL     1       8.627   8.015  19.036  0.00  0.00    +0.000 N 
ATOM      4  C   UNL     1       8.854   9.362  18.861  0.00  0.00    +0.000 A 
ATOM      5  N   UNL     1       8.425  10.147  17.904  0.00  0.00    +0.000 NA
ATOM      6  C   UNL     1       8.896  11.401  18.197  0.00  0.00    +0.000 A 
ATOM      7  C   UNL     1       8.726  12.611  17.507  0.00  0.00    +0.000 A 
ATOM      8  C   UNL     1       9.314  13.770  18.029  0.00  0.00    +0.000 A 
ATOM      9  C   UNL     1      10.055  13.725  19.212  0.00  0.00    +0.000 A 
ATOM     10  C   UNL     1      10.242  12.525  19.911  0.00  0.00    +0.000 A 
ATOM     11  C   UNL     1       9.644  11.386  19.366  0.00  0.00    +0.000 A 
ATOM     12  N   UNL     1       9.608  10.073  19.765  0.00  0.00    +0.000 N 
ATOM     13  H   UNL     1       9.025   7.553  19.839  0.00  0.00    +0.000 HD
ATOM     14  H   UNL     1      10.051   9.698  20.587  0.00  0.00    +0.000 HD
ENDROOT
BRANCH   2  15
ATOM     15  C   UNL     1       7.692   5.831  18.571  0.00  0.00    +0.000 C 
BRANCH  15  16
ATOM     16  C   UNL     1       7.033   4.950  17.507  0.00  0.00    +0.000 C 
BRANCH  16  17
ATOM     17  C   UNL     1       5.688   4.325  17.927  0.00  0.00    +0.000 C 
ATOM     18  C   UNL     1       4.917   5.202  18.914  0.00  0.00    +0.000 C 
ATOM     19  C   UNL     1       3.566   4.611  19.205  0.00  0.00    +0.000 A 
ATOM     20  C   UNL     1       2.950   4.799  20.447  0.00  0.00    +0.000 A 
ATOM     21  C   UNL     1       1.666   4.305  20.672  0.00  0.00    +0.000 A 
ATOM     22  C   UNL     1       0.982   3.644  19.651  0.00  0.00    +0.000 A 
ATOM     23  C   UNL     1       1.586   3.467  18.403  0.00  0.00    +0.000 A 
ATOM     24  C   UNL     1       2.882   3.936  18.191  0.00  0.00    +0.000 A 
ATOM     25  N   UNL     1       3.499   3.751  16.950  0.00  0.00    +0.000 N 
ATOM     26  C   UNL     1       4.822   4.022  16.704  0.00  0.00    +0.000 C 
ATOM     27  O   UNL     1       5.281   3.906  15.569  0.00  0.00    +0.000 OA
ATOM     28  H   UNL     1       2.963   3.404  16.166  0.00  0.00    +0.000 HD
ENDBRANCH  16  17
ENDBRANCH  15  16
ENDBRANCH   2  15
TORSDOF 3
ENDMDL
MODEL 4
REMARK VINA RESULT:      -9.4      1.340      1.912
REMARK  Name = 
REMARK  3 active torsions:
REMARK  status: ('A' for Active; 'I' for Inactive)
REMARK    1  A    between atoms: C_2  and  C_3
REMARK    2  A    between atoms: C_3  and  C_4
REMARK    3  A    between atoms: C_4  and  C_5
REMARK                            x       y       z     vdW  Elec       q    Type
REMARK                         _______ _______ _______ _____ _____    ______ ____
ROOT
ATOM      1  O   UNL     1       7.530   7.896  16.933  0.00  0.00    +0.000 OA
ATOM      2  C   UNL     1       7.905   7.454  18.014  0.00  0.00    +0.000 C 
ATOM      3  N   UNL     1       8.602   8.123  19.004  0.00  0.00    +0.000 N 
ATOM      4  C   UNL     1       8.929   9.455  18.892  0.00  0.00    +0.000 A 
ATOM      5  N   UNL     1       8.668  10.283  17.909  0.00  0.00    +0.000 NA
ATOM      6  C   UNL     1       9.174  11.499  18.287  0.00  0.00    +0.000 A 
ATOM      7  C   UNL     1       9.162  12.729  17.612  0.00  0.00    +0.000 A 
ATOM      8  C   UNL     1       9.751  13.840  18.229  0.00  0.00    +0.000 A 
ATOM      9  C   UNL     1      10.339  13.728  19.491  0.00  0.00    +0.000 A 
ATOM     10  C   UNL     1      10.367  12.507  20.178  0.00  0.00    +0.000 A 
ATOM     11  C   UNL     1       9.772  11.417  19.538  0.00  0.00    +0.000 A 
ATOM     12  N   UNL     1       9.609  10.103  19.897  0.00  0.00    +0.000 N 
ATOM     13  H   UNL     1       8.871   7.623  19.839  0.00  0.00    +0.000 HD
ATOM     14  H   UNL     1       9.925   9.687  20.757  0.00  0.00    +0.000 HD
ENDROOT
BRANCH   2  15
ATOM     15  C   UNL     1       7.602   6.009  18.377  0.00  0.00    +0.000 C 
BRANCH  15  16
ATOM     16  C   UNL     1       6.989   5.201  17.232  0.00  0.00    +0.000 C 
BRANCH  16  17
ATOM     17  C   UNL     1       5.567   4.668  17.505  0.00  0.00    +0.000 C 
ATOM     18  C   UNL     1       5.364   4.263  18.965  0.00  0.00    +0.000 C 
ATOM     19  C   UNL     1       3.937   3.861  19.209  0.00  0.00    +0.000 A 
ATOM     20  C   UNL     1       3.614   2.902  20.176  0.00  0.00    +0.000 A 
ATOM     21  C   UNL     1       2.279   2.596  20.438  0.00  0.00    +0.000 A 
ATOM     22  C   UNL     1       1.261   3.264  19.755  0.00  0.00    +0.000 A 
ATOM     23  C   UNL     1       1.577   4.234  18.801  0.00  0.00    +0.000 A 
ATOM     24  C   UNL     1       2.914   4.516  18.520  0.00  0.00    +0.000 A 
ATOM     25  N   UNL     1       3.239   5.475  17.555  0.00  0.00    +0.000 N 
ATOM     26  C   UNL     1       4.512   5.695  17.092  0.00  0.00    +0.000 C 
ATOM     27  O   UNL     1       4.737   6.606  16.297  0.00  0.00    +0.000 OA
ATOM     28  H   UNL     1       2.515   6.062  17.162  0.00  0.00    +0.000 HD
ENDBRANCH  16  17
ENDBRANCH  15  16
ENDBRANCH   2  15
TORSDOF 3
ENDMDL
MODEL 5
REMARK VINA RESULT:      -9.3      4.694      7.350
REMARK  Name = 
REMARK  3 active torsions:
REMARK  status: ('A' for Active; 'I' for Inactive)
REMARK    1  A    between atoms: C_2  and  C_3
REMARK    2  A    between atoms: C_3  and  C_4
REMARK    3  A    between atoms: C_4  and  C_5
REMARK                            x       y       z     vdW  Elec       q    Type
REMARK                         _______ _______ _______ _____ _____    ______ ____
ROOT
ATOM      1  O   UNL     1       3.455   6.493  17.485  0.00  0.00    +0.000 OA
ATOM      2  C   UNL     1       3.459   5.730  18.446  0.00  0.00    +0.000 C 
ATOM      3  N   UNL     1       2.928   5.952  19.704  0.00  0.00    +0.000 N 
ATOM      4  C   UNL     1       2.253   7.111  20.015  0.00  0.00    +0.000 A 
ATOM      5  N   UNL     1       2.003   8.144  19.248  0.00  0.00    +0.000 NA
ATOM      6  C   UNL     1       1.277   9.022  20.012  0.00  0.00    +0.000 A 
ATOM      7  C   UNL     1       0.748  10.278  19.681  0.00  0.00    +0.000 A 
ATOM      8  C   UNL     1       0.027  10.981  20.656  0.00  0.00    +0.000 A 
ATOM      9  C   UNL     1      -0.159  10.444  21.932  0.00  0.00    +0.000 A 
ATOM     10  C   UNL     1       0.368   9.194  22.283  0.00  0.00    +0.000 A 
ATOM     11  C   UNL     1       1.081   8.517  21.290  0.00  0.00    +0.000 A 
ATOM     12  N   UNL     1       1.720   7.302  21.268  0.00  0.00    +0.000 N 
ATOM     13  H   UNL     1       3.028   5.241  20.412  0.00  0.00    +0.000 HD
ATOM     14  H   UNL     1       1.776   6.657  22.038  0.00  0.00    +0.000 HD
ENDROOT
BRANCH   2  15
ATOM     15  C   UNL     1       4.106   4.361  18.311  0.00  0.00    +0.000 C 
BRANCH  15  16
ATOM     16  C   UNL     1       5.636   4.395  18.348  0.00  0.00    +0.000 C 
BRANCH  16  17
ATOM     17  C   UNL     1       6.319   4.319  16.968  0.00  0.00    +0.000 C 
ATOM     18  C   UNL     1       5.321   4.079  15.834  0.00  0.00    +0.000 C 
ATOM     19  C   UNL     1       6.014   4.128  14.501  0.00  0.00    +0.000 A 
ATOM     20  C   UNL     1       5.552   3.365  13.422  0.00  0.00    +0.000 A 
ATOM     21  C   UNL     1       6.164   3.480  12.174  0.00  0.00    +0.000 A 
ATOM     22  C   UNL     1       7.220   4.374  11.992  0.00  0.00    +0.000 A 
ATOM     23  C   UNL     1       7.674   5.150  13.061  0.00  0.00    +0.000 A 
ATOM     24  C   UNL     1       7.080   5.011  14.315  0.00  0.00    +0.000 A 
ATOM     25  N   UNL     1       7.538   5.773  15.395  0.00  0.00    +0.000 N 
ATOM     26  C   UNL     1       7.135   5.582  16.693  0.00  0.00    +0.000 C 
ATOM     27  O   UNL     1       7.522   6.338  17.583  0.00  0.00    +0.000 OA
ATOM     28  H   UNL     1       8.201   6.521  15.240  0.00  0.00    +0.000 HD
ENDBRANCH  16  17
ENDBRANCH  15  16
ENDBRANCH   2  15
TORSDOF 3
ENDMDL
MODEL 6
REMARK VINA RESULT:      -9.1      1.272      1.742
REMARK  Name = 
REMARK  3 active torsions:
REMARK  status: ('A' for Active; 'I' for Inactive)
REMARK    1  A    between atoms: C_2  and  C_3
REMARK    2  A    between atoms: C_3  and  C_4
REMARK    3  A    between atoms: C_4  and  C_5
REMARK                            x       y       z     vdW  Elec       q    Type
REMARK                         _______ _______ _______ _____ _____    ______ ____
ROOT
ATOM      1  O   UNL     1       8.191   6.592  18.947  0.00  0.00    +0.000 OA
ATOM      2  C   UNL     1       7.698   6.977  17.892  0.00  0.00    +0.000 C 
ATOM      3  N   UNL     1       7.686   8.264  17.384  0.00  0.00    +0.000 N 
ATOM      4  C   UNL     1       8.308   9.307  18.031  0.00  0.00    +0.000 A 
ATOM      5  N   UNL     1       8.976   9.291  19.158  0.00  0.00    +0.000 NA
ATOM      6  C   UNL     1       9.423  10.571  19.359  0.00  0.00    +0.000 A 
ATOM      7  C   UNL     1      10.190  11.104  20.405  0.00  0.00    +0.000 A 
ATOM      8  C   UNL     1      10.524  12.464  20.368  0.00  0.00    +0.000 A 
ATOM      9  C   UNL     1      10.101  13.275  19.314  0.00  0.00    +0.000 A 
ATOM     10  C   UNL     1       9.328  12.763  18.263  0.00  0.00    +0.000 A 
ATOM     11  C   UNL     1       9.011  11.404  18.327  0.00  0.00    +0.000 A 
ATOM     12  N   UNL     1       8.296  10.575  17.498  0.00  0.00    +0.000 N 
ATOM     13  H   UNL     1       7.216   8.442  16.509  0.00  0.00    +0.000 HD
ATOM     14  H   UNL     1       7.848  10.850  16.640  0.00  0.00    +0.000 HD
ENDROOT
BRANCH   2  15
ATOM     15  C   UNL     1       7.002   5.976  16.982  0.00  0.00    +0.000 C 
BRANCH  15  16
ATOM     16  C   UNL     1       5.705   6.502  16.364  0.00  0.00    +0.000 C 
BRANCH  16  17
ATOM     17  C   UNL     1       4.435   5.724  16.764  0.00  0.00    +0.000 C 
ATOM     18  C   UNL     1       4.754   4.375  17.407  0.00  0.00    +0.000 C 
ATOM     19  C   UNL     1       3.496   3.705  17.885  0.00  0.00    +0.000 A 
ATOM     20  C   UNL     1       3.388   2.310  17.913  0.00  0.00    +0.000 A 
ATOM     21  C   UNL     1       2.240   1.709  18.428  0.00  0.00    +0.000 A 
ATOM     22  C   UNL     1       1.208   2.495  18.940  0.00  0.00    +0.000 A 
ATOM     23  C   UNL     1       1.317   3.888  18.931  0.00  0.00    +0.000 A 
ATOM     24  C   UNL     1       2.453   4.487  18.388  0.00  0.00    +0.000 A 
ATOM     25  N   UNL     1       2.564   5.882  18.361  0.00  0.00    +0.000 N 
ATOM     26  C   UNL     1       3.557   6.559  17.697  0.00  0.00    +0.000 C 
ATOM     27  O   UNL     1       3.637   7.783  17.778  0.00  0.00    +0.000 OA
ATOM     28  H   UNL     1       1.892   6.451  18.857  0.00  0.00    +0.000 HD
ENDBRANCH  16  17
ENDBRANCH  15  16
ENDBRANCH   2  15
TORSDOF 3
ENDMDL
MODEL 7
REMARK VINA RESULT:      -9.1      1.482      1.780
REMARK  Name = 
REMARK  3 active torsions:
REMARK  status: ('A' for Active; 'I' for Inactive)
REMARK    1  A    between atoms: C_2  and  C_3
REMARK    2  A    between atoms: C_3  and  C_4
REMARK    3  A    between atoms: C_4  and  C_5
REMARK                            x       y       z     vdW  Elec       q    Type
REMARK                         _______ _______ _______ _____ _____    ______ ____
ROOT
ATOM      1  O   UNL     1       8.172   6.643  18.897  0.00  0.00    +0.000 OA
ATOM      2  C   UNL     1       7.576   7.059  17.909  0.00  0.00    +0.000 C 
ATOM      3  N   UNL     1       7.534   8.356  17.431  0.00  0.00    +0.000 N 
ATOM      4  C   UNL     1       8.242   9.375  18.028  0.00  0.00    +0.000 A 
ATOM      5  N   UNL     1       9.026   9.323  19.076  0.00  0.00    +0.000 NA
ATOM      6  C   UNL     1       9.516  10.591  19.253  0.00  0.00    +0.000 A 
ATOM      7  C   UNL     1      10.402  11.087  20.221  0.00  0.00    +0.000 A 
ATOM      8  C   UNL     1      10.755  12.442  20.176  0.00  0.00    +0.000 A 
ATOM      9  C   UNL     1      10.237  13.283  19.189  0.00  0.00    +0.000 A 
ATOM     10  C   UNL     1       9.346  12.807  18.218  0.00  0.00    +0.000 A 
ATOM     11  C   UNL     1       9.013  11.452  18.288  0.00  0.00    +0.000 A 
ATOM     12  N   UNL     1       8.197  10.654  17.525  0.00  0.00    +0.000 N 
ATOM     13  H   UNL     1       6.977   8.562  16.615  0.00  0.00    +0.000 HD
ATOM     14  H   UNL     1       7.665  10.955  16.725  0.00  0.00    +0.000 HD
ENDROOT
BRANCH   2  15
ATOM     15  C   UNL     1       6.768   6.090  17.060  0.00  0.00    +0.000 C 
BRANCH  15  16
ATOM     16  C   UNL     1       5.365   6.594  16.714  0.00  0.00    +0.000 C 
BRANCH  16  17
ATOM     17  C   UNL     1       4.223   5.922  17.502  0.00  0.00    +0.000 C 
ATOM     18  C   UNL     1       4.738   4.970  18.582  0.00  0.00    +0.000 C 
ATOM     19  C   UNL     1       3.598   4.428  19.398  0.00  0.00    +0.000 A 
ATOM     20  C   UNL     1       3.664   3.153  19.971  0.00  0.00    +0.000 A 
ATOM     21  C   UNL     1       2.627   2.698  20.784  0.00  0.00    +0.000 A 
ATOM     22  C   UNL     1       1.533   3.523  21.049  0.00  0.00    +0.000 A 
ATOM     23  C   UNL     1       1.469   4.803  20.494  0.00  0.00    +0.000 A 
ATOM     24  C   UNL     1       2.493   5.244  19.657  0.00  0.00    +0.000 A 
ATOM     25  N   UNL     1       2.430   6.518  19.084  0.00  0.00    +0.000 N 
ATOM     26  C   UNL     1       3.297   6.969  18.120  0.00  0.00    +0.000 C 
ATOM     27  O   UNL     1       3.229   8.128  17.714  0.00  0.00    +0.000 OA
ATOM     28  H   UNL     1       1.718   7.172  19.383  0.00  0.00    +0.000 HD
ENDBRANCH  16  17
ENDBRANCH  15  16
ENDBRANCH   2  15
TORSDOF 3
ENDMDL
MODEL 8
REMARK VINA RESULT:      -9.1      1.621      2.545
REMARK  Name = 
REMARK  3 active torsions:
REMARK  status: ('A' for Active; 'I' for Inactive)
REMARK    1  A    between atoms: C_2  and  C_3
REMARK    2  A    between atoms: C_3  and  C_4
REMARK    3  A    between atoms: C_4  and  C_5
REMARK                            x       y       z     vdW  Elec       q    Type
REMARK                         _______ _______ _______ _____ _____    ______ ____
ROOT
ATOM      1  O   UNL     1       7.594   9.845  17.472  0.00  0.00    +0.000 OA
ATOM      2  C   UNL     1       8.356   9.259  18.235  0.00  0.00    +0.000 C 
ATOM      3  N   UNL     1       9.396   9.797  18.970  0.00  0.00    +0.000 N 
ATOM      4  C   UNL     1       9.675  11.145  18.956  0.00  0.00    +0.000 A 
ATOM      5  N   UNL     1       9.064  12.102  18.301  0.00  0.00    +0.000 NA
ATOM      6  C   UNL     1       9.699  13.268  18.644  0.00  0.00    +0.000 A 
ATOM      7  C   UNL     1       9.444  14.585  18.236  0.00  0.00    +0.000 A 
ATOM      8  C   UNL     1      10.246  15.614  18.747  0.00  0.00    +0.000 A 
ATOM      9  C   UNL     1      11.280  15.335  19.644  0.00  0.00    +0.000 A 
ATOM     10  C   UNL     1      11.554  14.025  20.058  0.00  0.00    +0.000 A 
ATOM     11  C   UNL     1      10.737  13.021  19.532  0.00  0.00    +0.000 A 
ATOM     12  N   UNL     1      10.705  11.660  19.708  0.00  0.00    +0.000 N 
ATOM     13  H   UNL     1       9.962   9.187  19.541  0.00  0.00    +0.000 HD
ATOM     14  H   UNL     1      11.326  11.131  20.298  0.00  0.00    +0.000 HD
ENDROOT
BRANCH   2  15
ATOM     15  C   UNL     1       8.194   7.762  18.448  0.00  0.00    +0.000 C 
BRANCH  15  16
ATOM     16  C   UNL     1       7.528   7.040  17.275  0.00  0.00    +0.000 C 
BRANCH  16  17
ATOM     17  C   UNL     1       6.456   6.006  17.675  0.00  0.00    +0.000 C 
ATOM     18  C   UNL     1       5.052   6.417  17.231  0.00  0.00    +0.000 C 
ATOM     19  C   UNL     1       4.060   5.331  17.538  0.00  0.00    +0.000 A 
ATOM     20  C   UNL     1       2.727   5.636  17.833  0.00  0.00    +0.000 A 
ATOM     21  C   UNL     1       1.806   4.610  18.044  0.00  0.00    +0.000 A 
ATOM     22  C   UNL     1       2.206   3.278  17.935  0.00  0.00    +0.000 A 
ATOM     23  C   UNL     1       3.532   2.967  17.624  0.00  0.00    +0.000 A 
ATOM     24  C   UNL     1       4.457   3.995  17.444  0.00  0.00    +0.000 A 
ATOM     25  N   UNL     1       5.790   3.692  17.147  0.00  0.00    +0.000 N 
ATOM     26  C   UNL     1       6.800   4.623  17.123  0.00  0.00    +0.000 C 
ATOM     27  O   UNL     1       7.936   4.300  16.781  0.00  0.00    +0.000 OA
ATOM     28  H   UNL     1       6.055   2.742  16.925  0.00  0.00    +0.000 HD
ENDBRANCH  16  17
ENDBRANCH  15  16
ENDBRANCH   2  15
TORSDOF 3
ENDMDL
MODEL 9
REMARK VINA RESULT:      -9.0      1.172      1.207
REMARK  Name = 
REMARK  3 active torsions:
REMARK  status: ('A' for Active; 'I' for Inactive)
REMARK    1  A    between atoms: C_2  and  C_3
REMARK    2  A    between atoms: C_3  and  C_4
REMARK    3  A    between atoms: C_4  and  C_5
REMARK                            x       y       z     vdW  Elec       q    Type
REMARK                         _______ _______ _______ _____ _____    ______ ____
ROOT
ATOM      1  O   UNL     1       8.428   7.075  18.974  0.00  0.00    +0.000 OA
ATOM      2  C   UNL     1       7.890   7.489  17.953  0.00  0.00    +0.000 C 
ATOM      3  N   UNL     1       7.843   8.792  17.491  0.00  0.00    +0.000 N 
ATOM      4  C   UNL     1       8.477   9.822  18.149  0.00  0.00    +0.000 A 
ATOM      5  N   UNL     1       9.188   9.775  19.249  0.00  0.00    +0.000 NA
ATOM      6  C   UNL     1       9.627  11.054  19.476  0.00  0.00    +0.000 A 
ATOM      7  C   UNL     1      10.428  11.561  20.510  0.00  0.00    +0.000 A 
ATOM      8  C   UNL     1      10.744  12.926  20.508  0.00  0.00    +0.000 A 
ATOM      9  C   UNL     1      10.270  13.767  19.499  0.00  0.00    +0.000 A 
ATOM     10  C   UNL     1       9.463  13.281  18.462  0.00  0.00    +0.000 A 
ATOM     11  C   UNL     1       9.166  11.916  18.490  0.00  0.00    +0.000 A 
ATOM     12  N   UNL     1       8.429  11.106  17.662  0.00  0.00    +0.000 N 
ATOM     13  H   UNL     1       7.337   8.994  16.641  0.00  0.00    +0.000 HD
ATOM     14  H   UNL     1       7.945  11.405  16.831  0.00  0.00    +0.000 HD
ENDROOT
BRANCH   2  15
ATOM     15  C   UNL     1       7.172   6.511  17.037  0.00  0.00    +0.000 C 
BRANCH  15  16
ATOM     16  C   UNL     1       5.647   6.566  17.149  0.00  0.00    +0.000 C 
BRANCH  16  17
ATOM     17  C   UNL     1       5.052   5.731  18.302  0.00  0.00    +0.000 C 
ATOM     18  C   UNL     1       3.542   5.535  18.164  0.00  0.00    +0.000 C 
ATOM     19  C   UNL     1       3.026   4.622  19.241  0.00  0.00    +0.000 A 
ATOM     20  C   UNL     1       1.727   4.761  19.741  0.00  0.00    +0.000 A 
ATOM     21  C   UNL     1       1.243   3.859  20.688  0.00  0.00    +0.000 A 
ATOM     22  C   UNL     1       2.043   2.801  21.119  0.00  0.00    +0.000 A 
ATOM     23  C   UNL     1       3.335   2.647  20.611  0.00  0.00    +0.000 A 
ATOM     24  C   UNL     1       3.828   3.568  19.687  0.00  0.00    +0.000 A 
ATOM     25  N   UNL     1       5.126   3.430  19.184  0.00  0.00    +0.000 N 
ATOM     26  C   UNL     1       5.752   4.376  18.410  0.00  0.00    +0.000 C 
ATOM     27  O   UNL     1       6.867   4.156  17.940  0.00  0.00    +0.000 OA
ATOM     28  H   UNL     1       5.657   2.592  19.380  0.00  0.00    +0.000 HD
ENDBRANCH  16  17
ENDBRANCH  15  16
ENDBRANCH   2  15
TORSDOF 3
ENDMDL
