MODEL 1
REMARK VINA RESULT:      -8.2      0.000      0.000
REMARK  Name = 
REMARK  8 active torsions:
REMARK  status: ('A' for Active; 'I' for Inactive)
REMARK    1  A    between atoms: C_1  and  C_2
REMARK    2  A    between atoms: C_3  and  C_4
REMARK    3  A    between atoms: N_6  and  C_7
REMARK    4  A    between atoms: C_11  and  C_12
REMARK    5  A    between atoms: C_12  and  C_13
REMARK    6  A    between atoms: C_12  and  C_14
REMARK    7  A    between atoms: C_14  and  C_15
REMARK    8  A    between atoms: C_24  and  C_25
REMARK                            x       y       z     vdW  Elec       q    Type
REMARK                         _______ _______ _______ _____ _____    ______ ____
ROOT
ATOM      1  C   UNL     1       2.201   7.644  18.826  0.00  0.00    +0.000 C 
ATOM      2  O   UNL     1       2.118   7.760  20.046  0.00  0.00    +0.000 OA
ATOM      3  N   UNL     1       1.582   8.455  17.891  0.00  0.00    +0.000 N 
ATOM      4  H   UNL     1       1.626   8.166  16.923  0.00  0.00    +0.000 HD
ENDROOT
BRANCH   1   7
ATOM      5  C   UNL     1       1.481   4.666  19.392  0.00  0.00    +0.000 C 
ATOM      6  C   UNL     1       2.646   5.097  18.537  0.00  0.00    +0.000 A 
ATOM      7  C   UNL     1       2.960   6.458  18.309  0.00  0.00    +0.000 A 
ATOM      8  C   UNL     1       4.025   6.800  17.450  0.00  0.00    +0.000 A 
ATOM      9  C   UNL     1       4.787   5.827  16.817  0.00  0.00    +0.000 A 
ATOM     10  C   UNL     1       4.500   4.490  17.044  0.00  0.00    +0.000 A 
ATOM     11  C   UNL     1       3.447   4.100  17.904  0.00  0.00    +0.000 A 
BRANCH  11  12
ATOM     12  C   UNL     1       3.243   2.599  18.038  0.00  0.00    +0.000 C 
ATOM     13  F   UNL     1       3.318   2.106  19.302  0.00  0.00    +0.000 F 
ATOM     14  F   UNL     1       2.031   2.203  17.555  0.00  0.00    +0.000 F 
ATOM     15  F   UNL     1       4.170   1.897  17.324  0.00  0.00    +0.000 F 
ENDBRANCH  11  12
ENDBRANCH   1   7
BRANCH   3  16
ATOM     16  C   UNL     1       0.764   9.578  18.172  0.00  0.00    +0.000 A 
ATOM     17  C   UNL     1       1.080  10.553  19.120  0.00  0.00    +0.000 A 
ATOM     18  C   UNL     1       0.185  11.585  19.411  0.00  0.00    +0.000 A 
ATOM     19  C   UNL     1      -1.040  11.656  18.756  0.00  0.00    +0.000 A 
ATOM     20  C   UNL     1      -1.371  10.713  17.774  0.00  0.00    +0.000 A 
ATOM     21  C   UNL     1      -0.448   9.691  17.475  0.00  0.00    +0.000 A 
BRANCH  20  22
ATOM     22  C   UNL     1      -2.716  10.742  17.065  0.00  0.00    +0.000 C 
ATOM     23  C   UNL     1      -2.642   9.919  15.772  0.00  0.00    +0.000 C 
BRANCH  22  24
ATOM     24  C   UNL     1      -3.878  10.249  17.940  0.00  0.00    +0.000 C 
BRANCH  24  25
ATOM     25  C   UNL     1      -5.091  11.107  17.802  0.00  0.00    +0.000 C 
ATOM     26  N   UNL     1      -5.226  12.130  17.025  0.00  0.00    +0.000 NA
ATOM     27  C   UNL     1      -6.627  12.550  17.285  0.00  0.00    +0.000 C 
ATOM     28  N   UNL     1      -7.245  11.683  18.313  0.00  0.00    +0.000 NA
ATOM     29  C   UNL     1      -6.313  10.850  18.593  0.00  0.00    +0.000 C 
ENDBRANCH  24  25
ENDBRANCH  22  24
ENDBRANCH  20  22
ENDBRANCH   3  16
TORSDOF 6
ENDMDL
MODEL 2
REMARK VINA RESULT:      -8.2      1.563      2.501
REMARK  Name = 
REMARK  8 active torsions:
REMARK  status: ('A' for Active; 'I' for Inactive)
REMARK    1  A    between atoms: C_1  and  C_2
REMARK    2  A    between atoms: C_3  and  C_4
REMARK    3  A    between atoms: N_6  and  C_7
REMARK    4  A    between atoms: C_11  and  C_12
REMARK    5  A    between atoms: C_12  and  C_13
REMARK    6  A    between atoms: C_12  and  C_14
REMARK    7  A    between atoms: C_14  and  C_15
REMARK    8  A    between atoms: C_24  and  C_25
REMARK                            x       y       z     vdW  Elec       q    Type
REMARK                         _______ _______ _______ _____ _____    ______ ____
ROOT
ATOM      1  C   UNL     1       2.369   7.503  18.507  0.00  0.00    +0.000 C 
ATOM      2  O   UNL     1       2.238   7.537  19.728  0.00  0.00    +0.000 OA
ATOM      3  N   UNL     1       2.007   8.507  17.627  0.00  0.00    +0.000 N 
ATOM      4  H   UNL     1       2.046   8.295  16.638  0.00  0.00    +0.000 HD
ENDROOT
BRANCH   1   7
ATOM      5  C   UNL     1       5.173   7.109  17.205  0.00  0.00    +0.000 C 
ATOM      6  C   UNL     1       4.147   6.010  17.334  0.00  0.00    +0.000 A 
ATOM      7  C   UNL     1       2.874   6.222  17.916  0.00  0.00    +0.000 A 
ATOM      8  C   UNL     1       1.981   5.141  18.064  0.00  0.00    +0.000 A 
ATOM      9  C   UNL     1       2.316   3.860  17.646  0.00  0.00    +0.000 A 
ATOM     10  C   UNL     1       3.554   3.642  17.060  0.00  0.00    +0.000 A 
ATOM     11  C   UNL     1       4.479   4.697  16.883  0.00  0.00    +0.000 A 
BRANCH  11  12
ATOM     12  C   UNL     1       5.799   4.300  16.243  0.00  0.00    +0.000 C 
ATOM     13  F   UNL     1       6.900   4.447  17.026  0.00  0.00    +0.000 F 
ATOM     14  F   UNL     1       5.801   2.998  15.840  0.00  0.00    +0.000 F 
ATOM     15  F   UNL     1       6.057   5.032  15.120  0.00  0.00    +0.000 F 
ENDBRANCH  11  12
ENDBRANCH   1   7
BRANCH   3  16
ATOM     16  C   UNL     1       1.445   9.761  17.975  0.00  0.00    +0.000 A 
ATOM     17  C   UNL     1       2.201  10.906  18.237  0.00  0.00    +0.000 A 
ATOM     18  C   UNL     1       1.587  12.086  18.664  0.00  0.00    +0.000 A 
ATOM     19  C   UNL     1       0.208  12.137  18.835  0.00  0.00    +0.000 A 
ATOM     20  C   UNL     1      -0.581  11.015  18.547  0.00  0.00    +0.000 A 
ATOM     21  C   UNL     1       0.051   9.839  18.095  0.00  0.00    +0.000 A 
BRANCH  20  22
ATOM     22  C   UNL     1      -2.086  11.026  18.758  0.00  0.00    +0.000 C 
ATOM     23  C   UNL     1      -2.483  12.230  19.622  0.00  0.00    +0.000 C 
BRANCH  22  24
ATOM     24  C   UNL     1      -2.888  11.030  17.447  0.00  0.00    +0.000 C 
BRANCH  24  25
ATOM     25  C   UNL     1      -4.358  11.108  17.685  0.00  0.00    +0.000 C 
ATOM     26  N   UNL     1      -5.063  10.312  18.418  0.00  0.00    +0.000 NA
ATOM     27  C   UNL     1      -6.426  10.891  18.307  0.00  0.00    +0.000 C 
ATOM     28  N   UNL     1      -6.416  12.067  17.407  0.00  0.00    +0.000 NA
ATOM     29  C   UNL     1      -5.187  12.162  17.061  0.00  0.00    +0.000 C 
ENDBRANCH  24  25
ENDBRANCH  22  24
ENDBRANCH  20  22
ENDBRANCH   3  16
TORSDOF 6
ENDMDL
MODEL 3
REMARK VINA RESULT:      -8.1      3.105      3.887
REMARK  Name = 
REMARK  8 active torsions:
REMARK  status: ('A' for Active; 'I' for Inactive)
REMARK    1  A    between atoms: C_1  and  C_2
REMARK    2  A    between atoms: C_3  and  C_4
REMARK    3  A    between atoms: N_6  and  C_7
REMARK    4  A    between atoms: C_11  and  C_12
REMARK    5  A    between atoms: C_12  and  C_13
REMARK    6  A    between atoms: C_12  and  C_14
REMARK    7  A    between atoms: C_14  and  C_15
REMARK    8  A    between atoms: C_24  and  C_25
REMARK                            x       y       z     vdW  Elec       q    Type
REMARK                         _______ _______ _______ _____ _____    ______ ____
ROOT
ATOM      1  C   UNL     1       2.543   7.197  18.822  0.00  0.00    +0.000 C 
ATOM      2  O   UNL     1       2.498   7.093  20.046  0.00  0.00    +0.000 OA
ATOM      3  N   UNL     1       2.132   8.296  18.088  0.00  0.00    +0.000 N 
ATOM      4  H   UNL     1       2.099   8.197  17.082  0.00  0.00    +0.000 HD
ENDROOT
BRANCH   1   7
ATOM      5  C   UNL     1       5.288   6.894  17.381  0.00  0.00    +0.000 C 
ATOM      6  C   UNL     1       4.233   5.817  17.407  0.00  0.00    +0.000 A 
ATOM      7  C   UNL     1       2.987   5.987  18.056  0.00  0.00    +0.000 A 
ATOM      8  C   UNL     1       2.065   4.921  18.099  0.00  0.00    +0.000 A 
ATOM      9  C   UNL     1       2.345   3.695  17.510  0.00  0.00    +0.000 A 
ATOM     10  C   UNL     1       3.556   3.520  16.858  0.00  0.00    +0.000 A 
ATOM     11  C   UNL     1       4.508   4.563  16.782  0.00  0.00    +0.000 A 
BRANCH  11  12
ATOM     12  C   UNL     1       5.794   4.214  16.050  0.00  0.00    +0.000 C 
ATOM     13  F   UNL     1       5.823   2.990  15.461  0.00  0.00    +0.000 F 
ATOM     14  F   UNL     1       6.078   5.109  15.062  0.00  0.00    +0.000 F 
ATOM     15  F   UNL     1       6.873   4.236  16.886  0.00  0.00    +0.000 F 
ENDBRANCH  11  12
ENDBRANCH   1   7
BRANCH   3  16
ATOM     16  C   UNL     1       1.614   9.505  18.615  0.00  0.00    +0.000 A 
ATOM     17  C   UNL     1       1.912  10.769  18.100  0.00  0.00    +0.000 A 
ATOM     18  C   UNL     1       1.439  11.926  18.723  0.00  0.00    +0.000 A 
ATOM     19  C   UNL     1       0.660  11.834  19.872  0.00  0.00    +0.000 A 
ATOM     20  C   UNL     1       0.315  10.580  20.392  0.00  0.00    +0.000 A 
ATOM     21  C   UNL     1       0.781   9.422  19.739  0.00  0.00    +0.000 A 
BRANCH  20  22
ATOM     22  C   UNL     1      -0.505  10.446  21.666  0.00  0.00    +0.000 C 
ATOM     23  C   UNL     1       0.178   9.463  22.625  0.00  0.00    +0.000 C 
BRANCH  22  24
ATOM     24  C   UNL     1      -0.757  11.786  22.374  0.00  0.00    +0.000 C 
BRANCH  24  25
ATOM     25  C   UNL     1      -2.197  12.175  22.350  0.00  0.00    +0.000 C 
ATOM     26  N   UNL     1      -2.854  12.633  21.337  0.00  0.00    +0.000 NA
ATOM     27  C   UNL     1      -4.222  12.803  21.889  0.00  0.00    +0.000 C 
ATOM     28  N   UNL     1      -4.252  12.430  23.321  0.00  0.00    +0.000 NA
ATOM     29  C   UNL     1      -3.046  12.068  23.556  0.00  0.00    +0.000 C 
ENDBRANCH  24  25
ENDBRANCH  22  24
ENDBRANCH  20  22
ENDBRANCH   3  16
TORSDOF 6
ENDMDL
MODEL 4
REMARK VINA RESULT:      -8.1      5.290      9.826
REMARK  Name = 
REMARK  8 active torsions:
REMARK  status: ('A' for Active; 'I' for Inactive)
REMARK    1  A    between atoms: C_1  and  C_2
REMARK    2  A    between atoms: C_3  and  C_4
REMARK    3  A    between atoms: N_6  and  C_7
REMARK    4  A    between atoms: C_11  and  C_12
REMARK    5  A    between atoms: C_12  and  C_13
REMARK    6  A    between atoms: C_12  and  C_14
REMARK    7  A    between atoms: C_14  and  C_15
REMARK    8  A    between atoms: C_24  and  C_25
REMARK                            x       y       z     vdW  Elec       q    Type
REMARK                         _______ _______ _______ _____ _____    ______ ____
ROOT
ATOM      1  C   UNL     1       1.479   9.140  18.432  0.00  0.00    +0.000 C 
ATOM      2  O   UNL     1       1.021   9.095  17.293  0.00  0.00    +0.000 OA
ATOM      3  N   UNL     1       2.274   8.174  19.024  0.00  0.00    +0.000 N 
ATOM      4  H   UNL     1       2.469   8.274  20.012  0.00  0.00    +0.000 HD
ENDROOT
BRANCH   1   7
ATOM      5  C   UNL     1      -0.254   8.927  21.013  0.00  0.00    +0.000 C 
ATOM      6  C   UNL     1       0.283  10.228  20.470  0.00  0.00    +0.000 A 
ATOM      7  C   UNL     1       1.055  10.297  19.286  0.00  0.00    +0.000 A 
ATOM      8  C   UNL     1       1.581  11.535  18.862  0.00  0.00    +0.000 A 
ATOM      9  C   UNL     1       1.357  12.703  19.579  0.00  0.00    +0.000 A 
ATOM     10  C   UNL     1       0.589  12.651  20.732  0.00  0.00    +0.000 A 
ATOM     11  C   UNL     1       0.034  11.434  21.192  0.00  0.00    +0.000 A 
BRANCH  11  12
ATOM     12  C   UNL     1      -0.768  11.533  22.479  0.00  0.00    +0.000 C 
ATOM     13  F   UNL     1      -2.109  11.351  22.353  0.00  0.00    +0.000 F 
ATOM     14  F   UNL     1      -0.355  10.626  23.409  0.00  0.00    +0.000 F 
ATOM     15  F   UNL     1      -0.626  12.755  23.070  0.00  0.00    +0.000 F 
ENDBRANCH  11  12
ENDBRANCH   1   7
BRANCH   3  16
ATOM     16  C   UNL     1       2.723   6.975  18.417  0.00  0.00    +0.000 A 
ATOM     17  C   UNL     1       2.093   5.739  18.575  0.00  0.00    +0.000 A 
ATOM     18  C   UNL     1       2.642   4.580  18.022  0.00  0.00    +0.000 A 
ATOM     19  C   UNL     1       3.830   4.642  17.301  0.00  0.00    +0.000 A 
ATOM     20  C   UNL     1       4.467   5.873  17.096  0.00  0.00    +0.000 A 
ATOM     21  C   UNL     1       3.889   7.036  17.641  0.00  0.00    +0.000 A 
BRANCH  20  22
ATOM     22  C   UNL     1       5.786   5.969  16.344  0.00  0.00    +0.000 C 
ATOM     23  C   UNL     1       6.841   6.649  17.226  0.00  0.00    +0.000 C 
BRANCH  22  24
ATOM     24  C   UNL     1       6.307   4.612  15.847  0.00  0.00    +0.000 C 
BRANCH  24  25
ATOM     25  C   UNL     1       6.776   4.671  14.433  0.00  0.00    +0.000 C 
ATOM     26  N   UNL     1       7.642   5.494  13.942  0.00  0.00    +0.000 NA
ATOM     27  C   UNL     1       7.731   5.063  12.524  0.00  0.00    +0.000 C 
ATOM     28  N   UNL     1       6.798   3.943  12.264  0.00  0.00    +0.000 NA
ATOM     29  C   UNL     1       6.255   3.743  13.407  0.00  0.00    +0.000 C 
ENDBRANCH  24  25
ENDBRANCH  22  24
ENDBRANCH  20  22
ENDBRANCH   3  16
TORSDOF 6
ENDMDL
MODEL 5
REMARK VINA RESULT:      -8.1      1.883      2.717
REMARK  Name = 
REMARK  8 active torsions:
REMARK  status: ('A' for Active; 'I' for Inactive)
REMARK    1  A    between atoms: C_1  and  C_2
REMARK    2  A    between atoms: C_3  and  C_4
REMARK    3  A    between atoms: N_6  and  C_7
REMARK    4  A    between atoms: C_11  and  C_12
REMARK    5  A    between atoms: C_12  and  C_13
REMARK    6  A    between atoms: C_12  and  C_14
REMARK    7  A    between atoms: C_14  and  C_15
REMARK    8  A    between atoms: C_24  and  C_25
REMARK                            x       y       z     vdW  Elec       q    Type
REMARK                         _______ _______ _______ _____ _____    ______ ____
ROOT
ATOM      1  C   UNL     1       2.215   7.365  19.529  0.00  0.00    +0.000 C 
ATOM      2  O   UNL     1       2.071   8.073  18.536  0.00  0.00    +0.000 OA
ATOM      3  N   UNL     1       1.735   7.641  20.797  0.00  0.00    +0.000 N 
ATOM      4  H   UNL     1       2.040   7.040  21.551  0.00  0.00    +0.000 HD
ENDROOT
BRANCH   1   7
ATOM      5  C   UNL     1       1.619   4.575  20.783  0.00  0.00    +0.000 C 
ATOM      6  C   UNL     1       2.819   4.864  19.915  0.00  0.00    +0.000 A 
ATOM      7  C   UNL     1       3.073   6.145  19.372  0.00  0.00    +0.000 A 
ATOM      8  C   UNL     1       4.179   6.339  18.517  0.00  0.00    +0.000 A 
ATOM      9  C   UNL     1       5.037   5.297  18.194  0.00  0.00    +0.000 A 
ATOM     10  C   UNL     1       4.807   4.040  18.732  0.00  0.00    +0.000 A 
ATOM     11  C   UNL     1       3.717   3.800  19.600  0.00  0.00    +0.000 A 
BRANCH  11  12
ATOM     12  C   UNL     1       3.585   2.369  20.095  0.00  0.00    +0.000 C 
ATOM     13  F   UNL     1       3.426   2.223  21.437  0.00  0.00    +0.000 F 
ATOM     14  F   UNL     1       2.529   1.725  19.522  0.00  0.00    +0.000 F 
ATOM     15  F   UNL     1       4.684   1.623  19.782  0.00  0.00    +0.000 F 
ENDBRANCH  11  12
ENDBRANCH   1   7
BRANCH   3  16
ATOM     16  C   UNL     1       0.969   8.773  21.171  0.00  0.00    +0.000 A 
ATOM     17  C   UNL     1       0.716   9.139  22.495  0.00  0.00    +0.000 A 
ATOM     18  C   UNL     1      -0.123  10.214  22.793  0.00  0.00    +0.000 A 
ATOM     19  C   UNL     1      -0.721  10.942  21.769  0.00  0.00    +0.000 A 
ATOM     20  C   UNL     1      -0.459  10.621  20.430  0.00  0.00    +0.000 A 
ATOM     21  C   UNL     1       0.408   9.547  20.146  0.00  0.00    +0.000 A 
BRANCH  20  22
ATOM     22  C   UNL     1      -1.124  11.373  19.288  0.00  0.00    +0.000 C 
ATOM     23  C   UNL     1      -0.370  12.681  19.015  0.00  0.00    +0.000 C 
BRANCH  22  24
ATOM     24  C   UNL     1      -1.237  10.549  17.997  0.00  0.00    +0.000 C 
BRANCH  24  25
ATOM     25  C   UNL     1      -2.505  10.824  17.261  0.00  0.00    +0.000 C 
ATOM     26  N   UNL     1      -3.575  11.361  17.745  0.00  0.00    +0.000 NA
ATOM     27  C   UNL     1      -4.474  11.413  16.563  0.00  0.00    +0.000 C 
ATOM     28  N   UNL     1      -3.811  10.815  15.382  0.00  0.00    +0.000 NA
ATOM     29  C   UNL     1      -2.659  10.480  15.831  0.00  0.00    +0.000 C 
ENDBRANCH  24  25
ENDBRANCH  22  24
ENDBRANCH  20  22
ENDBRANCH   3  16
TORSDOF 6
ENDMDL
MODEL 6
REMARK VINA RESULT:      -8.0      0.881      1.042
REMARK  Name = 
REMARK  8 active torsions:
REMARK  status: ('A' for Active; 'I' for Inactive)
REMARK    1  A    between atoms: C_1  and  C_2
REMARK    2  A    between atoms: C_3  and  C_4
REMARK    3  A    between atoms: N_6  and  C_7
REMARK    4  A    between atoms: C_11  and  C_12
REMARK    5  A    between atoms: C_12  and  C_13
REMARK    6  A    between atoms: C_12  and  C_14
REMARK    7  A    between atoms: C_14  and  C_15
REMARK    8  A    between atoms: C_24  and  C_25
REMARK                            x       y       z     vdW  Elec       q    Type
REMARK                         _______ _______ _______ _____ _____    ______ ____
ROOT
ATOM      1  C   UNL     1       1.945   7.942  19.202  0.00  0.00    +0.000 C 
ATOM      2  O   UNL     1       1.701   8.118  20.394  0.00  0.00    +0.000 OA
ATOM      3  N   UNL     1       1.490   8.730  18.159  0.00  0.00    +0.000 N 
ATOM      4  H   UNL     1       1.655   8.395  17.219  0.00  0.00    +0.000 HD
ENDROOT
BRANCH   1   7
ATOM      5  C   UNL     1       1.530   5.128  20.474  0.00  0.00    +0.000 C 
ATOM      6  C   UNL     1       2.542   5.418  19.393  0.00  0.00    +0.000 A 
ATOM      7  C   UNL     1       2.720   6.710  18.845  0.00  0.00    +0.000 A 
ATOM      8  C   UNL     1       3.639   6.907  17.793  0.00  0.00    +0.000 A 
ATOM      9  C   UNL     1       4.387   5.856  17.277  0.00  0.00    +0.000 A 
ATOM     10  C   UNL     1       4.233   4.588  17.816  0.00  0.00    +0.000 A 
ATOM     11  C   UNL     1       3.330   4.345  18.877  0.00  0.00    +0.000 A 
BRANCH  11  12
ATOM     12  C   UNL     1       3.258   2.902  19.349  0.00  0.00    +0.000 C 
ATOM     13  F   UNL     1       3.510   2.701  20.670  0.00  0.00    +0.000 F 
ATOM     14  F   UNL     1       2.035   2.348  19.115  0.00  0.00    +0.000 F 
ATOM     15  F   UNL     1       4.152   2.109  18.689  0.00  0.00    +0.000 F 
ENDBRANCH  11  12
ENDBRANCH   1   7
BRANCH   3  16
ATOM     16  C   UNL     1       0.687   9.891  18.278  0.00  0.00    +0.000 A 
ATOM     17  C   UNL     1       1.026  10.995  19.063  0.00  0.00    +0.000 A 
ATOM     18  C   UNL     1       0.144  12.068  19.207  0.00  0.00    +0.000 A 
ATOM     19  C   UNL     1      -1.091  12.052  18.566  0.00  0.00    +0.000 A 
ATOM     20  C   UNL     1      -1.444  10.975  17.743  0.00  0.00    +0.000 A 
ATOM     21  C   UNL     1      -0.535   9.910  17.590  0.00  0.00    +0.000 A 
BRANCH  20  22
ATOM     22  C   UNL     1      -2.800  10.910  17.058  0.00  0.00    +0.000 C 
ATOM     23  C   UNL     1      -2.655  10.266  15.674  0.00  0.00    +0.000 C 
BRANCH  22  24
ATOM     24  C   UNL     1      -3.865  10.166  17.879  0.00  0.00    +0.000 C 
BRANCH  24  25
ATOM     25  C   UNL     1      -5.151  10.919  17.949  0.00  0.00    +0.000 C 
ATOM     26  N   UNL     1      -6.166  10.642  18.699  0.00  0.00    +0.000 NA
ATOM     27  C   UNL     1      -7.117  11.735  18.374  0.00  0.00    +0.000 C 
ATOM     28  N   UNL     1      -6.546  12.627  17.339  0.00  0.00    +0.000 NA
ATOM     29  C   UNL     1      -5.393  12.115  17.115  0.00  0.00    +0.000 C 
ENDBRANCH  24  25
ENDBRANCH  22  24
ENDBRANCH  20  22
ENDBRANCH   3  16
TORSDOF 6
ENDMDL
MODEL 7
REMARK VINA RESULT:      -8.0      1.517      2.252
REMARK  Name = 
REMARK  8 active torsions:
REMARK  status: ('A' for Active; 'I' for Inactive)
REMARK    1  A    between atoms: C_1  and  C_2
REMARK    2  A    between atoms: C_3  and  C_4
REMARK    3  A    between atoms: N_6  and  C_7
REMARK    4  A    between atoms: C_11  and  C_12
REMARK    5  A    between atoms: C_12  and  C_13
REMARK    6  A    between atoms: C_12  and  C_14
REMARK    7  A    between atoms: C_14  and  C_15
REMARK    8  A    between atoms: C_24  and  C_25
REMARK                            x       y       z     vdW  Elec       q    Type
REMARK                         _______ _______ _______ _____ _____    ______ ____
ROOT
ATOM      1  C   UNL     1       2.225   7.474  18.565  0.00  0.00    +0.000 C 
ATOM      2  O   UNL     1       2.250   7.562  19.790  0.00  0.00    +0.000 OA
ATOM      3  N   UNL     1       1.645   8.386  17.701  0.00  0.00    +0.000 N 
ATOM      4  H   UNL     1       1.578   8.125  16.726  0.00  0.00    +0.000 HD
ENDROOT
BRANCH   1   7
ATOM      5  C   UNL     1       5.043   7.207  17.263  0.00  0.00    +0.000 C 
ATOM      6  C   UNL     1       4.064   6.066  17.383  0.00  0.00    +0.000 A 
ATOM      7  C   UNL     1       2.783   6.219  17.965  0.00  0.00    +0.000 A 
ATOM      8  C   UNL     1       1.936   5.100  18.105  0.00  0.00    +0.000 A 
ATOM      9  C   UNL     1       2.325   3.838  17.677  0.00  0.00    +0.000 A 
ATOM     10  C   UNL     1       3.571   3.677  17.091  0.00  0.00    +0.000 A 
ATOM     11  C   UNL     1       4.451   4.771  16.922  0.00  0.00    +0.000 A 
BRANCH  11  12
ATOM     12  C   UNL     1       5.787   4.434  16.281  0.00  0.00    +0.000 C 
ATOM     13  F   UNL     1       5.901   3.174  15.785  0.00  0.00    +0.000 F 
ATOM     14  F   UNL     1       6.081   5.270  15.245  0.00  0.00    +0.000 F 
ATOM     15  F   UNL     1       6.820   4.567  17.164  0.00  0.00    +0.000 F 
ENDBRANCH  11  12
ENDBRANCH   1   7
BRANCH   3  16
ATOM     16  C   UNL     1       1.002   9.594  18.069  0.00  0.00    +0.000 A 
ATOM     17  C   UNL     1       1.620  10.614  18.797  0.00  0.00    +0.000 A 
ATOM     18  C   UNL     1       0.900  11.739  19.205  0.00  0.00    +0.000 A 
ATOM     19  C   UNL     1      -0.450  11.860  18.890  0.00  0.00    +0.000 A 
ATOM     20  C   UNL     1      -1.088  10.870  18.130  0.00  0.00    +0.000 A 
ATOM     21  C   UNL     1      -0.343   9.752  17.707  0.00  0.00    +0.000 A 
BRANCH  20  22
ATOM     22  C   UNL     1      -2.570  10.955  17.800  0.00  0.00    +0.000 C 
ATOM     23  C   UNL     1      -3.156   9.544  17.665  0.00  0.00    +0.000 C 
BRANCH  22  24
ATOM     24  C   UNL     1      -3.379  11.768  18.822  0.00  0.00    +0.000 C 
BRANCH  24  25
ATOM     25  C   UNL     1      -4.816  11.884  18.441  0.00  0.00    +0.000 C 
ATOM     26  N   UNL     1      -5.281  12.289  17.306  0.00  0.00    +0.000 NA
ATOM     27  C   UNL     1      -6.749  12.160  17.493  0.00  0.00    +0.000 C 
ATOM     28  N   UNL     1      -7.056  11.681  18.860  0.00  0.00    +0.000 NA
ATOM     29  C   UNL     1      -5.897  11.532  19.386  0.00  0.00    +0.000 C 
ENDBRANCH  24  25
ENDBRANCH  22  24
ENDBRANCH  20  22
ENDBRANCH   3  16
TORSDOF 6
ENDMDL
MODEL 8
REMARK VINA RESULT:      -8.0      1.565      2.583
REMARK  Name = 
REMARK  8 active torsions:
REMARK  status: ('A' for Active; 'I' for Inactive)
REMARK    1  A    between atoms: C_1  and  C_2
REMARK    2  A    between atoms: C_3  and  C_4
REMARK    3  A    between atoms: N_6  and  C_7
REMARK    4  A    between atoms: C_11  and  C_12
REMARK    5  A    between atoms: C_12  and  C_13
REMARK    6  A    between atoms: C_12  and  C_14
REMARK    7  A    between atoms: C_14  and  C_15
REMARK    8  A    between atoms: C_24  and  C_25
REMARK                            x       y       z     vdW  Elec       q    Type
REMARK                         _______ _______ _______ _____ _____    ______ ____
ROOT
ATOM      1  C   UNL     1       2.484   7.502  18.737  0.00  0.00    +0.000 C 
ATOM      2  O   UNL     1       2.687   8.516  18.075  0.00  0.00    +0.000 OA
ATOM      3  N   UNL     1       1.796   7.443  19.937  0.00  0.00    +0.000 N 
ATOM      4  H   UNL     1       1.818   6.567  20.442  0.00  0.00    +0.000 HD
ENDROOT
BRANCH   1   7
ATOM      5  C   UNL     1       1.578   4.621  19.506  0.00  0.00    +0.000 C 
ATOM      6  C   UNL     1       2.723   4.917  18.570  0.00  0.00    +0.000 A 
ATOM      7  C   UNL     1       3.123   6.236  18.250  0.00  0.00    +0.000 A 
ATOM      8  C   UNL     1       4.162   6.450  17.320  0.00  0.00    +0.000 A 
ATOM      9  C   UNL     1       4.814   5.390  16.705  0.00  0.00    +0.000 A 
ATOM     10  C   UNL     1       4.442   4.092  17.021  0.00  0.00    +0.000 A 
ATOM     11  C   UNL     1       3.412   3.829  17.953  0.00  0.00    +0.000 A 
BRANCH  11  12
ATOM     12  C   UNL     1       3.105   2.358  18.182  0.00  0.00    +0.000 C 
ATOM     13  F   UNL     1       3.936   1.480  17.561  0.00  0.00    +0.000 F 
ATOM     14  F   UNL     1       3.137   2.029  19.505  0.00  0.00    +0.000 F 
ATOM     15  F   UNL     1       1.851   2.030  17.753  0.00  0.00    +0.000 F 
ENDBRANCH  11  12
ENDBRANCH   1   7
BRANCH   3  16
ATOM     16  C   UNL     1       1.182   8.533  20.602  0.00  0.00    +0.000 A 
ATOM     17  C   UNL     1       1.292   8.770  21.974  0.00  0.00    +0.000 A 
ATOM     18  C   UNL     1       0.586   9.811  22.580  0.00  0.00    +0.000 A 
ATOM     19  C   UNL     1      -0.240  10.633  21.820  0.00  0.00    +0.000 A 
ATOM     20  C   UNL     1      -0.344  10.443  20.435  0.00  0.00    +0.000 A 
ATOM     21  C   UNL     1       0.392   9.402  19.836  0.00  0.00    +0.000 A 
BRANCH  20  22
ATOM     22  C   UNL     1      -1.265  11.300  19.583  0.00  0.00    +0.000 C 
ATOM     23  C   UNL     1      -1.022  12.785  19.882  0.00  0.00    +0.000 C 
BRANCH  22  24
ATOM     24  C   UNL     1      -1.127  11.035  18.076  0.00  0.00    +0.000 C 
BRANCH  24  25
ATOM     25  C   UNL     1      -2.442  11.067  17.374  0.00  0.00    +0.000 C 
ATOM     26  N   UNL     1      -3.578  11.414  17.882  0.00  0.00    +0.000 NA
ATOM     27  C   UNL     1      -4.502  11.284  16.727  0.00  0.00    +0.000 C 
ATOM     28  N   UNL     1      -3.775  10.790  15.536  0.00  0.00    +0.000 NA
ATOM     29  C   UNL     1      -2.571  10.674  15.955  0.00  0.00    +0.000 C 
ENDBRANCH  24  25
ENDBRANCH  22  24
ENDBRANCH  20  22
ENDBRANCH   3  16
TORSDOF 6
ENDMDL
MODEL 9
REMARK VINA RESULT:      -7.9      1.733      2.932
REMARK  Name = 
REMARK  8 active torsions:
REMARK  status: ('A' for Active; 'I' for Inactive)
REMARK    1  A    between atoms: C_1  and  C_2
REMARK    2  A    between atoms: C_3  and  C_4
REMARK    3  A    between atoms: N_6  and  C_7
REMARK    4  A    between atoms: C_11  and  C_12
REMARK    5  A    between atoms: C_12  and  C_13
REMARK    6  A    between atoms: C_12  and  C_14
REMARK    7  A    between atoms: C_14  and  C_15
REMARK    8  A    between atoms: C_24  and  C_25
REMARK                            x       y       z     vdW  Elec       q    Type
REMARK                         _______ _______ _______ _____ _____    ______ ____
ROOT
ATOM      1  C   UNL     1       2.556   7.506  18.557  0.00  0.00    +0.000 C 
ATOM      2  O   UNL     1       2.385   7.503  19.773  0.00  0.00    +0.000 OA
ATOM      3  N   UNL     1       2.293   8.565  17.706  0.00  0.00    +0.000 N 
ATOM      4  H   UNL     1       2.352   8.388  16.711  0.00  0.00    +0.000 HD
ENDROOT
BRANCH   1   7
ATOM      5  C   UNL     1       5.336   7.001  17.242  0.00  0.00    +0.000 C 
ATOM      6  C   UNL     1       4.255   5.954  17.343  0.00  0.00    +0.000 A 
ATOM      7  C   UNL     1       2.995   6.216  17.932  0.00  0.00    +0.000 A 
ATOM      8  C   UNL     1       2.046   5.179  18.052  0.00  0.00    +0.000 A 
ATOM      9  C   UNL     1       2.315   3.894  17.600  0.00  0.00    +0.000 A 
ATOM     10  C   UNL     1       3.540   3.629  17.008  0.00  0.00    +0.000 A 
ATOM     11  C   UNL     1       4.518   4.638  16.858  0.00  0.00    +0.000 A 
BRANCH  11  12
ATOM     12  C   UNL     1       5.817   4.190  16.206  0.00  0.00    +0.000 C 
ATOM     13  F   UNL     1       6.917   4.225  17.003  0.00  0.00    +0.000 F 
ATOM     14  F   UNL     1       5.738   2.914  15.735  0.00  0.00    +0.000 F 
ATOM     15  F   UNL     1       6.132   4.962  15.125  0.00  0.00    +0.000 F 
ENDBRANCH  11  12
ENDBRANCH   1   7
BRANCH   3  16
ATOM     16  C   UNL     1       1.805   9.841  18.085  0.00  0.00    +0.000 A 
ATOM     17  C   UNL     1       2.508  11.032  17.892  0.00  0.00    +0.000 A 
ATOM     18  C   UNL     1       2.008  12.244  18.372  0.00  0.00    +0.000 A 
ATOM     19  C   UNL     1       0.796  12.281  19.054  0.00  0.00    +0.000 A 
ATOM     20  C   UNL     1       0.051  11.108  19.233  0.00  0.00    +0.000 A 
ATOM     21  C   UNL     1       0.558   9.897  18.723  0.00  0.00    +0.000 A 
BRANCH  20  22
ATOM     22  C   UNL     1      -1.259  11.109  20.005  0.00  0.00    +0.000 C 
ATOM     23  C   UNL     1      -0.978  11.195  21.511  0.00  0.00    +0.000 C 
BRANCH  22  24
ATOM     24  C   UNL     1      -2.217  12.233  19.581  0.00  0.00    +0.000 C 
BRANCH  24  25
ATOM     25  C   UNL     1      -3.248  11.761  18.613  0.00  0.00    +0.000 C 
ATOM     26  N   UNL     1      -4.510  12.035  18.636  0.00  0.00    +0.000 NA
ATOM     27  C   UNL     1      -5.016  11.332  17.430  0.00  0.00    +0.000 C 
ATOM     28  N   UNL     1      -3.917  10.606  16.754  0.00  0.00    +0.000 NA
ATOM     29  C   UNL     1      -2.896  10.881  17.478  0.00  0.00    +0.000 C 
ENDBRANCH  24  25
ENDBRANCH  22  24
ENDBRANCH  20  22
ENDBRANCH   3  16
TORSDOF 6
ENDMDL
