MODEL 1
REMARK VINA RESULT:      -8.1      0.000      0.000
REMARK  Name = 
REMARK  2 active torsions:
REMARK  status: ('A' for Active; 'I' for Inactive)
REMARK    1  A    between atoms: C_2  and  C_14
REMARK    2  A    between atoms: N_3  and  C_4
REMARK                            x       y       z     vdW  Elec       q    Type
REMARK                         _______ _______ _______ _____ _____    ______ ____
ROOT
ATOM      1  O   UNL     1       1.786   9.129  17.175  0.00  0.00    +0.000 OA
ATOM      2  C   UNL     1       1.854   8.854  18.370  0.00  0.00    +0.000 C 
ATOM      3  N   UNL     1       2.477   7.723  18.879  0.00  0.00    +0.000 N 
ATOM      4  H   UNL     1       2.337   7.560  19.870  0.00  0.00    +0.000 HD
ENDROOT
BRANCH   3   5
ATOM      5  C   UNL     1       3.165   6.732  18.152  0.00  0.00    +0.000 A 
ATOM      6  C   UNL     1       2.719   5.390  18.089  0.00  0.00    +0.000 A 
ATOM      7  C   UNL     1       3.428   4.409  17.391  0.00  0.00    +0.000 A 
ATOM      8  C   UNL     1       4.576   4.817  16.764  0.00  0.00    +0.000 A 
ATOM      9  N   UNL     1       5.482   4.072  16.016  0.00  0.00    +0.000 N 
ATOM     10  C   UNL     1       6.506   4.923  15.582  0.00  0.00    +0.000 A 
ATOM     11  O   UNL     1       7.472   4.612  14.908  0.00  0.00    +0.000 OA
ATOM     12  N   UNL     1       6.202   6.202  16.071  0.00  0.00    +0.000 N 
ATOM     13  C   UNL     1       5.018   6.133  16.799  0.00  0.00    +0.000 A 
ATOM     14  C   UNL     1       4.333   7.119  17.474  0.00  0.00    +0.000 A 
ATOM     15  H   UNL     1       5.442   3.089  15.817  0.00  0.00    +0.000 HD
ATOM     16  H   UNL     1       6.780   7.008  15.906  0.00  0.00    +0.000 HD
ENDBRANCH   3   5
BRANCH   2  17
ATOM     17  C   UNL     1       1.198   9.693  19.364  0.00  0.00    +0.000 A 
ATOM     18  C   UNL     1       0.607   9.261  20.534  0.00  0.00    +0.000 A 
ATOM     19  C   UNL     1       0.195  10.334  21.389  0.00  0.00    +0.000 A 
ATOM     20  C   UNL     1       0.433  11.557  20.787  0.00  0.00    +0.000 A 
ATOM     21  S   UNL     1       1.090  11.387  19.217  0.00  0.00    +0.000 S 
ATOM     22  C   UNL     1       0.265  12.931  21.354  0.00  0.00    +0.000 C 
ATOM     23  C   UNL     1      -1.062  13.214  22.056  0.00  0.00    +0.000 C 
ATOM     24  C   UNL     1      -2.017  12.046  22.289  0.00  0.00    +0.000 C 
ATOM     25  C   UNL     1      -1.480  10.993  23.253  0.00  0.00    +0.000 C 
ATOM     26  C   UNL     1      -0.322  10.115  22.780  0.00  0.00    +0.000 C 
ENDBRANCH   2  17
TORSDOF 2
ENDMDL
MODEL 2
REMARK VINA RESULT:      -8.1      0.962      1.554
REMARK  Name = 
REMARK  2 active torsions:
REMARK  status: ('A' for Active; 'I' for Inactive)
REMARK    1  A    between atoms: C_2  and  C_14
REMARK    2  A    between atoms: N_3  and  C_4
REMARK                            x       y       z     vdW  Elec       q    Type
REMARK                         _______ _______ _______ _____ _____    ______ ____
ROOT
ATOM      1  O   UNL     1       2.106   9.126  17.211  0.00  0.00    +0.000 OA
ATOM      2  C   UNL     1       1.897   8.681  18.336  0.00  0.00    +0.000 C 
ATOM      3  N   UNL     1       2.344   7.446  18.786  0.00  0.00    +0.000 N 
ATOM      4  H   UNL     1       1.981   7.155  19.687  0.00  0.00    +0.000 HD
ENDROOT
BRANCH   3   5
ATOM      5  C   UNL     1       3.135   6.520  18.079  0.00  0.00    +0.000 A 
ATOM      6  C   UNL     1       2.801   5.147  17.992  0.00  0.00    +0.000 A 
ATOM      7  C   UNL     1       3.610   4.231  17.315  0.00  0.00    +0.000 A 
ATOM      8  C   UNL     1       4.743   4.735  16.732  0.00  0.00    +0.000 A 
ATOM      9  N   UNL     1       5.732   4.072  16.013  0.00  0.00    +0.000 N 
ATOM     10  C   UNL     1       6.699   5.005  15.620  0.00  0.00    +0.000 A 
ATOM     11  O   UNL     1       7.710   4.778  14.980  0.00  0.00    +0.000 OA
ATOM     12  N   UNL     1       6.276   6.252  16.106  0.00  0.00    +0.000 N 
ATOM     13  C   UNL     1       5.076   6.082  16.790  0.00  0.00    +0.000 A 
ATOM     14  C   UNL     1       4.291   7.005  17.445  0.00  0.00    +0.000 A 
ATOM     15  H   UNL     1       5.778   3.090  15.807  0.00  0.00    +0.000 HD
ATOM     16  H   UNL     1       6.793   7.103  15.965  0.00  0.00    +0.000 HD
ENDBRANCH   3   5
BRANCH   2  17
ATOM     17  C   UNL     1       1.071   9.417  19.284  0.00  0.00    +0.000 A 
ATOM     18  C   UNL     1       0.205  10.448  18.983  0.00  0.00    +0.000 A 
ATOM     19  C   UNL     1      -0.595  10.859  20.098  0.00  0.00    +0.000 A 
ATOM     20  C   UNL     1      -0.245  10.155  21.236  0.00  0.00    +0.000 A 
ATOM     21  S   UNL     1       1.047   9.069  20.952  0.00  0.00    +0.000 S 
ATOM     22  C   UNL     1      -0.884  10.176  22.587  0.00  0.00    +0.000 C 
ATOM     23  C   UNL     1      -1.160  11.557  23.182  0.00  0.00    +0.000 C 
ATOM     24  C   UNL     1      -0.943  12.780  22.295  0.00  0.00    +0.000 C 
ATOM     25  C   UNL     1      -1.899  12.858  21.108  0.00  0.00    +0.000 C 
ATOM     26  C   UNL     1      -1.717  11.847  19.976  0.00  0.00    +0.000 C 
ENDBRANCH   2  17
TORSDOF 2
ENDMDL
MODEL 3
REMARK VINA RESULT:      -7.8      1.461      1.913
REMARK  Name = 
REMARK  2 active torsions:
REMARK  status: ('A' for Active; 'I' for Inactive)
REMARK    1  A    between atoms: C_2  and  C_14
REMARK    2  A    between atoms: N_3  and  C_4
REMARK                            x       y       z     vdW  Elec       q    Type
REMARK                         _______ _______ _______ _____ _____    ______ ____
ROOT
ATOM      1  O   UNL     1       1.902   6.754  20.889  0.00  0.00    +0.000 OA
ATOM      2  C   UNL     1       1.706   7.699  20.130  0.00  0.00    +0.000 C 
ATOM      3  N   UNL     1       2.210   7.784  18.840  0.00  0.00    +0.000 N 
ATOM      4  H   UNL     1       2.080   8.679  18.381  0.00  0.00    +0.000 HD
ENDROOT
BRANCH   3   5
ATOM      5  C   UNL     1       2.975   6.816  18.161  0.00  0.00    +0.000 A 
ATOM      6  C   UNL     1       2.590   5.456  18.091  0.00  0.00    +0.000 A 
ATOM      7  C   UNL     1       3.374   4.498  17.442  0.00  0.00    +0.000 A 
ATOM      8  C   UNL     1       4.535   4.948  16.870  0.00  0.00    +0.000 A 
ATOM      9  N   UNL     1       5.508   4.235  16.178  0.00  0.00    +0.000 N 
ATOM     10  C   UNL     1       6.516   5.125  15.786  0.00  0.00    +0.000 A 
ATOM     11  O   UNL     1       7.528   4.848  15.166  0.00  0.00    +0.000 OA
ATOM     12  N   UNL     1       6.134   6.394  16.244  0.00  0.00    +0.000 N 
ATOM     13  C   UNL     1       4.918   6.283  16.911  0.00  0.00    +0.000 A 
ATOM     14  C   UNL     1       4.159   7.245  17.538  0.00  0.00    +0.000 A 
ATOM     15  H   UNL     1       5.520   3.249  15.989  0.00  0.00    +0.000 HD
ATOM     16  H   UNL     1       6.686   7.223  16.098  0.00  0.00    +0.000 HD
ENDBRANCH   3   5
BRANCH   2  17
ATOM     17  C   UNL     1       0.965   8.870  20.578  0.00  0.00    +0.000 A 
ATOM     18  C   UNL     1       0.397   9.834  19.770  0.00  0.00    +0.000 A 
ATOM     19  C   UNL     1      -0.412  10.771  20.491  0.00  0.00    +0.000 A 
ATOM     20  C   UNL     1      -0.365  10.513  21.849  0.00  0.00    +0.000 A 
ATOM     21  S   UNL     1       0.671   9.204  22.223  0.00  0.00    +0.000 S 
ATOM     22  C   UNL     1      -1.135  11.162  22.956  0.00  0.00    +0.000 C 
ATOM     23  C   UNL     1      -1.156  12.690  22.958  0.00  0.00    +0.000 C 
ATOM     24  C   UNL     1      -0.566  13.420  21.754  0.00  0.00    +0.000 C 
ATOM     25  C   UNL     1      -1.335  13.192  20.457  0.00  0.00    +0.000 C 
ATOM     26  C   UNL     1      -1.258  11.808  19.814  0.00  0.00    +0.000 C 
ENDBRANCH   2  17
TORSDOF 2
ENDMDL
MODEL 4
REMARK VINA RESULT:      -7.7      1.159      1.183
REMARK  Name = 
REMARK  2 active torsions:
REMARK  status: ('A' for Active; 'I' for Inactive)
REMARK    1  A    between atoms: C_2  and  C_14
REMARK    2  A    between atoms: N_3  and  C_4
REMARK                            x       y       z     vdW  Elec       q    Type
REMARK                         _______ _______ _______ _____ _____    ______ ____
ROOT
ATOM      1  O   UNL     1       1.842   6.651  20.741  0.00  0.00    +0.000 OA
ATOM      2  C   UNL     1       1.723   7.626  20.004  0.00  0.00    +0.000 C 
ATOM      3  N   UNL     1       2.292   7.726  18.741  0.00  0.00    +0.000 N 
ATOM      4  H   UNL     1       2.222   8.639  18.306  0.00  0.00    +0.000 HD
ENDROOT
BRANCH   3   5
ATOM      5  C   UNL     1       3.047   6.746  18.069  0.00  0.00    +0.000 A 
ATOM      6  C   UNL     1       2.663   5.384  18.034  0.00  0.00    +0.000 A 
ATOM      7  C   UNL     1       3.437   4.414  17.391  0.00  0.00    +0.000 A 
ATOM      8  C   UNL     1       4.586   4.854  16.788  0.00  0.00    +0.000 A 
ATOM      9  N   UNL     1       5.548   4.129  16.093  0.00  0.00    +0.000 N 
ATOM     10  C   UNL     1       6.547   5.011  15.664  0.00  0.00    +0.000 A 
ATOM     11  O   UNL     1       7.547   4.723  15.032  0.00  0.00    +0.000 OA
ATOM     12  N   UNL     1       6.171   6.289  16.103  0.00  0.00    +0.000 N 
ATOM     13  C   UNL     1       4.967   6.190  16.795  0.00  0.00    +0.000 A 
ATOM     14  C   UNL     1       4.218   7.164  17.416  0.00  0.00    +0.000 A 
ATOM     15  H   UNL     1       5.558   3.139  15.925  0.00  0.00    +0.000 HD
ATOM     16  H   UNL     1       6.718   7.116  15.930  0.00  0.00    +0.000 HD
ENDBRANCH   3   5
BRANCH   2  17
ATOM     17  C   UNL     1       1.013   8.815  20.453  0.00  0.00    +0.000 A 
ATOM     18  C   UNL     1       0.266   8.932  21.608  0.00  0.00    +0.000 A 
ATOM     19  C   UNL     1      -0.170  10.272  21.866  0.00  0.00    +0.000 A 
ATOM     20  C   UNL     1       0.214  11.116  20.840  0.00  0.00    +0.000 A 
ATOM     21  S   UNL     1       1.033  10.284  19.590  0.00  0.00    +0.000 S 
ATOM     22  C   UNL     1       0.072  12.602  20.744  0.00  0.00    +0.000 C 
ATOM     23  C   UNL     1      -1.306  13.171  21.080  0.00  0.00    +0.000 C 
ATOM     24  C   UNL     1      -2.356  12.226  21.658  0.00  0.00    +0.000 C 
ATOM     25  C   UNL     1      -2.002  11.682  23.038  0.00  0.00    +0.000 C 
ATOM     26  C   UNL     1      -0.856  10.675  23.138  0.00  0.00    +0.000 C 
ENDBRANCH   2  17
TORSDOF 2
ENDMDL
MODEL 5
REMARK VINA RESULT:      -7.6      1.903      2.462
REMARK  Name = 
REMARK  2 active torsions:
REMARK  status: ('A' for Active; 'I' for Inactive)
REMARK    1  A    between atoms: C_2  and  C_14
REMARK    2  A    between atoms: N_3  and  C_4
REMARK                            x       y       z     vdW  Elec       q    Type
REMARK                         _______ _______ _______ _____ _____    ______ ____
ROOT
ATOM      1  O   UNL     1       1.425   8.938  17.772  0.00  0.00    +0.000 OA
ATOM      2  C   UNL     1       1.465   8.837  18.995  0.00  0.00    +0.000 C 
ATOM      3  N   UNL     1       2.025   7.764  19.674  0.00  0.00    +0.000 N 
ATOM      4  H   UNL     1       1.866   7.753  20.675  0.00  0.00    +0.000 HD
ENDROOT
BRANCH   3   5
ATOM      5  C   UNL     1       2.673   6.647  19.111  0.00  0.00    +0.000 A 
ATOM      6  C   UNL     1       3.613   6.766  18.059  0.00  0.00    +0.000 A 
ATOM      7  C   UNL     1       4.226   5.648  17.487  0.00  0.00    +0.000 A 
ATOM      8  C   UNL     1       3.874   4.428  18.004  0.00  0.00    +0.000 A 
ATOM      9  N   UNL     1       4.303   3.159  17.633  0.00  0.00    +0.000 N 
ATOM     10  C   UNL     1       3.660   2.217  18.446  0.00  0.00    +0.000 A 
ATOM     11  O   UNL     1       3.791   1.007  18.398  0.00  0.00    +0.000 OA
ATOM     12  N   UNL     1       2.837   2.937  19.324  0.00  0.00    +0.000 N 
ATOM     13  C   UNL     1       2.969   4.296  19.049  0.00  0.00    +0.000 A 
ATOM     14  C   UNL     1       2.357   5.382  19.634  0.00  0.00    +0.000 A 
ATOM     15  H   UNL     1       4.952   2.926  16.903  0.00  0.00    +0.000 HD
ATOM     16  H   UNL     1       2.256   2.501  20.020  0.00  0.00    +0.000 HD
ENDBRANCH   3   5
BRANCH   2  17
ATOM     17  C   UNL     1       0.838   9.840  19.844  0.00  0.00    +0.000 A 
ATOM     18  C   UNL     1       0.026   9.596  20.933  0.00  0.00    +0.000 A 
ATOM     19  C   UNL     1      -0.302  10.779  21.672  0.00  0.00    +0.000 A 
ATOM     20  C   UNL     1       0.229  11.899  21.058  0.00  0.00    +0.000 A 
ATOM     21  S   UNL     1       1.054  11.515  19.610  0.00  0.00    +0.000 S 
ATOM     22  C   UNL     1       0.232  13.317  21.534  0.00  0.00    +0.000 C 
ATOM     23  C   UNL     1      -1.107  13.868  22.022  0.00  0.00    +0.000 C 
ATOM     24  C   UNL     1      -2.277  12.898  22.163  0.00  0.00    +0.000 C 
ATOM     25  C   UNL     1      -2.072  11.838  23.240  0.00  0.00    +0.000 C 
ATOM     26  C   UNL     1      -1.034  10.746  22.980  0.00  0.00    +0.000 C 
ENDBRANCH   2  17
TORSDOF 2
ENDMDL
MODEL 6
REMARK VINA RESULT:      -7.5      3.436      9.096
REMARK  Name = 
REMARK  2 active torsions:
REMARK  status: ('A' for Active; 'I' for Inactive)
REMARK    1  A    between atoms: C_2  and  C_14
REMARK    2  A    between atoms: N_3  and  C_4
REMARK                            x       y       z     vdW  Elec       q    Type
REMARK                         _______ _______ _______ _____ _____    ______ ____
ROOT
ATOM      1  O   UNL     1       1.254   6.257  20.876  0.00  0.00    +0.000 OA
ATOM      2  C   UNL     1       1.942   7.021  20.204  0.00  0.00    +0.000 C 
ATOM      3  N   UNL     1       1.818   8.403  20.218  0.00  0.00    +0.000 N 
ATOM      4  H   UNL     1       2.358   8.894  19.514  0.00  0.00    +0.000 HD
ENDROOT
BRANCH   3   5
ATOM      5  C   UNL     1       0.944   9.170  21.012  0.00  0.00    +0.000 A 
ATOM      6  C   UNL     1       0.799   8.958  22.404  0.00  0.00    +0.000 A 
ATOM      7  C   UNL     1      -0.095   9.703  23.176  0.00  0.00    +0.000 A 
ATOM      8  C   UNL     1      -0.822  10.659  22.515  0.00  0.00    +0.000 A 
ATOM      9  N   UNL     1      -1.783  11.532  23.010  0.00  0.00    +0.000 N 
ATOM     10  C   UNL     1      -2.255  12.320  21.953  0.00  0.00    +0.000 A 
ATOM     11  O   UNL     1      -3.106  13.189  22.019  0.00  0.00    +0.000 OA
ATOM     12  N   UNL     1      -1.556  11.917  20.806  0.00  0.00    +0.000 N 
ATOM     13  C   UNL     1      -0.678  10.894  21.153  0.00  0.00    +0.000 A 
ATOM     14  C   UNL     1       0.201  10.177  20.373  0.00  0.00    +0.000 A 
ATOM     15  H   UNL     1      -2.113  11.599  23.956  0.00  0.00    +0.000 HD
ATOM     16  H   UNL     1      -1.704  12.323  19.898  0.00  0.00    +0.000 HD
ENDBRANCH   3   5
BRANCH   2  17
ATOM     17  C   UNL     1       2.919   6.502  19.257  0.00  0.00    +0.000 A 
ATOM     18  C   UNL     1       3.205   7.023  18.011  0.00  0.00    +0.000 A 
ATOM     19  C   UNL     1       4.331   6.400  17.382  0.00  0.00    +0.000 A 
ATOM     20  C   UNL     1       4.817   5.367  18.164  0.00  0.00    +0.000 A 
ATOM     21  S   UNL     1       3.894   5.144  19.587  0.00  0.00    +0.000 S 
ATOM     22  C   UNL     1       6.035   4.525  17.956  0.00  0.00    +0.000 C 
ATOM     23  C   UNL     1       6.216   3.933  16.559  0.00  0.00    +0.000 C 
ATOM     24  C   UNL     1       5.265   4.388  15.454  0.00  0.00    +0.000 C 
ATOM     25  C   UNL     1       5.408   5.861  15.087  0.00  0.00    +0.000 C 
ATOM     26  C   UNL     1       4.930   6.901  16.101  0.00  0.00    +0.000 C 
ENDBRANCH   2  17
TORSDOF 2
ENDMDL
MODEL 7
REMARK VINA RESULT:      -7.3      3.810      8.619
REMARK  Name = 
REMARK  2 active torsions:
REMARK  status: ('A' for Active; 'I' for Inactive)
REMARK    1  A    between atoms: C_2  and  C_14
REMARK    2  A    between atoms: N_3  and  C_4
REMARK                            x       y       z     vdW  Elec       q    Type
REMARK                         _______ _______ _______ _____ _____    ______ ____
ROOT
ATOM      1  O   UNL     1       1.398   8.743  20.921  0.00  0.00    +0.000 OA
ATOM      2  C   UNL     1       1.637   8.474  19.747  0.00  0.00    +0.000 C 
ATOM      3  N   UNL     1       1.309   9.291  18.674  0.00  0.00    +0.000 N 
ATOM      4  H   UNL     1       1.446   8.879  17.758  0.00  0.00    +0.000 HD
ENDROOT
BRANCH   3   5
ATOM      5  C   UNL     1       0.702  10.561  18.727  0.00  0.00    +0.000 A 
ATOM      6  C   UNL     1      -0.704  10.730  18.731  0.00  0.00    +0.000 A 
ATOM      7  C   UNL     1      -1.295  11.996  18.751  0.00  0.00    +0.000 A 
ATOM      8  C   UNL     1      -0.441  13.067  18.776  0.00  0.00    +0.000 A 
ATOM      9  N   UNL     1      -0.735  14.426  18.787  0.00  0.00    +0.000 N 
ATOM     10  C   UNL     1       0.469  15.141  18.805  0.00  0.00    +0.000 A 
ATOM     11  O   UNL     1       0.594  16.353  18.813  0.00  0.00    +0.000 OA
ATOM     12  N   UNL     1       1.502  14.192  18.814  0.00  0.00    +0.000 N 
ATOM     13  C   UNL     1       0.940  12.918  18.793  0.00  0.00    +0.000 A 
ATOM     14  C   UNL     1       1.546  11.682  18.780  0.00  0.00    +0.000 A 
ATOM     15  H   UNL     1      -1.644  14.851  18.771  0.00  0.00    +0.000 HD
ATOM     16  H   UNL     1       2.477  14.437  18.825  0.00  0.00    +0.000 HD
ENDBRANCH   3   5
BRANCH   2  17
ATOM     17  C   UNL     1       2.239   7.198  19.386  0.00  0.00    +0.000 A 
ATOM     18  C   UNL     1       3.031   6.953  18.281  0.00  0.00    +0.000 A 
ATOM     19  C   UNL     1       3.616   5.645  18.285  0.00  0.00    +0.000 A 
ATOM     20  C   UNL     1       3.178   4.917  19.376  0.00  0.00    +0.000 A 
ATOM     21  S   UNL     1       2.057   5.791  20.329  0.00  0.00    +0.000 S 
ATOM     22  C   UNL     1       3.611   3.561  19.835  0.00  0.00    +0.000 C 
ATOM     23  C   UNL     1       3.657   2.470  18.766  0.00  0.00    +0.000 C 
ATOM     24  C   UNL     1       3.447   2.878  17.310  0.00  0.00    +0.000 C 
ATOM     25  C   UNL     1       4.551   3.773  16.756  0.00  0.00    +0.000 C 
ATOM     26  C   UNL     1       4.637   5.207  17.278  0.00  0.00    +0.000 C 
ENDBRANCH   2  17
TORSDOF 2
ENDMDL
MODEL 8
REMARK VINA RESULT:      -7.3      3.913      8.462
REMARK  Name = 
REMARK  2 active torsions:
REMARK  status: ('A' for Active; 'I' for Inactive)
REMARK    1  A    between atoms: C_2  and  C_14
REMARK    2  A    between atoms: N_3  and  C_4
REMARK                            x       y       z     vdW  Elec       q    Type
REMARK                         _______ _______ _______ _____ _____    ______ ____
ROOT
ATOM      1  O   UNL     1       1.406   9.079  21.307  0.00  0.00    +0.000 OA
ATOM      2  C   UNL     1       1.440   8.689  20.143  0.00  0.00    +0.000 C 
ATOM      3  N   UNL     1       0.974   9.418  19.059  0.00  0.00    +0.000 N 
ATOM      4  H   UNL     1       0.943   8.916  18.179  0.00  0.00    +0.000 HD
ENDROOT
BRANCH   3   5
ATOM      5  C   UNL     1       0.434  10.719  19.078  0.00  0.00    +0.000 A 
ATOM      6  C   UNL     1      -0.952  10.964  19.229  0.00  0.00    +0.000 A 
ATOM      7  C   UNL     1      -1.479  12.258  19.215  0.00  0.00    +0.000 A 
ATOM      8  C   UNL     1      -0.581  13.280  19.055  0.00  0.00    +0.000 A 
ATOM      9  N   UNL     1      -0.810  14.650  18.990  0.00  0.00    +0.000 N 
ATOM     10  C   UNL     1       0.418  15.299  18.812  0.00  0.00    +0.000 A 
ATOM     11  O   UNL     1       0.597  16.499  18.707  0.00  0.00    +0.000 OA
ATOM     12  N   UNL     1       1.401  14.298  18.779  0.00  0.00    +0.000 N 
ATOM     13  C   UNL     1       0.784  13.059  18.926  0.00  0.00    +0.000 A 
ATOM     14  C   UNL     1       1.328  11.794  18.943  0.00  0.00    +0.000 A 
ATOM     15  H   UNL     1      -1.695  15.121  19.044  0.00  0.00    +0.000 HD
ATOM     16  H   UNL     1       2.381  14.490  18.658  0.00  0.00    +0.000 HD
ENDBRANCH   3   5
BRANCH   2  17
ATOM     17  C   UNL     1       1.923   7.353  19.822  0.00  0.00    +0.000 A 
ATOM     18  C   UNL     1       1.801   6.228  20.614  0.00  0.00    +0.000 A 
ATOM     19  C   UNL     1       2.221   5.026  19.957  0.00  0.00    +0.000 A 
ATOM     20  C   UNL     1       2.717   5.306  18.697  0.00  0.00    +0.000 A 
ATOM     21  S   UNL     1       2.711   6.983  18.357  0.00  0.00    +0.000 S 
ATOM     22  C   UNL     1       3.157   4.356  17.629  0.00  0.00    +0.000 C 
ATOM     23  C   UNL     1       4.107   3.242  18.066  0.00  0.00    +0.000 C 
ATOM     24  C   UNL     1       4.378   3.071  19.559  0.00  0.00    +0.000 C 
ATOM     25  C   UNL     1       3.154   2.643  20.362  0.00  0.00    +0.000 C 
ATOM     26  C   UNL     1       2.032   3.663  20.555  0.00  0.00    +0.000 C 
ENDBRANCH   2  17
TORSDOF 2
ENDMDL
MODEL 9
REMARK VINA RESULT:      -7.3      2.120      2.924
REMARK  Name = 
REMARK  2 active torsions:
REMARK  status: ('A' for Active; 'I' for Inactive)
REMARK    1  A    between atoms: C_2  and  C_14
REMARK    2  A    between atoms: N_3  and  C_4
REMARK                            x       y       z     vdW  Elec       q    Type
REMARK                         _______ _______ _______ _____ _____    ______ ____
ROOT
ATOM      1  O   UNL     1       1.649   9.021  17.696  0.00  0.00    +0.000 OA
ATOM      2  C   UNL     1       1.489   8.868  18.904  0.00  0.00    +0.000 C 
ATOM      3  N   UNL     1       1.909   7.752  19.614  0.00  0.00    +0.000 N 
ATOM      4  H   UNL     1       1.589   7.703  20.575  0.00  0.00    +0.000 HD
ENDROOT
BRANCH   3   5
ATOM      5  C   UNL     1       2.616   6.642  19.112  0.00  0.00    +0.000 A 
ATOM      6  C   UNL     1       3.662   6.773  18.168  0.00  0.00    +0.000 A 
ATOM      7  C   UNL     1       4.336   5.662  17.652  0.00  0.00    +0.000 A 
ATOM      8  C   UNL     1       3.934   4.437  18.116  0.00  0.00    +0.000 A 
ATOM      9  N   UNL     1       4.404   3.172  17.781  0.00  0.00    +0.000 N 
ATOM     10  C   UNL     1       3.680   2.221  18.510  0.00  0.00    +0.000 A 
ATOM     11  O   UNL     1       3.819   1.011  18.465  0.00  0.00    +0.000 OA
ATOM     12  N   UNL     1       2.767   2.931  19.304  0.00  0.00    +0.000 N 
ATOM     13  C   UNL     1       2.923   4.292  19.058  0.00  0.00    +0.000 A 
ATOM     14  C   UNL     1       2.250   5.371  19.585  0.00  0.00    +0.000 A 
ATOM     15  H   UNL     1       5.127   2.948  17.121  0.00  0.00    +0.000 HD
ATOM     16  H   UNL     1       2.116   2.486  19.929  0.00  0.00    +0.000 HD
ENDBRANCH   3   5
BRANCH   2  17
ATOM     17  C   UNL     1       0.753   9.852  19.687  0.00  0.00    +0.000 A 
ATOM     18  C   UNL     1      -0.037  10.867  19.187  0.00  0.00    +0.000 A 
ATOM     19  C   UNL     1      -0.767  11.567  20.201  0.00  0.00    +0.000 A 
ATOM     20  C   UNL     1      -0.439  11.088  21.457  0.00  0.00    +0.000 A 
ATOM     21  S   UNL     1       0.753   9.863  21.391  0.00  0.00    +0.000 S 
ATOM     22  C   UNL     1      -1.034  11.444  22.782  0.00  0.00    +0.000 C 
ATOM     23  C   UNL     1      -1.180  12.937  23.077  0.00  0.00    +0.000 C 
ATOM     24  C   UNL     1      -0.894  13.926  21.950  0.00  0.00    +0.000 C 
ATOM     25  C   UNL     1      -1.876  13.835  20.787  0.00  0.00    +0.000 C 
ATOM     26  C   UNL     1      -1.810  12.599  19.889  0.00  0.00    +0.000 C 
ENDBRANCH   2  17
TORSDOF 2
ENDMDL
