MODEL 1
REMARK VINA RESULT:      -8.1      0.000      0.000
REMARK  Name = 
REMARK  5 active torsions:
REMARK  status: ('A' for Active; 'I' for Inactive)
REMARK    1  A    between atoms: C_1  and  C_2
REMARK    2  A    between atoms: N_4  and  C_5
REMARK    3  A    between atoms: C_8  and  O_9
REMARK    4  A    between atoms: O_9  and  C_10
REMARK    5  A    between atoms: C_16  and  C_17
REMARK                            x       y       z     vdW  Elec       q    Type
REMARK                         _______ _______ _______ _____ _____    ______ ____
ROOT
ATOM      1  C   UNL     1       0.967   9.599  19.611  0.00  0.00    +0.000 A 
ATOM      2  N   UNL     1       0.441   9.568  20.863  0.00  0.00    +0.000 NA
ATOM      3  C   UNL     1       0.648   8.478  21.605  0.00  0.00    +0.000 A 
ATOM      4  N   UNL     1       1.366   7.404  21.278  0.00  0.00    +0.000 NA
ATOM      5  C   UNL     1       1.936   7.469  20.050  0.00  0.00    +0.000 A 
ATOM      6  C   UNL     1       2.764   6.456  19.491  0.00  0.00    +0.000 A 
ATOM      7  C   UNL     1       3.197   6.747  18.212  0.00  0.00    +0.000 A 
ATOM      8  S   UNL     1       2.579   8.271  17.703  0.00  0.00    +0.000 S 
ATOM      9  C   UNL     1       1.759   8.540  19.183  0.00  0.00    +0.000 A 
ENDROOT
BRANCH   7  10
ATOM     10  C   UNL     1       4.032   5.922  17.320  0.00  0.00    +0.000 A 
ATOM     11  C   UNL     1       4.016   4.520  17.444  0.00  0.00    +0.000 A 
ATOM     12  C   UNL     1       4.796   3.715  16.609  0.00  0.00    +0.000 A 
ATOM     13  C   UNL     1       5.600   4.307  15.645  0.00  0.00    +0.000 A 
ATOM     14  F   UNL     1       6.343   3.536  14.840  0.00  0.00    +0.000 F 
ATOM     15  C   UNL     1       5.645   5.687  15.506  0.00  0.00    +0.000 A 
ATOM     16  C   UNL     1       4.867   6.492  16.344  0.00  0.00    +0.000 A 
ENDBRANCH   7  10
BRANCH   1  17
ATOM     17  O   UNL     1       0.685  10.685  18.791  0.00  0.00    +0.000 OA
BRANCH  17  21
ATOM     18  C   UNL     1      -3.322  11.580  17.951  0.00  0.00    +0.000 A 
ATOM     19  C   UNL     1      -2.557  12.380  18.805  0.00  0.00    +0.000 A 
ATOM     20  C   UNL     1      -1.220  12.060  19.084  0.00  0.00    +0.000 A 
ATOM     21  C   UNL     1      -0.645  10.927  18.515  0.00  0.00    +0.000 A 
ATOM     22  C   UNL     1      -1.406  10.127  17.657  0.00  0.00    +0.000 A 
ATOM     23  C   UNL     1      -2.744  10.428  17.409  0.00  0.00    +0.000 A 
BRANCH  18  27
ATOM     24  C   UNL     1      -7.026  12.220  17.739  0.00  0.00    +0.000 C 
ATOM     25  C   UNL     1      -5.743  11.853  18.433  0.00  0.00    +0.000 C 
ATOM     26  O   UNL     1      -5.739  11.587  19.633  0.00  0.00    +0.000 OA
ATOM     27  N   UNL     1      -4.652  11.874  17.588  0.00  0.00    +0.000 N 
ATOM     28  H   UNL     1      -4.788  12.267  16.665  0.00  0.00    +0.000 HD
ENDBRANCH  18  27
ENDBRANCH  17  21
ENDBRANCH   1  17
TORSDOF 4
ENDMDL
MODEL 2
REMARK VINA RESULT:      -8.0      0.589      1.098
REMARK  Name = 
REMARK  5 active torsions:
REMARK  status: ('A' for Active; 'I' for Inactive)
REMARK    1  A    between atoms: C_1  and  C_2
REMARK    2  A    between atoms: N_4  and  C_5
REMARK    3  A    between atoms: C_8  and  O_9
REMARK    4  A    between atoms: O_9  and  C_10
REMARK    5  A    between atoms: C_16  and  C_17
REMARK                            x       y       z     vdW  Elec       q    Type
REMARK                         _______ _______ _______ _____ _____    ______ ____
ROOT
ATOM      1  C   UNL     1       1.340   9.244  19.681  0.00  0.00    +0.000 A 
ATOM      2  N   UNL     1       0.741   9.080  20.889  0.00  0.00    +0.000 NA
ATOM      3  C   UNL     1       0.837   7.887  21.482  0.00  0.00    +0.000 A 
ATOM      4  N   UNL     1       1.504   6.821  21.043  0.00  0.00    +0.000 NA
ATOM      5  C   UNL     1       2.147   7.012  19.866  0.00  0.00    +0.000 A 
ATOM      6  C   UNL     1       2.942   6.029  19.212  0.00  0.00    +0.000 A 
ATOM      7  C   UNL     1       3.466   6.461  18.009  0.00  0.00    +0.000 A 
ATOM      8  S   UNL     1       2.974   8.079  17.688  0.00  0.00    +0.000 S 
ATOM      9  C   UNL     1       2.088   8.200  19.149  0.00  0.00    +0.000 A 
ENDROOT
BRANCH   7  10
ATOM     10  C   UNL     1       4.297   5.708  17.052  0.00  0.00    +0.000 A 
ATOM     11  C   UNL     1       5.027   6.397  16.064  0.00  0.00    +0.000 A 
ATOM     12  C   UNL     1       5.824   5.707  15.147  0.00  0.00    +0.000 A 
ATOM     13  C   UNL     1       5.896   4.323  15.209  0.00  0.00    +0.000 A 
ATOM     14  F   UNL     1       6.666   3.661  14.335  0.00  0.00    +0.000 F 
ATOM     15  C   UNL     1       5.181   3.616  16.164  0.00  0.00    +0.000 A 
ATOM     16  C   UNL     1       4.380   4.306  17.080  0.00  0.00    +0.000 A 
ENDBRANCH   7  10
BRANCH   1  17
ATOM     17  O   UNL     1       1.174  10.449  19.008  0.00  0.00    +0.000 OA
BRANCH  17  21
ATOM     18  C   UNL     1      -2.676  11.576  17.795  0.00  0.00    +0.000 A 
ATOM     19  C   UNL     1      -1.911  12.381  18.645  0.00  0.00    +0.000 A 
ATOM     20  C   UNL     1      -0.629  11.983  19.050  0.00  0.00    +0.000 A 
ATOM     21  C   UNL     1      -0.108  10.768  18.612  0.00  0.00    +0.000 A 
ATOM     22  C   UNL     1      -0.869   9.963  17.758  0.00  0.00    +0.000 A 
ATOM     23  C   UNL     1      -2.157  10.344  17.385  0.00  0.00    +0.000 A 
BRANCH  18  27
ATOM     24  C   UNL     1      -6.302  12.421  17.237  0.00  0.00    +0.000 C 
ATOM     25  C   UNL     1      -5.111  11.989  18.049  0.00  0.00    +0.000 C 
ATOM     26  O   UNL     1      -5.234  11.735  19.245  0.00  0.00    +0.000 OA
ATOM     27  N   UNL     1      -3.948  11.941  17.309  0.00  0.00    +0.000 N 
ATOM     28  H   UNL     1      -3.976  12.332  16.375  0.00  0.00    +0.000 HD
ENDBRANCH  18  27
ENDBRANCH  17  21
ENDBRANCH   1  17
TORSDOF 4
ENDMDL
MODEL 3
REMARK VINA RESULT:      -7.9      0.661      1.138
REMARK  Name = 
REMARK  5 active torsions:
REMARK  status: ('A' for Active; 'I' for Inactive)
REMARK    1  A    between atoms: C_1  and  C_2
REMARK    2  A    between atoms: N_4  and  C_5
REMARK    3  A    between atoms: C_8  and  O_9
REMARK    4  A    between atoms: O_9  and  C_10
REMARK    5  A    between atoms: C_16  and  C_17
REMARK                            x       y       z     vdW  Elec       q    Type
REMARK                         _______ _______ _______ _____ _____    ______ ____
ROOT
ATOM      1  C   UNL     1       0.648   9.868  19.644  0.00  0.00    +0.000 A 
ATOM      2  N   UNL     1       0.182   9.921  20.918  0.00  0.00    +0.000 NA
ATOM      3  C   UNL     1       0.470   8.906  21.736  0.00  0.00    +0.000 A 
ATOM      4  N   UNL     1       1.217   7.838  21.461  0.00  0.00    +0.000 NA
ATOM      5  C   UNL     1       1.726   7.822  20.206  0.00  0.00    +0.000 A 
ATOM      6  C   UNL     1       2.571   6.799  19.691  0.00  0.00    +0.000 A 
ATOM      7  C   UNL     1       2.931   7.000  18.372  0.00  0.00    +0.000 A 
ATOM      8  S   UNL     1       2.225   8.450  17.773  0.00  0.00    +0.000 S 
ATOM      9  C   UNL     1       1.464   8.809  19.264  0.00  0.00    +0.000 A 
ENDROOT
BRANCH   7  10
ATOM     10  C   UNL     1       3.758   6.137  17.510  0.00  0.00    +0.000 A 
ATOM     11  C   UNL     1       3.602   4.738  17.561  0.00  0.00    +0.000 A 
ATOM     12  C   UNL     1       4.372   3.898  16.752  0.00  0.00    +0.000 A 
ATOM     13  C   UNL     1       5.306   4.450  15.887  0.00  0.00    +0.000 A 
ATOM     14  F   UNL     1       6.041   3.646  15.107  0.00  0.00    +0.000 F 
ATOM     15  C   UNL     1       5.491   5.823  15.822  0.00  0.00    +0.000 A 
ATOM     16  C   UNL     1       4.723   6.664  16.634  0.00  0.00    +0.000 A 
ENDBRANCH   7  10
BRANCH   1  17
ATOM     17  O   UNL     1       0.281  10.871  18.753  0.00  0.00    +0.000 OA
BRANCH  17  21
ATOM     18  C   UNL     1      -3.839  11.595  18.494  0.00  0.00    +0.000 A 
ATOM     19  C   UNL     1      -3.247  10.496  17.864  0.00  0.00    +0.000 A 
ATOM     20  C   UNL     1      -1.865  10.274  17.951  0.00  0.00    +0.000 A 
ATOM     21  C   UNL     1      -1.064  11.162  18.665  0.00  0.00    +0.000 A 
ATOM     22  C   UNL     1      -1.653  12.260  19.301  0.00  0.00    +0.000 A 
ATOM     23  C   UNL     1      -3.022  12.496  19.183  0.00  0.00    +0.000 A 
BRANCH  18  27
ATOM     24  C   UNL     1      -7.483  12.145  19.258  0.00  0.00    +0.000 C 
ATOM     25  C   UNL     1      -6.051  11.834  19.596  0.00  0.00    +0.000 C 
ATOM     26  O   UNL     1      -5.719  11.617  20.759  0.00  0.00    +0.000 OA
ATOM     27  N   UNL     1      -5.226  11.845  18.490  0.00  0.00    +0.000 N 
ATOM     28  H   UNL     1      -5.615  12.197  17.624  0.00  0.00    +0.000 HD
ENDBRANCH  18  27
ENDBRANCH  17  21
ENDBRANCH   1  17
TORSDOF 4
ENDMDL
MODEL 4
REMARK VINA RESULT:      -7.9      2.261      3.887
REMARK  Name = 
REMARK  5 active torsions:
REMARK  status: ('A' for Active; 'I' for Inactive)
REMARK    1  A    between atoms: C_1  and  C_2
REMARK    2  A    between atoms: N_4  and  C_5
REMARK    3  A    between atoms: C_8  and  O_9
REMARK    4  A    between atoms: O_9  and  C_10
REMARK    5  A    between atoms: C_16  and  C_17
REMARK                            x       y       z     vdW  Elec       q    Type
REMARK                         _______ _______ _______ _____ _____    ______ ____
ROOT
ATOM      1  C   UNL     1       2.463   5.706  19.774  0.00  0.00    +0.000 A 
ATOM      2  N   UNL     1       1.523   4.933  20.377  0.00  0.00    +0.000 NA
ATOM      3  C   UNL     1       1.215   3.763  19.813  0.00  0.00    +0.000 A 
ATOM      4  N   UNL     1       1.763   3.224  18.725  0.00  0.00    +0.000 NA
ATOM      5  C   UNL     1       2.741   3.975  18.164  0.00  0.00    +0.000 A 
ATOM      6  C   UNL     1       3.487   3.598  17.012  0.00  0.00    +0.000 A 
ATOM      7  C   UNL     1       4.407   4.552  16.619  0.00  0.00    +0.000 A 
ATOM      8  S   UNL     1       4.346   5.911  17.674  0.00  0.00    +0.000 S 
ATOM      9  C   UNL     1       3.118   5.221  18.649  0.00  0.00    +0.000 A 
ENDROOT
BRANCH   7  10
ATOM     10  C   UNL     1       5.318   4.520  15.462  0.00  0.00    +0.000 A 
ATOM     11  C   UNL     1       4.943   3.830  14.293  0.00  0.00    +0.000 A 
ATOM     12  C   UNL     1       5.789   3.787  13.181  0.00  0.00    +0.000 A 
ATOM     13  C   UNL     1       7.016   4.432  13.230  0.00  0.00    +0.000 A 
ATOM     14  F   UNL     1       7.825   4.396  12.162  0.00  0.00    +0.000 F 
ATOM     15  C   UNL     1       7.418   5.111  14.371  0.00  0.00    +0.000 A 
ATOM     16  C   UNL     1       6.573   5.151  15.485  0.00  0.00    +0.000 A 
ENDBRANCH   7  10
BRANCH   1  17
ATOM     17  O   UNL     1       2.730   6.967  20.296  0.00  0.00    +0.000 OA
BRANCH  17  21
ATOM     18  C   UNL     1      -0.013   9.946  19.217  0.00  0.00    +0.000 A 
ATOM     19  C   UNL     1       0.942   9.468  18.314  0.00  0.00    +0.000 A 
ATOM     20  C   UNL     1       1.860   8.478  18.695  0.00  0.00    +0.000 A 
ATOM     21  C   UNL     1       1.833   7.968  19.990  0.00  0.00    +0.000 A 
ATOM     22  C   UNL     1       0.876   8.440  20.895  0.00  0.00    +0.000 A 
ATOM     23  C   UNL     1      -0.013   9.449  20.524  0.00  0.00    +0.000 A 
BRANCH  18  27
ATOM     24  C   UNL     1      -3.015  11.874  18.017  0.00  0.00    +0.000 C 
ATOM     25  C   UNL     1      -2.176  10.641  18.217  0.00  0.00    +0.000 C 
ATOM     26  O   UNL     1      -2.571   9.549  17.816  0.00  0.00    +0.000 OA
ATOM     27  N   UNL     1      -0.996  10.900  18.883  0.00  0.00    +0.000 N 
ATOM     28  H   UNL     1      -0.885  11.820  19.290  0.00  0.00    +0.000 HD
ENDBRANCH  18  27
ENDBRANCH  17  21
ENDBRANCH   1  17
TORSDOF 4
ENDMDL
MODEL 5
REMARK VINA RESULT:      -7.8      3.114      4.557
REMARK  Name = 
REMARK  5 active torsions:
REMARK  status: ('A' for Active; 'I' for Inactive)
REMARK    1  A    between atoms: C_1  and  C_2
REMARK    2  A    between atoms: N_4  and  C_5
REMARK    3  A    between atoms: C_8  and  O_9
REMARK    4  A    between atoms: O_9  and  C_10
REMARK    5  A    between atoms: C_16  and  C_17
REMARK                            x       y       z     vdW  Elec       q    Type
REMARK                         _______ _______ _______ _____ _____    ______ ____
ROOT
ATOM      1  C   UNL     1       2.514   5.308  19.589  0.00  0.00    +0.000 A 
ATOM      2  N   UNL     1       1.545   4.522  20.124  0.00  0.00    +0.000 NA
ATOM      3  C   UNL     1       1.200   3.413  19.465  0.00  0.00    +0.000 A 
ATOM      4  N   UNL     1       1.736   2.945  18.339  0.00  0.00    +0.000 NA
ATOM      5  C   UNL     1       2.743   3.706  17.843  0.00  0.00    +0.000 A 
ATOM      6  C   UNL     1       3.482   3.398  16.667  0.00  0.00    +0.000 A 
ATOM      7  C   UNL     1       4.436   4.348  16.356  0.00  0.00    +0.000 A 
ATOM      8  S   UNL     1       4.416   5.618  17.518  0.00  0.00    +0.000 S 
ATOM      9  C   UNL     1       3.159   4.894  18.430  0.00  0.00    +0.000 A 
ENDROOT
BRANCH   7  10
ATOM     10  C   UNL     1       5.352   4.379  15.203  0.00  0.00    +0.000 A 
ATOM     11  C   UNL     1       5.019   3.685  14.024  0.00  0.00    +0.000 A 
ATOM     12  C   UNL     1       5.870   3.700  12.915  0.00  0.00    +0.000 A 
ATOM     13  C   UNL     1       7.062   4.409  12.978  0.00  0.00    +0.000 A 
ATOM     14  F   UNL     1       7.875   4.429  11.913  0.00  0.00    +0.000 F 
ATOM     15  C   UNL     1       7.422   5.094  14.129  0.00  0.00    +0.000 A 
ATOM     16  C   UNL     1       6.572   5.075  15.239  0.00  0.00    +0.000 A 
ENDBRANCH   7  10
BRANCH   1  17
ATOM     17  O   UNL     1       2.822   6.512  20.212  0.00  0.00    +0.000 OA
BRANCH  17  21
ATOM     18  C   UNL     1       0.635   9.935  19.180  0.00  0.00    +0.000 A 
ATOM     19  C   UNL     1       0.581   9.393  20.467  0.00  0.00    +0.000 A 
ATOM     20  C   UNL     1       1.311   8.240  20.793  0.00  0.00    +0.000 A 
ATOM     21  C   UNL     1       2.093   7.617  19.824  0.00  0.00    +0.000 A 
ATOM     22  C   UNL     1       2.153   8.160  18.536  0.00  0.00    +0.000 A 
ATOM     23  C   UNL     1       1.400   9.285  18.206  0.00  0.00    +0.000 A 
BRANCH  18  27
ATOM     24  C   UNL     1      -0.461  13.442  18.362  0.00  0.00    +0.000 C 
ATOM     25  C   UNL     1       0.505  12.390  18.834  0.00  0.00    +0.000 C 
ATOM     26  O   UNL     1       1.642  12.702  19.182  0.00  0.00    +0.000 OA
ATOM     27  N   UNL     1      -0.030  11.119  18.802  0.00  0.00    +0.000 N 
ATOM     28  H   UNL     1      -0.924  11.004  18.340  0.00  0.00    +0.000 HD
ENDBRANCH  18  27
ENDBRANCH  17  21
ENDBRANCH   1  17
TORSDOF 4
ENDMDL
MODEL 6
REMARK VINA RESULT:      -7.7      3.119      4.446
REMARK  Name = 
REMARK  5 active torsions:
REMARK  status: ('A' for Active; 'I' for Inactive)
REMARK    1  A    between atoms: C_1  and  C_2
REMARK    2  A    between atoms: N_4  and  C_5
REMARK    3  A    between atoms: C_8  and  O_9
REMARK    4  A    between atoms: O_9  and  C_10
REMARK    5  A    between atoms: C_16  and  C_17
REMARK                            x       y       z     vdW  Elec       q    Type
REMARK                         _______ _______ _______ _____ _____    ______ ____
ROOT
ATOM      1  C   UNL     1       2.178   5.336  19.991  0.00  0.00    +0.000 A 
ATOM      2  N   UNL     1       1.183   4.536  20.454  0.00  0.00    +0.000 NA
ATOM      3  C   UNL     1       0.875   3.444  19.750  0.00  0.00    +0.000 A 
ATOM      4  N   UNL     1       1.470   3.006  18.641  0.00  0.00    +0.000 NA
ATOM      5  C   UNL     1       2.500   3.780  18.219  0.00  0.00    +0.000 A 
ATOM      6  C   UNL     1       3.300   3.503  17.075  0.00  0.00    +0.000 A 
ATOM      7  C   UNL     1       4.267   4.461  16.840  0.00  0.00    +0.000 A 
ATOM      8  S   UNL     1       4.184   5.701  18.031  0.00  0.00    +0.000 S 
ATOM      9  C   UNL     1       2.884   4.953  18.857  0.00  0.00    +0.000 A 
ENDROOT
BRANCH   7  10
ATOM     10  C   UNL     1       5.242   4.523  15.736  0.00  0.00    +0.000 A 
ATOM     11  C   UNL     1       6.433   5.258  15.893  0.00  0.00    +0.000 A 
ATOM     12  C   UNL     1       7.375   5.330  14.863  0.00  0.00    +0.000 A 
ATOM     13  C   UNL     1       7.132   4.669  13.667  0.00  0.00    +0.000 A 
ATOM     14  F   UNL     1       8.037   4.732  12.681  0.00  0.00    +0.000 F 
ATOM     15  C   UNL     1       5.963   3.945  13.479  0.00  0.00    +0.000 A 
ATOM     16  C   UNL     1       5.019   3.876  14.509  0.00  0.00    +0.000 A 
ENDBRANCH   7  10
BRANCH   1  17
ATOM     17  O   UNL     1       2.451   6.523  20.661  0.00  0.00    +0.000 OA
BRANCH  17  21
ATOM     18  C   UNL     1       0.537  10.037  19.412  0.00  0.00    +0.000 A 
ATOM     19  C   UNL     1       0.395   9.549  20.715  0.00  0.00    +0.000 A 
ATOM     20  C   UNL     1       1.034   8.365  21.113  0.00  0.00    +0.000 A 
ATOM     21  C   UNL     1       1.812   7.656  20.202  0.00  0.00    +0.000 A 
ATOM     22  C   UNL     1       1.961   8.144  18.900  0.00  0.00    +0.000 A 
ATOM     23  C   UNL     1       1.298   9.302  18.497  0.00  0.00    +0.000 A 
BRANCH  18  27
ATOM     24  C   UNL     1      -0.320  13.583  18.486  0.00  0.00    +0.000 C 
ATOM     25  C   UNL     1       0.542  12.495  19.065  0.00  0.00    +0.000 C 
ATOM     26  O   UNL     1       1.640  12.763  19.548  0.00  0.00    +0.000 OA
ATOM     27  N   UNL     1      -0.033  11.245  18.963  0.00  0.00    +0.000 N 
ATOM     28  H   UNL     1      -0.869  11.164  18.398  0.00  0.00    +0.000 HD
ENDBRANCH  18  27
ENDBRANCH  17  21
ENDBRANCH   1  17
TORSDOF 4
ENDMDL
MODEL 7
REMARK VINA RESULT:      -7.7      0.319      1.349
REMARK  Name = 
REMARK  5 active torsions:
REMARK  status: ('A' for Active; 'I' for Inactive)
REMARK    1  A    between atoms: C_1  and  C_2
REMARK    2  A    between atoms: N_4  and  C_5
REMARK    3  A    between atoms: C_8  and  O_9
REMARK    4  A    between atoms: O_9  and  C_10
REMARK    5  A    between atoms: C_16  and  C_17
REMARK                            x       y       z     vdW  Elec       q    Type
REMARK                         _______ _______ _______ _____ _____    ______ ____
ROOT
ATOM      1  C   UNL     1       1.033   9.433  19.724  0.00  0.00    +0.000 A 
ATOM      2  N   UNL     1       0.407   9.323  20.924  0.00  0.00    +0.000 NA
ATOM      3  C   UNL     1       0.493   8.161  21.574  0.00  0.00    +0.000 A 
ATOM      4  N   UNL     1       1.174   7.078  21.202  0.00  0.00    +0.000 NA
ATOM      5  C   UNL     1       1.844   7.216  20.032  0.00  0.00    +0.000 A 
ATOM      6  C   UNL     1       2.658   6.208  19.444  0.00  0.00    +0.000 A 
ATOM      7  C   UNL     1       3.208   6.585  18.234  0.00  0.00    +0.000 A 
ATOM      8  S   UNL     1       2.718   8.183  17.826  0.00  0.00    +0.000 S 
ATOM      9  C   UNL     1       1.797   8.370  19.259  0.00  0.00    +0.000 A 
ENDROOT
BRANCH   7  10
ATOM     10  C   UNL     1       4.064   5.792  17.334  0.00  0.00    +0.000 A 
ATOM     11  C   UNL     1       4.835   6.440  16.349  0.00  0.00    +0.000 A 
ATOM     12  C   UNL     1       5.656   5.712  15.484  0.00  0.00    +0.000 A 
ATOM     13  C   UNL     1       5.712   4.330  15.596  0.00  0.00    +0.000 A 
ATOM     14  F   UNL     1       6.505   3.631  14.772  0.00  0.00    +0.000 F 
ATOM     15  C   UNL     1       4.957   3.662  16.549  0.00  0.00    +0.000 A 
ATOM     16  C   UNL     1       4.132   4.391  17.412  0.00  0.00    +0.000 A 
ENDBRANCH   7  10
BRANCH   1  17
ATOM     17  O   UNL     1       0.879  10.604  18.991  0.00  0.00    +0.000 OA
BRANCH  17  21
ATOM     18  C   UNL     1      -3.073  11.505  17.925  0.00  0.00    +0.000 A 
ATOM     19  C   UNL     1      -2.396  10.414  17.372  0.00  0.00    +0.000 A 
ATOM     20  C   UNL     1      -1.070  10.133  17.731  0.00  0.00    +0.000 A 
ATOM     21  C   UNL     1      -0.409  10.953  18.642  0.00  0.00    +0.000 A 
ATOM     22  C   UNL     1      -1.085  12.043  19.202  0.00  0.00    +0.000 A 
ATOM     23  C   UNL     1      -2.392  12.339  18.817  0.00  0.00    +0.000 A 
BRANCH  18  27
ATOM     24  C   UNL     1      -6.817  11.887  17.824  0.00  0.00    +0.000 C 
ATOM     25  C   UNL     1      -5.512  11.384  18.377  0.00  0.00    +0.000 C 
ATOM     26  O   UNL     1      -5.494  10.682  19.386  0.00  0.00    +0.000 OA
ATOM     27  N   UNL     1      -4.421  11.811  17.648  0.00  0.00    +0.000 N 
ATOM     28  H   UNL     1      -4.584  12.514  16.938  0.00  0.00    +0.000 HD
ENDBRANCH  18  27
ENDBRANCH  17  21
ENDBRANCH   1  17
TORSDOF 4
ENDMDL
MODEL 8
REMARK VINA RESULT:      -7.6      2.383      4.169
REMARK  Name = 
REMARK  5 active torsions:
REMARK  status: ('A' for Active; 'I' for Inactive)
REMARK    1  A    between atoms: C_1  and  C_2
REMARK    2  A    between atoms: N_4  and  C_5
REMARK    3  A    between atoms: C_8  and  O_9
REMARK    4  A    between atoms: O_9  and  C_10
REMARK    5  A    between atoms: C_16  and  C_17
REMARK                            x       y       z     vdW  Elec       q    Type
REMARK                         _______ _______ _______ _____ _____    ______ ____
ROOT
ATOM      1  C   UNL     1       2.165   5.112  20.098  0.00  0.00    +0.000 A 
ATOM      2  N   UNL     1       1.159   4.296  20.506  0.00  0.00    +0.000 NA
ATOM      3  C   UNL     1       0.845   3.252  19.736  0.00  0.00    +0.000 A 
ATOM      4  N   UNL     1       1.444   2.874  18.607  0.00  0.00    +0.000 NA
ATOM      5  C   UNL     1       2.485   3.660  18.239  0.00  0.00    +0.000 A 
ATOM      6  C   UNL     1       3.291   3.444  17.087  0.00  0.00    +0.000 A 
ATOM      7  C   UNL     1       4.270   4.404  16.915  0.00  0.00    +0.000 A 
ATOM      8  S   UNL     1       4.190   5.571  18.178  0.00  0.00    +0.000 S 
ATOM      9  C   UNL     1       2.876   4.789  18.948  0.00  0.00    +0.000 A 
ENDROOT
BRANCH   7  10
ATOM     10  C   UNL     1       5.254   4.520  15.825  0.00  0.00    +0.000 A 
ATOM     11  C   UNL     1       5.019   3.874  14.595  0.00  0.00    +0.000 A 
ATOM     12  C   UNL     1       5.935   3.971  13.545  0.00  0.00    +0.000 A 
ATOM     13  C   UNL     1       7.096   4.712  13.716  0.00  0.00    +0.000 A 
ATOM     14  F   UNL     1       7.972   4.810  12.708  0.00  0.00    +0.000 F 
ATOM     15  C   UNL     1       7.361   5.351  14.919  0.00  0.00    +0.000 A 
ATOM     16  C   UNL     1       6.445   5.251  15.971  0.00  0.00    +0.000 A 
ENDBRANCH   7  10
BRANCH   1  17
ATOM     17  O   UNL     1       2.445   6.255  20.839  0.00  0.00    +0.000 OA
BRANCH  17  21
ATOM     18  C   UNL     1       0.250   9.739  20.059  0.00  0.00    +0.000 A 
ATOM     19  C   UNL     1       0.030   8.977  21.211  0.00  0.00    +0.000 A 
ATOM     20  C   UNL     1       0.766   7.808  21.451  0.00  0.00    +0.000 A 
ATOM     21  C   UNL     1       1.722   7.388  20.530  0.00  0.00    +0.000 A 
ATOM     22  C   UNL     1       1.949   8.150  19.380  0.00  0.00    +0.000 A 
ATOM     23  C   UNL     1       1.191   9.293  19.127  0.00  0.00    +0.000 A 
BRANCH  18  27
ATOM     24  C   UNL     1      -1.995  12.521  18.880  0.00  0.00    +0.000 C 
ATOM     25  C   UNL     1      -1.515  11.098  18.963  0.00  0.00    +0.000 C 
ATOM     26  O   UNL     1      -2.099  10.208  18.348  0.00  0.00    +0.000 OA
ATOM     27  N   UNL     1      -0.416  10.950  19.784  0.00  0.00    +0.000 N 
ATOM     28  H   UNL     1      -0.147  11.748  20.347  0.00  0.00    +0.000 HD
ENDBRANCH  18  27
ENDBRANCH  17  21
ENDBRANCH   1  17
TORSDOF 4
ENDMDL
MODEL 9
REMARK VINA RESULT:      -7.5      5.353      9.568
REMARK  Name = 
REMARK  5 active torsions:
REMARK  status: ('A' for Active; 'I' for Inactive)
REMARK    1  A    between atoms: C_1  and  C_2
REMARK    2  A    between atoms: N_4  and  C_5
REMARK    3  A    between atoms: C_8  and  O_9
REMARK    4  A    between atoms: O_9  and  C_10
REMARK    5  A    between atoms: C_16  and  C_17
REMARK                            x       y       z     vdW  Elec       q    Type
REMARK                         _______ _______ _______ _____ _____    ______ ____
ROOT
ATOM      1  C   UNL     1       4.613   3.885  19.696  0.00  0.00    +0.000 A 
ATOM      2  N   UNL     1       4.276   2.642  20.127  0.00  0.00    +0.000 NA
ATOM      3  C   UNL     1       3.074   2.473  20.681  0.00  0.00    +0.000 A 
ATOM      4  N   UNL     1       2.118   3.390  20.827  0.00  0.00    +0.000 NA
ATOM      5  C   UNL     1       2.440   4.613  20.341  0.00  0.00    +0.000 A 
ATOM      6  C   UNL     1       1.576   5.743  20.362  0.00  0.00    +0.000 A 
ATOM      7  C   UNL     1       2.151   6.882  19.833  0.00  0.00    +0.000 A 
ATOM      8  S   UNL     1       3.758   6.554  19.313  0.00  0.00    +0.000 S 
ATOM      9  C   UNL     1       3.674   4.907  19.775  0.00  0.00    +0.000 A 
ENDROOT
BRANCH   7  10
ATOM     10  C   UNL     1       1.571   8.233  19.725  0.00  0.00    +0.000 A 
ATOM     11  C   UNL     1       1.672   8.945  18.515  0.00  0.00    +0.000 A 
ATOM     12  C   UNL     1       1.129  10.226  18.386  0.00  0.00    +0.000 A 
ATOM     13  C   UNL     1       0.481  10.806  19.468  0.00  0.00    +0.000 A 
ATOM     14  F   UNL     1      -0.046  12.031  19.343  0.00  0.00    +0.000 F 
ATOM     15  C   UNL     1       0.374  10.134  20.677  0.00  0.00    +0.000 A 
ATOM     16  C   UNL     1       0.921   8.853  20.806  0.00  0.00    +0.000 A 
ENDBRANCH   7  10
BRANCH   1  17
ATOM     17  O   UNL     1       5.894   4.100  19.200  0.00  0.00    +0.000 OA
BRANCH  17  21
ATOM     18  C   UNL     1       6.432   4.346  15.050  0.00  0.00    +0.000 A 
ATOM     19  C   UNL     1       7.464   4.653  15.942  0.00  0.00    +0.000 A 
ATOM     20  C   UNL     1       7.264   4.576  17.328  0.00  0.00    +0.000 A 
ATOM     21  C   UNL     1       6.021   4.200  17.830  0.00  0.00    +0.000 A 
ATOM     22  C   UNL     1       4.987   3.887  16.941  0.00  0.00    +0.000 A 
ATOM     23  C   UNL     1       5.179   3.998  15.564  0.00  0.00    +0.000 A 
BRANCH  18  27
ATOM     24  C   UNL     1       7.432   4.850  11.456  0.00  0.00    +0.000 C 
ATOM     25  C   UNL     1       7.533   5.060  12.943  0.00  0.00    +0.000 C 
ATOM     26  O   UNL     1       8.405   5.789  13.409  0.00  0.00    +0.000 OA
ATOM     27  N   UNL     1       6.582   4.352  13.649  0.00  0.00    +0.000 N 
ATOM     28  H   UNL     1       6.035   3.671  13.136  0.00  0.00    +0.000 HD
ENDBRANCH  18  27
ENDBRANCH  17  21
ENDBRANCH   1  17
TORSDOF 4
ENDMDL
