MODEL 1
REMARK VINA RESULT:      -8.1      0.000      0.000
REMARK  Name = 
REMARK  3 active torsions:
REMARK  status: ('A' for Active; 'I' for Inactive)
REMARK    1  A    between atoms: C_2  and  C_4
REMARK    2  A    between atoms: C_8  and  N_9
REMARK    3  A    between atoms: C_16  and  C_17
REMARK                            x       y       z     vdW  Elec       q    Type
REMARK                         _______ _______ _______ _____ _____    ______ ____
ROOT
ATOM      1  N   UNL     1       3.985   4.730  19.321  0.00  0.00    +0.000 N 
ATOM      2  C   UNL     1       5.361   5.281  19.373  0.00  0.00    +0.000 C 
ATOM      3  C   UNL     1       5.835   5.077  17.965  0.00  0.00    +0.000 A 
ATOM      4  C   UNL     1       5.134   3.985  17.446  0.00  0.00    +0.000 A 
ATOM      5  C   UNL     1       5.207   3.607  16.118  0.00  0.00    +0.000 A 
ATOM      6  C   UNL     1       6.010   4.376  15.281  0.00  0.00    +0.000 A 
ATOM      7  C   UNL     1       6.707   5.492  15.781  0.00  0.00    +0.000 A 
ATOM      8  C   UNL     1       6.628   5.869  17.140  0.00  0.00    +0.000 A 
ATOM      9  C   UNL     1       4.044   3.656  18.394  0.00  0.00    +0.000 C 
ATOM     10  O   UNL     1       3.249   2.748  18.231  0.00  0.00    +0.000 OA
ENDROOT
BRANCH   1  15
ATOM     11  C   UNL     1       1.821   7.631  20.018  0.00  0.00    +0.000 A 
ATOM     12  C   UNL     1       2.242   8.444  18.953  0.00  0.00    +0.000 A 
ATOM     13  C   UNL     1       2.882   7.899  17.848  0.00  0.00    +0.000 A 
ATOM     14  C   UNL     1       3.214   6.549  17.837  0.00  0.00    +0.000 A 
ATOM     15  C   UNL     1       3.032   5.786  19.001  0.00  0.00    +0.000 A 
ATOM     16  C   UNL     1       2.226   6.289  20.030  0.00  0.00    +0.000 A 
BRANCH  11  18
ATOM     17  C   UNL     1       1.512   9.121  21.985  0.00  0.00    +0.000 C 
ATOM     18  C   UNL     1       1.066   8.168  21.158  0.00  0.00    +0.000 C 
ATOM     19  F   UNL     1      -0.183   7.690  21.360  0.00  0.00    +0.000 F 
ENDBRANCH  11  18
ENDBRANCH   1  15
BRANCH   8  20
ATOM     20  C   UNL     1       7.297   7.144  17.591  0.00  0.00    +0.000 C 
ATOM     21  F   UNL     1       8.027   7.021  18.731  0.00  0.00    +0.000 F 
ATOM     22  F   UNL     1       8.156   7.630  16.651  0.00  0.00    +0.000 F 
ATOM     23  F   UNL     1       6.397   8.141  17.832  0.00  0.00    +0.000 F 
ENDBRANCH   8  20
TORSDOF 3
ENDMDL
MODEL 2
REMARK VINA RESULT:      -8.0      2.372      5.178
REMARK  Name = 
REMARK  3 active torsions:
REMARK  status: ('A' for Active; 'I' for Inactive)
REMARK    1  A    between atoms: C_2  and  C_4
REMARK    2  A    between atoms: C_8  and  N_9
REMARK    3  A    between atoms: C_16  and  C_17
REMARK                            x       y       z     vdW  Elec       q    Type
REMARK                         _______ _______ _______ _____ _____    ______ ____
ROOT
ATOM      1  N   UNL     1       6.113   5.515  15.658  0.00  0.00    +0.000 N 
ATOM      2  C   UNL     1       4.910   6.349  15.893  0.00  0.00    +0.000 C 
ATOM      3  C   UNL     1       4.111   5.494  16.830  0.00  0.00    +0.000 A 
ATOM      4  C   UNL     1       4.464   4.165  16.579  0.00  0.00    +0.000 A 
ATOM      5  C   UNL     1       4.034   3.112  17.366  0.00  0.00    +0.000 A 
ATOM      6  C   UNL     1       3.227   3.421  18.457  0.00  0.00    +0.000 A 
ATOM      7  C   UNL     1       2.878   4.756  18.737  0.00  0.00    +0.000 A 
ATOM      8  C   UNL     1       3.321   5.824  17.927  0.00  0.00    +0.000 A 
ATOM      9  C   UNL     1       5.652   4.172  15.695  0.00  0.00    +0.000 C 
ATOM     10  O   UNL     1       6.208   3.166  15.291  0.00  0.00    +0.000 OA
ENDROOT
BRANCH   1  15
ATOM     11  C   UNL     1       7.942   7.677  18.016  0.00  0.00    +0.000 A 
ATOM     12  C   UNL     1       8.000   6.779  19.094  0.00  0.00    +0.000 A 
ATOM     13  C   UNL     1       7.820   5.416  18.899  0.00  0.00    +0.000 A 
ATOM     14  C   UNL     1       7.469   4.938  17.642  0.00  0.00    +0.000 A 
ATOM     15  C   UNL     1       7.154   5.849  16.622  0.00  0.00    +0.000 A 
ATOM     16  C   UNL     1       7.515   7.194  16.771  0.00  0.00    +0.000 A 
BRANCH  11  18
ATOM     17  C   UNL     1       9.136   9.621  19.005  0.00  0.00    +0.000 C 
ATOM     18  C   UNL     1       8.214   9.111  18.180  0.00  0.00    +0.000 C 
ATOM     19  F   UNL     1       7.508   9.973  17.414  0.00  0.00    +0.000 F 
ENDBRANCH  11  18
ENDBRANCH   1  15
BRANCH   8  20
ATOM     20  C   UNL     1       3.019   7.241  18.347  0.00  0.00    +0.000 C 
ATOM     21  F   UNL     1       4.013   8.130  18.079  0.00  0.00    +0.000 F 
ATOM     22  F   UNL     1       1.908   7.731  17.728  0.00  0.00    +0.000 F 
ATOM     23  F   UNL     1       2.781   7.343  19.687  0.00  0.00    +0.000 F 
ENDBRANCH   8  20
TORSDOF 3
ENDMDL
MODEL 3
REMARK VINA RESULT:      -8.0      0.628      1.053
REMARK  Name = 
REMARK  3 active torsions:
REMARK  status: ('A' for Active; 'I' for Inactive)
REMARK    1  A    between atoms: C_2  and  C_4
REMARK    2  A    between atoms: C_8  and  N_9
REMARK    3  A    between atoms: C_16  and  C_17
REMARK                            x       y       z     vdW  Elec       q    Type
REMARK                         _______ _______ _______ _____ _____    ______ ____
ROOT
ATOM      1  N   UNL     1       3.801   4.755  19.327  0.00  0.00    +0.000 N 
ATOM      2  C   UNL     1       5.193   5.264  19.369  0.00  0.00    +0.000 C 
ATOM      3  C   UNL     1       5.646   5.062  17.954  0.00  0.00    +0.000 A 
ATOM      4  C   UNL     1       4.908   3.997  17.431  0.00  0.00    +0.000 A 
ATOM      5  C   UNL     1       4.954   3.632  16.098  0.00  0.00    +0.000 A 
ATOM      6  C   UNL     1       5.771   4.386  15.261  0.00  0.00    +0.000 A 
ATOM      7  C   UNL     1       6.505   5.476  15.765  0.00  0.00    +0.000 A 
ATOM      8  C   UNL     1       6.453   5.839  17.128  0.00  0.00    +0.000 A 
ATOM      9  C   UNL     1       3.819   3.690  18.388  0.00  0.00    +0.000 C 
ATOM     10  O   UNL     1       2.995   2.807  18.224  0.00  0.00    +0.000 OA
ENDROOT
BRANCH   1  15
ATOM     11  C   UNL     1       1.816   7.774  20.051  0.00  0.00    +0.000 A 
ATOM     12  C   UNL     1       2.201   8.529  18.932  0.00  0.00    +0.000 A 
ATOM     13  C   UNL     1       2.744   7.918  17.809  0.00  0.00    +0.000 A 
ATOM     14  C   UNL     1       3.015   6.555  17.828  0.00  0.00    +0.000 A 
ATOM     15  C   UNL     1       2.876   5.841  19.029  0.00  0.00    +0.000 A 
ATOM     16  C   UNL     1       2.162   6.416  20.087  0.00  0.00    +0.000 A 
BRANCH  11  18
ATOM     17  C   UNL     1      -0.164   8.451  21.395  0.00  0.00    +0.000 C 
ATOM     18  C   UNL     1       1.161   8.383  21.215  0.00  0.00    +0.000 C 
ATOM     19  F   UNL     1       1.955   8.876  22.193  0.00  0.00    +0.000 F 
ENDBRANCH  11  18
ENDBRANCH   1  15
BRANCH   8  20
ATOM     20  C   UNL     1       7.163   7.090  17.585  0.00  0.00    +0.000 C 
ATOM     21  F   UNL     1       6.341   8.148  17.819  0.00  0.00    +0.000 F 
ATOM     22  F   UNL     1       7.850   6.891  18.745  0.00  0.00    +0.000 F 
ATOM     23  F   UNL     1       8.078   7.526  16.672  0.00  0.00    +0.000 F 
ENDBRANCH   8  20
TORSDOF 3
ENDMDL
MODEL 4
REMARK VINA RESULT:      -7.9      2.133      2.949
REMARK  Name = 
REMARK  3 active torsions:
REMARK  status: ('A' for Active; 'I' for Inactive)
REMARK    1  A    between atoms: C_2  and  C_4
REMARK    2  A    between atoms: C_8  and  N_9
REMARK    3  A    between atoms: C_16  and  C_17
REMARK                            x       y       z     vdW  Elec       q    Type
REMARK                         _______ _______ _______ _____ _____    ______ ____
ROOT
ATOM      1  N   UNL     1       3.289   5.861  20.178  0.00  0.00    +0.000 N 
ATOM      2  C   UNL     1       4.442   5.544  19.300  0.00  0.00    +0.000 C 
ATOM      3  C   UNL     1       3.955   4.331  18.566  0.00  0.00    +0.000 A 
ATOM      4  C   UNL     1       3.027   3.692  19.393  0.00  0.00    +0.000 A 
ATOM      5  C   UNL     1       2.260   2.620  18.975  0.00  0.00    +0.000 A 
ATOM      6  C   UNL     1       2.431   2.189  17.663  0.00  0.00    +0.000 A 
ATOM      7  C   UNL     1       3.346   2.834  16.809  0.00  0.00    +0.000 A 
ATOM      8  C   UNL     1       4.126   3.927  17.246  0.00  0.00    +0.000 A 
ATOM      9  C   UNL     1       2.719   4.606  20.517  0.00  0.00    +0.000 C 
ATOM     10  O   UNL     1       1.941   4.344  21.417  0.00  0.00    +0.000 OA
ENDROOT
BRANCH   1  15
ATOM     11  C   UNL     1       1.248   8.914  19.867  0.00  0.00    +0.000 A 
ATOM     12  C   UNL     1       1.729   9.340  18.619  0.00  0.00    +0.000 A 
ATOM     13  C   UNL     1       2.369   8.456  17.760  0.00  0.00    +0.000 A 
ATOM     14  C   UNL     1       2.637   7.159  18.178  0.00  0.00    +0.000 A 
ATOM     15  C   UNL     1       2.394   6.800  19.513  0.00  0.00    +0.000 A 
ATOM     16  C   UNL     1       1.589   7.627  20.307  0.00  0.00    +0.000 A 
BRANCH  11  18
ATOM     17  C   UNL     1       0.726  11.115  20.900  0.00  0.00    +0.000 C 
ATOM     18  C   UNL     1       0.493   9.805  20.758  0.00  0.00    +0.000 C 
ATOM     19  F   UNL     1      -0.536   9.269  21.453  0.00  0.00    +0.000 F 
ENDBRANCH  11  18
ENDBRANCH   1  15
BRANCH   8  20
ATOM     20  C   UNL     1       4.997   4.654  16.251  0.00  0.00    +0.000 C 
ATOM     21  F   UNL     1       4.665   5.961  16.067  0.00  0.00    +0.000 F 
ATOM     22  F   UNL     1       6.307   4.654  16.624  0.00  0.00    +0.000 F 
ATOM     23  F   UNL     1       4.955   4.083  15.014  0.00  0.00    +0.000 F 
ENDBRANCH   8  20
TORSDOF 3
ENDMDL
MODEL 5
REMARK VINA RESULT:      -7.7      1.545      2.476
REMARK  Name = 
REMARK  3 active torsions:
REMARK  status: ('A' for Active; 'I' for Inactive)
REMARK    1  A    between atoms: C_2  and  C_4
REMARK    2  A    between atoms: C_8  and  N_9
REMARK    3  A    between atoms: C_16  and  C_17
REMARK                            x       y       z     vdW  Elec       q    Type
REMARK                         _______ _______ _______ _____ _____    ______ ____
ROOT
ATOM      1  N   UNL     1       4.097   3.201  18.676  0.00  0.00    +0.000 N 
ATOM      2  C   UNL     1       5.566   3.381  18.764  0.00  0.00    +0.000 C 
ATOM      3  C   UNL     1       5.804   4.508  17.805  0.00  0.00    +0.000 A 
ATOM      4  C   UNL     1       4.783   4.463  16.852  0.00  0.00    +0.000 A 
ATOM      5  C   UNL     1       4.599   5.449  15.899  0.00  0.00    +0.000 A 
ATOM      6  C   UNL     1       5.477   6.529  15.925  0.00  0.00    +0.000 A 
ATOM      7  C   UNL     1       6.498   6.602  16.890  0.00  0.00    +0.000 A 
ATOM      8  C   UNL     1       6.679   5.589  17.858  0.00  0.00    +0.000 A 
ATOM      9  C   UNL     1       3.761   3.503  17.330  0.00  0.00    +0.000 C 
ATOM     10  O   UNL     1       2.739   3.236  16.723  0.00  0.00    +0.000 OA
ENDROOT
BRANCH   1  15
ATOM     11  C   UNL     1       2.246   6.115  19.966  0.00  0.00    +0.000 A 
ATOM     12  C   UNL     1       1.241   5.416  20.653  0.00  0.00    +0.000 A 
ATOM     13  C   UNL     1       1.413   4.084  21.010  0.00  0.00    +0.000 A 
ATOM     14  C   UNL     1       2.546   3.398  20.590  0.00  0.00    +0.000 A 
ATOM     15  C   UNL     1       3.429   4.011  19.687  0.00  0.00    +0.000 A 
ATOM     16  C   UNL     1       3.348   5.395  19.485  0.00  0.00    +0.000 A 
BRANCH  11  18
ATOM     17  C   UNL     1       2.330   8.079  18.442  0.00  0.00    +0.000 C 
ATOM     18  C   UNL     1       2.125   7.545  19.653  0.00  0.00    +0.000 C 
ATOM     19  F   UNL     1       1.743   8.374  20.650  0.00  0.00    +0.000 F 
ENDBRANCH  11  18
ENDBRANCH   1  15
BRANCH   8  20
ATOM     20  C   UNL     1       7.710   5.782  18.942  0.00  0.00    +0.000 C 
ATOM     21  F   UNL     1       7.206   5.763  20.205  0.00  0.00    +0.000 F 
ATOM     22  F   UNL     1       8.670   4.815  18.912  0.00  0.00    +0.000 F 
ATOM     23  F   UNL     1       8.368   6.971  18.823  0.00  0.00    +0.000 F 
ENDBRANCH   8  20
TORSDOF 3
ENDMDL
MODEL 6
REMARK VINA RESULT:      -7.7      3.312      4.919
REMARK  Name = 
REMARK  3 active torsions:
REMARK  status: ('A' for Active; 'I' for Inactive)
REMARK    1  A    between atoms: C_2  and  C_4
REMARK    2  A    between atoms: C_8  and  N_9
REMARK    3  A    between atoms: C_16  and  C_17
REMARK                            x       y       z     vdW  Elec       q    Type
REMARK                         _______ _______ _______ _____ _____    ______ ____
ROOT
ATOM      1  N   UNL     1       2.658   6.294  17.540  0.00  0.00    +0.000 N 
ATOM      2  C   UNL     1       1.752   5.147  17.787  0.00  0.00    +0.000 C 
ATOM      3  C   UNL     1       2.633   4.210  18.557  0.00  0.00    +0.000 A 
ATOM      4  C   UNL     1       3.951   4.474  18.177  0.00  0.00    +0.000 A 
ATOM      5  C   UNL     1       5.044   3.901  18.801  0.00  0.00    +0.000 A 
ATOM      6  C   UNL     1       4.788   3.036  19.861  0.00  0.00    +0.000 A 
ATOM      7  C   UNL     1       3.468   2.773  20.272  0.00  0.00    +0.000 A 
ATOM      8  C   UNL     1       2.359   3.362  19.627  0.00  0.00    +0.000 A 
ATOM      9  C   UNL     1       3.950   5.727  17.386  0.00  0.00    +0.000 C 
ATOM     10  O   UNL     1       4.950   6.232  16.906  0.00  0.00    +0.000 OA
ENDROOT
BRANCH   1  15
ATOM     11  C   UNL     1       1.391   9.357  19.152  0.00  0.00    +0.000 A 
ATOM     12  C   UNL     1       1.017   8.787  20.379  0.00  0.00    +0.000 A 
ATOM     13  C   UNL     1       1.538   7.567  20.789  0.00  0.00    +0.000 A 
ATOM     14  C   UNL     1       2.356   6.842  19.931  0.00  0.00    +0.000 A 
ATOM     15  C   UNL     1       2.526   7.278  18.608  0.00  0.00    +0.000 A 
ATOM     16  C   UNL     1       2.156   8.585  18.266  0.00  0.00    +0.000 A 
BRANCH  11  18
ATOM     17  C   UNL     1      -0.358  11.075  18.735  0.00  0.00    +0.000 C 
ATOM     18  C   UNL     1       0.922  10.684  18.734  0.00  0.00    +0.000 C 
ATOM     19  F   UNL     1       1.857  11.587  18.358  0.00  0.00    +0.000 F 
ENDBRANCH  11  18
ENDBRANCH   1  15
BRANCH   8  20
ATOM     20  C   UNL     1       0.976   3.141  20.189  0.00  0.00    +0.000 C 
ATOM     21  F   UNL     1       0.137   2.462  19.362  0.00  0.00    +0.000 F 
ATOM     22  F   UNL     1       1.006   2.430  21.351  0.00  0.00    +0.000 F 
ATOM     23  F   UNL     1       0.343   4.314  20.478  0.00  0.00    +0.000 F 
ENDBRANCH   8  20
TORSDOF 3
ENDMDL
MODEL 7
REMARK VINA RESULT:      -7.7      3.683      4.866
REMARK  Name = 
REMARK  3 active torsions:
REMARK  status: ('A' for Active; 'I' for Inactive)
REMARK    1  A    between atoms: C_2  and  C_4
REMARK    2  A    between atoms: C_8  and  N_9
REMARK    3  A    between atoms: C_16  and  C_17
REMARK                            x       y       z     vdW  Elec       q    Type
REMARK                         _______ _______ _______ _____ _____    ______ ____
ROOT
ATOM      1  N   UNL     1       2.623   6.290  17.554  0.00  0.00    +0.000 N 
ATOM      2  C   UNL     1       1.720   5.143  17.817  0.00  0.00    +0.000 C 
ATOM      3  C   UNL     1       2.611   4.209  18.580  0.00  0.00    +0.000 A 
ATOM      4  C   UNL     1       3.924   4.472  18.181  0.00  0.00    +0.000 A 
ATOM      5  C   UNL     1       5.025   3.900  18.794  0.00  0.00    +0.000 A 
ATOM      6  C   UNL     1       4.783   3.040  19.860  0.00  0.00    +0.000 A 
ATOM      7  C   UNL     1       3.468   2.779  20.289  0.00  0.00    +0.000 A 
ATOM      8  C   UNL     1       2.351   3.366  19.656  0.00  0.00    +0.000 A 
ATOM      9  C   UNL     1       3.913   5.721  17.385  0.00  0.00    +0.000 C 
ATOM     10  O   UNL     1       4.906   6.224  16.890  0.00  0.00    +0.000 OA
ENDROOT
BRANCH   1  15
ATOM     11  C   UNL     1       1.394   9.370  19.162  0.00  0.00    +0.000 A 
ATOM     12  C   UNL     1       1.019   8.807  20.392  0.00  0.00    +0.000 A 
ATOM     13  C   UNL     1       1.530   7.583  20.804  0.00  0.00    +0.000 A 
ATOM     14  C   UNL     1       2.337   6.847  19.944  0.00  0.00    +0.000 A 
ATOM     15  C   UNL     1       2.506   7.278  18.619  0.00  0.00    +0.000 A 
ATOM     16  C   UNL     1       2.147   8.587  18.275  0.00  0.00    +0.000 A 
BRANCH  11  18
ATOM     17  C   UNL     1       1.730  11.771  18.608  0.00  0.00    +0.000 C 
ATOM     18  C   UNL     1       0.937  10.700  18.741  0.00  0.00    +0.000 C 
ATOM     19  F   UNL     1      -0.372  10.842  18.430  0.00  0.00    +0.000 F 
ENDBRANCH  11  18
ENDBRANCH   1  15
BRANCH   8  20
ATOM     20  C   UNL     1       0.976   3.148  20.238  0.00  0.00    +0.000 C 
ATOM     21  F   UNL     1       0.965   2.454  21.407  0.00  0.00    +0.000 F 
ATOM     22  F   UNL     1       0.339   4.324  20.499  0.00  0.00    +0.000 F 
ATOM     23  F   UNL     1       0.161   2.457  19.389  0.00  0.00    +0.000 F 
ENDBRANCH   8  20
TORSDOF 3
ENDMDL
MODEL 8
REMARK VINA RESULT:      -7.7      2.068      5.991
REMARK  Name = 
REMARK  3 active torsions:
REMARK  status: ('A' for Active; 'I' for Inactive)
REMARK    1  A    between atoms: C_2  and  C_4
REMARK    2  A    between atoms: C_8  and  N_9
REMARK    3  A    between atoms: C_16  and  C_17
REMARK                            x       y       z     vdW  Elec       q    Type
REMARK                         _______ _______ _______ _____ _____    ______ ____
ROOT
ATOM      1  N   UNL     1       3.073   3.198  17.209  0.00  0.00    +0.000 N 
ATOM      2  C   UNL     1       2.320   4.473  17.135  0.00  0.00    +0.000 C 
ATOM      3  C   UNL     1       2.143   4.821  18.582  0.00  0.00    +0.000 A 
ATOM      4  C   UNL     1       2.156   3.621  19.300  0.00  0.00    +0.000 A 
ATOM      5  C   UNL     1       2.171   3.572  20.682  0.00  0.00    +0.000 A 
ATOM      6  C   UNL     1       2.188   4.786  21.361  0.00  0.00    +0.000 A 
ATOM      7  C   UNL     1       2.196   6.004  20.656  0.00  0.00    +0.000 A 
ATOM      8  C   UNL     1       2.179   6.044  19.244  0.00  0.00    +0.000 A 
ATOM      9  C   UNL     1       2.597   2.548  18.378  0.00  0.00    +0.000 C 
ATOM     10  O   UNL     1       2.714   1.379  18.699  0.00  0.00    +0.000 OA
ENDROOT
BRANCH   1  15
ATOM     11  C   UNL     1       6.239   4.378  15.739  0.00  0.00    +0.000 A 
ATOM     12  C   UNL     1       6.687   5.137  16.831  0.00  0.00    +0.000 A 
ATOM     13  C   UNL     1       6.178   4.925  18.106  0.00  0.00    +0.000 A 
ATOM     14  C   UNL     1       5.134   4.027  18.292  0.00  0.00    +0.000 A 
ATOM     15  C   UNL     1       4.506   3.457  17.172  0.00  0.00    +0.000 A 
ATOM     16  C   UNL     1       5.138   3.531  15.924  0.00  0.00    +0.000 A 
BRANCH  11  18
ATOM     17  C   UNL     1       6.371   3.900  13.302  0.00  0.00    +0.000 C 
ATOM     18  C   UNL     1       6.821   4.523  14.398  0.00  0.00    +0.000 C 
ATOM     19  F   UNL     1       7.860   5.377  14.256  0.00  0.00    +0.000 F 
ENDBRANCH  11  18
ENDBRANCH   1  15
BRANCH   8  20
ATOM     20  C   UNL     1       2.315   7.373  18.543  0.00  0.00    +0.000 C 
ATOM     21  F   UNL     1       1.412   7.576  17.547  0.00  0.00    +0.000 F 
ATOM     22  F   UNL     1       2.161   8.421  19.401  0.00  0.00    +0.000 F 
ATOM     23  F   UNL     1       3.542   7.531  17.969  0.00  0.00    +0.000 F 
ENDBRANCH   8  20
TORSDOF 3
ENDMDL
MODEL 9
REMARK VINA RESULT:      -7.7      1.759      2.380
REMARK  Name = 
REMARK  3 active torsions:
REMARK  status: ('A' for Active; 'I' for Inactive)
REMARK    1  A    between atoms: C_2  and  C_4
REMARK    2  A    between atoms: C_8  and  N_9
REMARK    3  A    between atoms: C_16  and  C_17
REMARK                            x       y       z     vdW  Elec       q    Type
REMARK                         _______ _______ _______ _____ _____    ______ ____
ROOT
ATOM      1  N   UNL     1       3.693   3.779  19.086  0.00  0.00    +0.000 N 
ATOM      2  C   UNL     1       5.165   3.685  19.231  0.00  0.00    +0.000 C 
ATOM      3  C   UNL     1       5.649   4.311  17.958  0.00  0.00    +0.000 A 
ATOM      4  C   UNL     1       4.651   4.121  16.999  0.00  0.00    +0.000 A 
ATOM      5  C   UNL     1       4.692   4.704  15.745  0.00  0.00    +0.000 A 
ATOM      6  C   UNL     1       5.780   5.523  15.460  0.00  0.00    +0.000 A 
ATOM      7  C   UNL     1       6.785   5.742  16.421  0.00  0.00    +0.000 A 
ATOM      8  C   UNL     1       6.735   5.141  17.698  0.00  0.00    +0.000 A 
ATOM      9  C   UNL     1       3.442   3.625  17.697  0.00  0.00    +0.000 C 
ATOM     10  O   UNL     1       2.392   3.360  17.138  0.00  0.00    +0.000 OA
ENDROOT
BRANCH   1  15
ATOM     11  C   UNL     1       2.258   7.173  19.080  0.00  0.00    +0.000 A 
ATOM     12  C   UNL     1       1.264   6.962  20.048  0.00  0.00    +0.000 A 
ATOM     13  C   UNL     1       1.344   5.897  20.936  0.00  0.00    +0.000 A 
ATOM     14  C   UNL     1       2.361   4.960  20.799  0.00  0.00    +0.000 A 
ATOM     15  C   UNL     1       3.206   5.017  19.680  0.00  0.00    +0.000 A 
ATOM     16  C   UNL     1       3.235   6.183  18.905  0.00  0.00    +0.000 A 
BRANCH  11  18
ATOM     17  C   UNL     1       1.498   9.435  18.379  0.00  0.00    +0.000 C 
ATOM     18  C   UNL     1       2.242   8.339  18.187  0.00  0.00    +0.000 C 
ATOM     19  F   UNL     1       3.068   8.317  17.116  0.00  0.00    +0.000 F 
ENDBRANCH  11  18
ENDBRANCH   1  15
BRANCH   8  20
ATOM     20  C   UNL     1       7.774   5.511  18.727  0.00  0.00    +0.000 C 
ATOM     21  F   UNL     1       7.293   5.622  19.995  0.00  0.00    +0.000 F 
ATOM     22  F   UNL     1       8.779   4.593  18.792  0.00  0.00    +0.000 F 
ATOM     23  F   UNL     1       8.370   6.707  18.452  0.00  0.00    +0.000 F 
ENDBRANCH   8  20
TORSDOF 3
ENDMDL
