MODEL 1
REMARK VINA RESULT:      -9.1      0.000      0.000
REMARK  Name = 
REMARK  6 active torsions:
REMARK  status: ('A' for Active; 'I' for Inactive)
REMARK    1  A    between atoms: C_1  and  C_2
REMARK    2  A    between atoms: C_4  and  C_5
REMARK    3  A    between atoms: C_5  and  S_6
REMARK    4  A    between atoms: S_6  and  C_7
REMARK    5  A    between atoms: C_10  and  C_11
REMARK    6  A    between atoms: N_17  and  C_18
REMARK                            x       y       z     vdW  Elec       q    Type
REMARK                         _______ _______ _______ _____ _____    ______ ____
ROOT
ATOM      1  C   UNL     1       4.225   5.723  17.650  0.00  0.00    +0.000 A 
ATOM      2  N   UNL     1       4.533   6.800  16.970  0.00  0.00    +0.000 NA
ATOM      3  N   UNL     1       3.675   7.790  17.348  0.00  0.00    +0.000 NA
ATOM      4  C   UNL     1       2.861   7.332  18.287  0.00  0.00    +0.000 A 
ATOM      5  N   UNL     1       3.158   5.976  18.512  0.00  0.00    +0.000 N 
ENDROOT
BRANCH   5   6
ATOM      6  C   UNL     1       2.508   5.059  19.401  0.00  0.00    +0.000 A 
ATOM      7  C   UNL     1       2.923   4.943  20.737  0.00  0.00    +0.000 A 
ATOM      8  C   UNL     1       2.322   4.007  21.585  0.00  0.00    +0.000 A 
ATOM      9  C   UNL     1       1.281   3.219  21.115  0.00  0.00    +0.000 A 
ATOM     10  F   UNL     1       0.701   2.330  21.931  0.00  0.00    +0.000 F 
ATOM     11  C   UNL     1       0.839   3.336  19.805  0.00  0.00    +0.000 A 
ATOM     12  C   UNL     1       1.459   4.245  18.943  0.00  0.00    +0.000 A 
ENDBRANCH   5   6
BRANCH   4  13
ATOM     13  C   UNL     1       1.873   8.197  18.966  0.00  0.00    +0.000 A 
ATOM     14  C   UNL     1       1.194   9.174  18.218  0.00  0.00    +0.000 A 
ATOM     15  C   UNL     1       0.240  10.008  18.813  0.00  0.00    +0.000 A 
ATOM     16  C   UNL     1      -0.054   9.873  20.166  0.00  0.00    +0.000 A 
ATOM     17  C   UNL     1       0.629   8.931  20.930  0.00  0.00    +0.000 A 
ATOM     18  C   UNL     1       1.607   8.120  20.341  0.00  0.00    +0.000 A 
ENDBRANCH   4  13
BRANCH   1  19
ATOM     19  S   UNL     1       4.900   4.158  17.297  0.00  0.00    +0.000 S 
BRANCH  19  20
ATOM     20  C   UNL     1       6.630   4.589  16.920  0.00  0.00    +0.000 C 
BRANCH  20  24
ATOM     21  C   UNL     1       6.689   3.847  11.854  0.00  0.00    +0.000 C 
ATOM     22  C   UNL     1       6.821   4.243  13.268  0.00  0.00    +0.000 A 
ATOM     23  C   UNL     1       6.283   3.789  14.448  0.00  0.00    +0.000 A 
ATOM     24  C   UNL     1       6.852   4.624  15.443  0.00  0.00    +0.000 A 
ATOM     25  N   UNL     1       7.669   5.535  14.892  0.00  0.00    +0.000 NA
ATOM     26  O   UNL     1       7.648   5.290  13.529  0.00  0.00    +0.000 OA
ENDBRANCH  20  24
ENDBRANCH  19  20
ENDBRANCH   1  19
TORSDOF 5
ENDMDL
MODEL 2
REMARK VINA RESULT:      -8.8      0.244      1.358
REMARK  Name = 
REMARK  6 active torsions:
REMARK  status: ('A' for Active; 'I' for Inactive)
REMARK    1  A    between atoms: C_1  and  C_2
REMARK    2  A    between atoms: C_4  and  C_5
REMARK    3  A    between atoms: C_5  and  S_6
REMARK    4  A    between atoms: S_6  and  C_7
REMARK    5  A    between atoms: C_10  and  C_11
REMARK    6  A    between atoms: N_17  and  C_18
REMARK                            x       y       z     vdW  Elec       q    Type
REMARK                         _______ _______ _______ _____ _____    ______ ____
ROOT
ATOM      1  C   UNL     1       4.297   5.861  17.687  0.00  0.00    +0.000 A 
ATOM      2  N   UNL     1       4.579   6.961  17.033  0.00  0.00    +0.000 NA
ATOM      3  N   UNL     1       3.680   7.914  17.414  0.00  0.00    +0.000 NA
ATOM      4  C   UNL     1       2.866   7.409  18.329  0.00  0.00    +0.000 A 
ATOM      5  N   UNL     1       3.207   6.060  18.535  0.00  0.00    +0.000 N 
ENDROOT
BRANCH   5   6
ATOM      6  C   UNL     1       2.575   5.104  19.394  0.00  0.00    +0.000 A 
ATOM      7  C   UNL     1       1.486   4.343  18.939  0.00  0.00    +0.000 A 
ATOM      8  C   UNL     1       0.838   3.452  19.801  0.00  0.00    +0.000 A 
ATOM      9  C   UNL     1       1.300   3.288  21.099  0.00  0.00    +0.000 A 
ATOM     10  F   UNL     1       0.684   2.427  21.919  0.00  0.00    +0.000 F 
ATOM     11  C   UNL     1       2.390   4.012  21.560  0.00  0.00    +0.000 A 
ATOM     12  C   UNL     1       3.020   4.930  20.715  0.00  0.00    +0.000 A 
ENDBRANCH   5   6
BRANCH   4  13
ATOM     13  C   UNL     1       1.836   8.226  19.005  0.00  0.00    +0.000 A 
ATOM     14  C   UNL     1       1.611   8.039  20.380  0.00  0.00    +0.000 A 
ATOM     15  C   UNL     1       0.657   8.798  21.067  0.00  0.00    +0.000 A 
ATOM     16  C   UNL     1      -0.083   9.761  20.390  0.00  0.00    +0.000 A 
ATOM     17  C   UNL     1       0.103   9.941  19.022  0.00  0.00    +0.000 A 
ATOM     18  C   UNL     1       1.035   9.158  18.330  0.00  0.00    +0.000 A 
ENDBRANCH   4  13
BRANCH   1  19
ATOM     19  S   UNL     1       5.033   4.328  17.319  0.00  0.00    +0.000 S 
BRANCH  19  20
ATOM     20  C   UNL     1       6.676   4.851  16.726  0.00  0.00    +0.000 C 
BRANCH  20  24
ATOM     21  C   UNL     1       6.301   3.374  11.837  0.00  0.00    +0.000 C 
ATOM     22  C   UNL     1       6.568   3.959  13.164  0.00  0.00    +0.000 A 
ATOM     23  C   UNL     1       6.086   3.730  14.430  0.00  0.00    +0.000 A 
ATOM     24  C   UNL     1       6.789   4.650  15.250  0.00  0.00    +0.000 A 
ATOM     25  N   UNL     1       7.630   5.397  14.518  0.00  0.00    +0.000 NA
ATOM     26  O   UNL     1       7.489   4.958  13.212  0.00  0.00    +0.000 OA
ENDBRANCH  20  24
ENDBRANCH  19  20
ENDBRANCH   1  19
TORSDOF 5
ENDMDL
MODEL 3
REMARK VINA RESULT:      -8.6      1.869      2.591
REMARK  Name = 
REMARK  6 active torsions:
REMARK  status: ('A' for Active; 'I' for Inactive)
REMARK    1  A    between atoms: C_1  and  C_2
REMARK    2  A    between atoms: C_4  and  C_5
REMARK    3  A    between atoms: C_5  and  S_6
REMARK    4  A    between atoms: S_6  and  C_7
REMARK    5  A    between atoms: C_10  and  C_11
REMARK    6  A    between atoms: N_17  and  C_18
REMARK                            x       y       z     vdW  Elec       q    Type
REMARK                         _______ _______ _______ _____ _____    ______ ____
ROOT
ATOM      1  C   UNL     1       3.948   5.817  17.492  0.00  0.00    +0.000 A 
ATOM      2  N   UNL     1       4.173   6.946  16.866  0.00  0.00    +0.000 NA
ATOM      3  N   UNL     1       3.368   7.897  17.421  0.00  0.00    +0.000 NA
ATOM      4  C   UNL     1       2.672   7.361  18.413  0.00  0.00    +0.000 A 
ATOM      5  N   UNL     1       2.993   5.994  18.494  0.00  0.00    +0.000 N 
ENDROOT
BRANCH   5   6
ATOM      6  C   UNL     1       2.455   5.006  19.381  0.00  0.00    +0.000 A 
ATOM      7  C   UNL     1       1.379   4.197  18.982  0.00  0.00    +0.000 A 
ATOM      8  C   UNL     1       0.822   3.272  19.871  0.00  0.00    +0.000 A 
ATOM      9  C   UNL     1       1.363   3.125  21.141  0.00  0.00    +0.000 A 
ATOM     10  F   UNL     1       0.834   2.232  21.987  0.00  0.00    +0.000 F 
ATOM     11  C   UNL     1       2.442   3.897  21.546  0.00  0.00    +0.000 A 
ATOM     12  C   UNL     1       2.980   4.847  20.674  0.00  0.00    +0.000 A 
ENDBRANCH   5   6
BRANCH   4  13
ATOM     13  C   UNL     1       1.775   8.163  19.271  0.00  0.00    +0.000 A 
ATOM     14  C   UNL     1       1.103   9.265  18.714  0.00  0.00    +0.000 A 
ATOM     15  C   UNL     1       0.233  10.046  19.482  0.00  0.00    +0.000 A 
ATOM     16  C   UNL     1       0.016   9.733  20.820  0.00  0.00    +0.000 A 
ATOM     17  C   UNL     1       0.694   8.664  21.398  0.00  0.00    +0.000 A 
ATOM     18  C   UNL     1       1.590   7.904  20.637  0.00  0.00    +0.000 A 
ENDBRANCH   4  13
BRANCH   1  19
ATOM     19  S   UNL     1       4.573   4.290  16.941  0.00  0.00    +0.000 S 
BRANCH  19  20
ATOM     20  C   UNL     1       6.204   4.254  17.753  0.00  0.00    +0.000 C 
BRANCH  20  24
ATOM     21  C   UNL     1       8.461   8.825  18.239  0.00  0.00    +0.000 C 
ATOM     22  C   UNL     1       7.868   7.527  17.867  0.00  0.00    +0.000 A 
ATOM     23  C   UNL     1       7.235   6.525  18.562  0.00  0.00    +0.000 A 
ATOM     24  C   UNL     1       6.908   5.560  17.575  0.00  0.00    +0.000 A 
ATOM     25  N   UNL     1       7.333   5.952  16.364  0.00  0.00    +0.000 NA
ATOM     26  O   UNL     1       7.932   7.187  16.552  0.00  0.00    +0.000 OA
ENDBRANCH  20  24
ENDBRANCH  19  20
ENDBRANCH   1  19
TORSDOF 5
ENDMDL
MODEL 4
REMARK VINA RESULT:      -8.6      1.877      2.429
REMARK  Name = 
REMARK  6 active torsions:
REMARK  status: ('A' for Active; 'I' for Inactive)
REMARK    1  A    between atoms: C_1  and  C_2
REMARK    2  A    between atoms: C_4  and  C_5
REMARK    3  A    between atoms: C_5  and  S_6
REMARK    4  A    between atoms: S_6  and  C_7
REMARK    5  A    between atoms: C_10  and  C_11
REMARK    6  A    between atoms: N_17  and  C_18
REMARK                            x       y       z     vdW  Elec       q    Type
REMARK                         _______ _______ _______ _____ _____    ______ ____
ROOT
ATOM      1  C   UNL     1       4.069   5.820  17.322  0.00  0.00    +0.000 A 
ATOM      2  N   UNL     1       4.329   6.901  16.629  0.00  0.00    +0.000 NA
ATOM      3  N   UNL     1       3.499   7.889  17.072  0.00  0.00    +0.000 NA
ATOM      4  C   UNL     1       2.751   7.425  18.062  0.00  0.00    +0.000 A 
ATOM      5  N   UNL     1       3.064   6.067  18.257  0.00  0.00    +0.000 N 
ENDROOT
BRANCH   5   6
ATOM      6  C   UNL     1       2.477   5.145  19.183  0.00  0.00    +0.000 A 
ATOM      7  C   UNL     1       2.928   5.079  20.510  0.00  0.00    +0.000 A 
ATOM      8  C   UNL     1       2.389   4.139  21.395  0.00  0.00    +0.000 A 
ATOM      9  C   UNL     1       1.373   3.294  20.969  0.00  0.00    +0.000 A 
ATOM     10  F   UNL     1       0.853   2.401  21.820  0.00  0.00    +0.000 F 
ATOM     11  C   UNL     1       0.896   3.360  19.668  0.00  0.00    +0.000 A 
ATOM     12  C   UNL     1       1.455   4.274  18.770  0.00  0.00    +0.000 A 
ENDBRANCH   5   6
BRANCH   4  13
ATOM     13  C   UNL     1       1.812   8.285  18.812  0.00  0.00    +0.000 A 
ATOM     14  C   UNL     1       1.078   9.260  18.117  0.00  0.00    +0.000 A 
ATOM     15  C   UNL     1       0.166  10.090  18.781  0.00  0.00    +0.000 A 
ATOM     16  C   UNL     1      -0.028   9.951  20.151  0.00  0.00    +0.000 A 
ATOM     17  C   UNL     1       0.711   9.011  20.862  0.00  0.00    +0.000 A 
ATOM     18  C   UNL     1       1.647   8.205  20.202  0.00  0.00    +0.000 A 
ENDBRANCH   4  13
BRANCH   1  19
ATOM     19  S   UNL     1       4.718   4.258  16.914  0.00  0.00    +0.000 S 
BRANCH  19  20
ATOM     20  C   UNL     1       6.313   4.289  17.797  0.00  0.00    +0.000 C 
BRANCH  20  24
ATOM     21  C   UNL     1       8.496   8.898  18.263  0.00  0.00    +0.000 C 
ATOM     22  C   UNL     1       7.919   7.592  17.896  0.00  0.00    +0.000 A 
ATOM     23  C   UNL     1       7.320   6.574  18.597  0.00  0.00    +0.000 A 
ATOM     24  C   UNL     1       6.989   5.609  17.611  0.00  0.00    +0.000 A 
ATOM     25  N   UNL     1       7.380   6.016  16.394  0.00  0.00    +0.000 NA
ATOM     26  O   UNL     1       7.960   7.260  16.577  0.00  0.00    +0.000 OA
ENDBRANCH  20  24
ENDBRANCH  19  20
ENDBRANCH   1  19
TORSDOF 5
ENDMDL
MODEL 5
REMARK VINA RESULT:      -8.2      1.971      2.644
REMARK  Name = 
REMARK  6 active torsions:
REMARK  status: ('A' for Active; 'I' for Inactive)
REMARK    1  A    between atoms: C_1  and  C_2
REMARK    2  A    between atoms: C_4  and  C_5
REMARK    3  A    between atoms: C_5  and  S_6
REMARK    4  A    between atoms: S_6  and  C_7
REMARK    5  A    between atoms: C_10  and  C_11
REMARK    6  A    between atoms: N_17  and  C_18
REMARK                            x       y       z     vdW  Elec       q    Type
REMARK                         _______ _______ _______ _____ _____    ______ ____
ROOT
ATOM      1  C   UNL     1       5.284   5.261  16.432  0.00  0.00    +0.000 A 
ATOM      2  N   UNL     1       5.652   6.433  15.974  0.00  0.00    +0.000 NA
ATOM      3  N   UNL     1       4.819   7.370  16.511  0.00  0.00    +0.000 NA
ATOM      4  C   UNL     1       3.959   6.778  17.327  0.00  0.00    +0.000 A 
ATOM      5  N   UNL     1       4.201   5.393  17.301  0.00  0.00    +0.000 N 
ENDROOT
BRANCH   5   6
ATOM      6  C   UNL     1       3.491   4.353  17.986  0.00  0.00    +0.000 A 
ATOM      7  C   UNL     1       2.199   3.983  17.580  0.00  0.00    +0.000 A 
ATOM      8  C   UNL     1       1.490   3.006  18.287  0.00  0.00    +0.000 A 
ATOM      9  C   UNL     1       2.083   2.370  19.369  0.00  0.00    +0.000 A 
ATOM     10  F   UNL     1       1.405   1.429  20.038  0.00  0.00    +0.000 F 
ATOM     11  C   UNL     1       3.369   2.704  19.770  0.00  0.00    +0.000 A 
ATOM     12  C   UNL     1       4.069   3.704  19.089  0.00  0.00    +0.000 A 
ENDBRANCH   5   6
BRANCH   4  13
ATOM     13  C   UNL     1       2.983   7.541  18.133  0.00  0.00    +0.000 A 
ATOM     14  C   UNL     1       2.700   7.118  19.442  0.00  0.00    +0.000 A 
ATOM     15  C   UNL     1       1.792   7.816  20.248  0.00  0.00    +0.000 A 
ATOM     16  C   UNL     1       1.159   8.952  19.757  0.00  0.00    +0.000 A 
ATOM     17  C   UNL     1       1.403   9.370  18.453  0.00  0.00    +0.000 A 
ATOM     18  C   UNL     1       2.285   8.652  17.636  0.00  0.00    +0.000 A 
ENDBRANCH   4  13
BRANCH   1  19
ATOM     19  S   UNL     1       5.913   3.763  15.808  0.00  0.00    +0.000 S 
BRANCH  19  20
ATOM     20  C   UNL     1       6.646   4.310  14.232  0.00  0.00    +0.000 C 
BRANCH  20  24
ATOM     21  C   UNL     1       3.368   3.032  10.511  0.00  0.00    +0.000 C 
ATOM     22  C   UNL     1       4.449   3.224  11.495  0.00  0.00    +0.000 A 
ATOM     23  C   UNL     1       4.659   4.098  12.534  0.00  0.00    +0.000 A 
ATOM     24  C   UNL     1       5.912   3.712  13.075  0.00  0.00    +0.000 A 
ATOM     25  N   UNL     1       6.430   2.679  12.393  0.00  0.00    +0.000 NA
ATOM     26  O   UNL     1       5.508   2.376  11.405  0.00  0.00    +0.000 OA
ENDBRANCH  20  24
ENDBRANCH  19  20
ENDBRANCH   1  19
TORSDOF 5
ENDMDL
MODEL 6
REMARK VINA RESULT:      -8.1      2.111      2.512
REMARK  Name = 
REMARK  6 active torsions:
REMARK  status: ('A' for Active; 'I' for Inactive)
REMARK    1  A    between atoms: C_1  and  C_2
REMARK    2  A    between atoms: C_4  and  C_5
REMARK    3  A    between atoms: C_5  and  S_6
REMARK    4  A    between atoms: S_6  and  C_7
REMARK    5  A    between atoms: C_10  and  C_11
REMARK    6  A    between atoms: N_17  and  C_18
REMARK                            x       y       z     vdW  Elec       q    Type
REMARK                         _______ _______ _______ _____ _____    ______ ____
ROOT
ATOM      1  C   UNL     1       5.382   5.185  16.277  0.00  0.00    +0.000 A 
ATOM      2  N   UNL     1       5.737   6.365  15.831  0.00  0.00    +0.000 NA
ATOM      3  N   UNL     1       4.915   7.290  16.403  0.00  0.00    +0.000 NA
ATOM      4  C   UNL     1       4.075   6.683  17.228  0.00  0.00    +0.000 A 
ATOM      5  N   UNL     1       4.318   5.298  17.171  0.00  0.00    +0.000 N 
ENDROOT
BRANCH   5   6
ATOM      6  C   UNL     1       3.625   4.246  17.854  0.00  0.00    +0.000 A 
ATOM      7  C   UNL     1       4.238   3.555  18.910  0.00  0.00    +0.000 A 
ATOM      8  C   UNL     1       3.579   2.491  19.537  0.00  0.00    +0.000 A 
ATOM      9  C   UNL     1       2.295   2.146  19.138  0.00  0.00    +0.000 A 
ATOM     10  F   UNL     1       1.662   1.134  19.745  0.00  0.00    +0.000 F 
ATOM     11  C   UNL     1       1.662   2.833  18.113  0.00  0.00    +0.000 A 
ATOM     12  C   UNL     1       2.329   3.873  17.460  0.00  0.00    +0.000 A 
ENDBRANCH   5   6
BRANCH   4  13
ATOM     13  C   UNL     1       3.115   7.429  18.067  0.00  0.00    +0.000 A 
ATOM     14  C   UNL     1       2.542   8.609  17.564  0.00  0.00    +0.000 A 
ATOM     15  C   UNL     1       1.618   9.344  18.316  0.00  0.00    +0.000 A 
ATOM     16  C   UNL     1       1.247   8.905  19.582  0.00  0.00    +0.000 A 
ATOM     17  C   UNL     1       1.825   7.754  20.111  0.00  0.00    +0.000 A 
ATOM     18  C   UNL     1       2.775   7.039  19.371  0.00  0.00    +0.000 A 
ENDBRANCH   4  13
BRANCH   1  19
ATOM     19  S   UNL     1       6.000   3.699  15.613  0.00  0.00    +0.000 S 
BRANCH  19  20
ATOM     20  C   UNL     1       6.649   4.266  14.007  0.00  0.00    +0.000 C 
BRANCH  20  24
ATOM     21  C   UNL     1       3.263   2.966  10.392  0.00  0.00    +0.000 C 
ATOM     22  C   UNL     1       4.369   3.159  11.347  0.00  0.00    +0.000 A 
ATOM     23  C   UNL     1       4.622   4.054  12.358  0.00  0.00    +0.000 A 
ATOM     24  C   UNL     1       5.877   3.654  12.883  0.00  0.00    +0.000 A 
ATOM     25  N   UNL     1       6.357   2.592  12.217  0.00  0.00    +0.000 NA
ATOM     26  O   UNL     1       5.407   2.284  11.258  0.00  0.00    +0.000 OA
ENDBRANCH  20  24
ENDBRANCH  19  20
ENDBRANCH   1  19
TORSDOF 5
ENDMDL
MODEL 7
REMARK VINA RESULT:      -8.1      0.676      1.243
REMARK  Name = 
REMARK  6 active torsions:
REMARK  status: ('A' for Active; 'I' for Inactive)
REMARK    1  A    between atoms: C_1  and  C_2
REMARK    2  A    between atoms: C_4  and  C_5
REMARK    3  A    between atoms: C_5  and  S_6
REMARK    4  A    between atoms: S_6  and  C_7
REMARK    5  A    between atoms: C_10  and  C_11
REMARK    6  A    between atoms: N_17  and  C_18
REMARK                            x       y       z     vdW  Elec       q    Type
REMARK                         _______ _______ _______ _____ _____    ______ ____
ROOT
ATOM      1  C   UNL     1       3.622   6.314  17.818  0.00  0.00    +0.000 A 
ATOM      2  N   UNL     1       3.791   7.494  17.271  0.00  0.00    +0.000 NA
ATOM      3  N   UNL     1       2.974   8.373  17.918  0.00  0.00    +0.000 NA
ATOM      4  C   UNL     1       2.327   7.742  18.886  0.00  0.00    +0.000 A 
ATOM      5  N   UNL     1       2.694   6.385  18.857  0.00  0.00    +0.000 N 
ENDROOT
BRANCH   5   6
ATOM      6  C   UNL     1       2.215   5.316  19.683  0.00  0.00    +0.000 A 
ATOM      7  C   UNL     1       2.723   5.131  20.978  0.00  0.00    +0.000 A 
ATOM      8  C   UNL     1       2.292   4.054  21.759  0.00  0.00    +0.000 A 
ATOM      9  C   UNL     1       1.325   3.188  21.266  0.00  0.00    +0.000 A 
ATOM     10  F   UNL     1       0.908   2.162  22.020  0.00  0.00    +0.000 F 
ATOM     11  C   UNL     1       0.792   3.368  19.998  0.00  0.00    +0.000 A 
ATOM     12  C   UNL     1       1.245   4.422  19.200  0.00  0.00    +0.000 A 
ENDBRANCH   5   6
BRANCH   4  13
ATOM     13  C   UNL     1       1.430   8.448  19.826  0.00  0.00    +0.000 A 
ATOM     14  C   UNL     1       1.470   8.110  21.190  0.00  0.00    +0.000 A 
ATOM     15  C   UNL     1       0.651   8.759  22.121  0.00  0.00    +0.000 A 
ATOM     16  C   UNL     1      -0.217   9.762  21.701  0.00  0.00    +0.000 A 
ATOM     17  C   UNL     1      -0.293  10.090  20.351  0.00  0.00    +0.000 A 
ATOM     18  C   UNL     1       0.503   9.417  19.417  0.00  0.00    +0.000 A 
ENDBRANCH   4  13
BRANCH   1  19
ATOM     19  S   UNL     1       4.279   4.854  17.137  0.00  0.00    +0.000 S 
BRANCH  19  20
ATOM     20  C   UNL     1       6.038   5.299  16.960  0.00  0.00    +0.000 C 
BRANCH  20  24
ATOM     21  C   UNL     1       6.729   3.781  12.118  0.00  0.00    +0.000 C 
ATOM     22  C   UNL     1       6.732   4.343  13.481  0.00  0.00    +0.000 A 
ATOM     23  C   UNL     1       5.891   4.246  14.563  0.00  0.00    +0.000 A 
ATOM     24  C   UNL     1       6.507   5.039  15.565  0.00  0.00    +0.000 A 
ATOM     25  N   UNL     1       7.641   5.591  15.107  0.00  0.00    +0.000 NA
ATOM     26  O   UNL     1       7.779   5.149  13.802  0.00  0.00    +0.000 OA
ENDBRANCH  20  24
ENDBRANCH  19  20
ENDBRANCH   1  19
TORSDOF 5
ENDMDL
MODEL 8
REMARK VINA RESULT:      -8.1      1.706      2.139
REMARK  Name = 
REMARK  6 active torsions:
REMARK  status: ('A' for Active; 'I' for Inactive)
REMARK    1  A    between atoms: C_1  and  C_2
REMARK    2  A    between atoms: C_4  and  C_5
REMARK    3  A    between atoms: C_5  and  S_6
REMARK    4  A    between atoms: S_6  and  C_7
REMARK    5  A    between atoms: C_10  and  C_11
REMARK    6  A    between atoms: N_17  and  C_18
REMARK                            x       y       z     vdW  Elec       q    Type
REMARK                         _______ _______ _______ _____ _____    ______ ____
ROOT
ATOM      1  C   UNL     1       5.132   5.421  16.677  0.00  0.00    +0.000 A 
ATOM      2  N   UNL     1       5.510   6.573  16.176  0.00  0.00    +0.000 NA
ATOM      3  N   UNL     1       4.662   7.530  16.650  0.00  0.00    +0.000 NA
ATOM      4  C   UNL     1       3.783   6.973  17.470  0.00  0.00    +0.000 A 
ATOM      5  N   UNL     1       4.026   5.589  17.511  0.00  0.00    +0.000 N 
ENDROOT
BRANCH   5   6
ATOM      6  C   UNL     1       3.301   4.579  18.223  0.00  0.00    +0.000 A 
ATOM      7  C   UNL     1       3.832   4.005  19.388  0.00  0.00    +0.000 A 
ATOM      8  C   UNL     1       3.144   2.981  20.049  0.00  0.00    +0.000 A 
ATOM      9  C   UNL     1       1.910   2.561  19.572  0.00  0.00    +0.000 A 
ATOM     10  F   UNL     1       1.250   1.587  20.211  0.00  0.00    +0.000 F 
ATOM     11  C   UNL     1       1.356   3.133  18.436  0.00  0.00    +0.000 A 
ATOM     12  C   UNL     1       2.055   4.132  17.753  0.00  0.00    +0.000 A 
ENDBRANCH   5   6
BRANCH   4  13
ATOM     13  C   UNL     1       2.785   7.769  18.215  0.00  0.00    +0.000 A 
ATOM     14  C   UNL     1       2.466   7.402  19.533  0.00  0.00    +0.000 A 
ATOM     15  C   UNL     1       1.538   8.132  20.284  0.00  0.00    +0.000 A 
ATOM     16  C   UNL     1       0.918   9.247  19.728  0.00  0.00    +0.000 A 
ATOM     17  C   UNL     1       1.198   9.609  18.414  0.00  0.00    +0.000 A 
ATOM     18  C   UNL     1       2.102   8.858  17.653  0.00  0.00    +0.000 A 
ENDBRANCH   4  13
BRANCH   1  19
ATOM     19  S   UNL     1       5.778   3.899  16.136  0.00  0.00    +0.000 S 
BRANCH  19  20
ATOM     20  C   UNL     1       6.765   4.419  14.695  0.00  0.00    +0.000 C 
BRANCH  20  24
ATOM     21  C   UNL     1       3.701   3.027  10.835  0.00  0.00    +0.000 C 
ATOM     22  C   UNL     1       4.762   3.349  11.807  0.00  0.00    +0.000 A 
ATOM     23  C   UNL     1       4.780   3.920  13.056  0.00  0.00    +0.000 A 
ATOM     24  C   UNL     1       6.149   3.918  13.428  0.00  0.00    +0.000 A 
ATOM     25  N   UNL     1       6.908   3.392  12.455  0.00  0.00    +0.000 NA
ATOM     26  O   UNL     1       6.034   3.035  11.442  0.00  0.00    +0.000 OA
ENDBRANCH  20  24
ENDBRANCH  19  20
ENDBRANCH   1  19
TORSDOF 5
ENDMDL
MODEL 9
REMARK VINA RESULT:      -8.1      1.817      2.757
REMARK  Name = 
REMARK  6 active torsions:
REMARK  status: ('A' for Active; 'I' for Inactive)
REMARK    1  A    between atoms: C_1  and  C_2
REMARK    2  A    between atoms: C_4  and  C_5
REMARK    3  A    between atoms: C_5  and  S_6
REMARK    4  A    between atoms: S_6  and  C_7
REMARK    5  A    between atoms: C_10  and  C_11
REMARK    6  A    between atoms: N_17  and  C_18
REMARK                            x       y       z     vdW  Elec       q    Type
REMARK                         _______ _______ _______ _____ _____    ______ ____
ROOT
ATOM      1  C   UNL     1       4.161   5.562  17.353  0.00  0.00    +0.000 A 
ATOM      2  N   UNL     1       4.460   6.614  16.631  0.00  0.00    +0.000 NA
ATOM      3  N   UNL     1       3.655   7.638  17.036  0.00  0.00    +0.000 NA
ATOM      4  C   UNL     1       2.884   7.225  18.031  0.00  0.00    +0.000 A 
ATOM      5  N   UNL     1       3.155   5.866  18.270  0.00  0.00    +0.000 N 
ENDROOT
BRANCH   5   6
ATOM      6  C   UNL     1       2.532   4.988  19.216  0.00  0.00    +0.000 A 
ATOM      7  C   UNL     1       3.018   4.893  20.530  0.00  0.00    +0.000 A 
ATOM      8  C   UNL     1       2.441   3.994  21.433  0.00  0.00    +0.000 A 
ATOM      9  C   UNL     1       1.355   3.224  21.041  0.00  0.00    +0.000 A 
ATOM     10  F   UNL     1       0.799   2.371  21.911  0.00  0.00    +0.000 F 
ATOM     11  C   UNL     1       0.844   3.322  19.755  0.00  0.00    +0.000 A 
ATOM     12  C   UNL     1       1.439   4.192  18.838  0.00  0.00    +0.000 A 
ENDBRANCH   5   6
BRANCH   4  13
ATOM     13  C   UNL     1       1.963   8.134  18.746  0.00  0.00    +0.000 A 
ATOM     14  C   UNL     1       1.785   7.975  20.130  0.00  0.00    +0.000 A 
ATOM     15  C   UNL     1       0.935   8.819  20.853  0.00  0.00    +0.000 A 
ATOM     16  C   UNL     1       0.254   9.842  20.202  0.00  0.00    +0.000 A 
ATOM     17  C   UNL     1       0.394   9.998  18.826  0.00  0.00    +0.000 A 
ATOM     18  C   UNL     1       1.219   9.131  18.099  0.00  0.00    +0.000 A 
ENDBRANCH   4  13
BRANCH   1  19
ATOM     19  S   UNL     1       4.769   3.970  16.998  0.00  0.00    +0.000 S 
BRANCH  19  20
ATOM     20  C   UNL     1       6.458   4.348  16.429  0.00  0.00    +0.000 C 
BRANCH  20  24
ATOM     21  C   UNL     1       8.577   8.429  18.685  0.00  0.00    +0.000 C 
ATOM     22  C   UNL     1       8.007   7.143  18.244  0.00  0.00    +0.000 A 
ATOM     23  C   UNL     1       7.419   6.698  17.084  0.00  0.00    +0.000 A 
ATOM     24  C   UNL     1       7.110   5.338  17.340  0.00  0.00    +0.000 A 
ATOM     25  N   UNL     1       7.475   4.991  18.584  0.00  0.00    +0.000 NA
ATOM     26  O   UNL     1       8.039   6.124  19.145  0.00  0.00    +0.000 OA
ENDBRANCH  20  24
ENDBRANCH  19  20
ENDBRANCH   1  19
TORSDOF 5
ENDMDL
