MODEL 1
REMARK VINA RESULT:      -8.2      0.000      0.000
REMARK  Name = 
REMARK  6 active torsions:
REMARK  status: ('A' for Active; 'I' for Inactive)
REMARK    1  A    between atoms: C_1  and  C_2
REMARK    2  A    between atoms: C_5  and  N_6
REMARK    3  A    between atoms: N_6  and  S_7
REMARK    4  A    between atoms: S_7  and  C_10
REMARK    5  A    between atoms: C_21  and  S_22
REMARK    6  A    between atoms: S_22  and  N_25
REMARK                            x       y       z     vdW  Elec       q    Type
REMARK                         _______ _______ _______ _____ _____    ______ ____
ROOT
ATOM      1  C   UNL     1       1.623   2.699  19.596  0.00  0.00    +0.000 C 
ATOM      2  C   UNL     1       2.034   4.127  19.840  0.00  0.00    +0.000 A 
ATOM      3  C   UNL     1       1.164   4.933  20.597  0.00  0.00    +0.000 A 
ATOM      4  C   UNL     1       1.322   6.312  20.628  0.00  0.00    +0.000 A 
ATOM      5  C   UNL     1       2.329   6.892  19.867  0.00  0.00    +0.000 A 
ATOM      6  C   UNL     1       3.268   6.100  19.195  0.00  0.00    +0.000 A 
ATOM      7  C   UNL     1       3.152   4.713  19.203  0.00  0.00    +0.000 A 
ENDROOT
BRANCH   7   8
ATOM      8  S   UNL     1       4.362   3.640  18.420  0.00  0.00    +0.000 S 
ATOM      9  O   UNL     1       5.129   3.071  19.510  0.00  0.00    +0.000 OA
ATOM     10  O   UNL     1       3.608   2.804  17.510  0.00  0.00    +0.000 OA
BRANCH   8  11
ATOM     11  N   UNL     1       5.426   4.538  17.507  0.00  0.00    +0.000 NA
ATOM     12  C   UNL     1       6.746   4.996  17.972  0.00  0.00    +0.000 C 
ATOM     13  C   UNL     1       6.822   6.525  17.868  0.00  0.00    +0.000 C 
ATOM     14  O   UNL     1       6.413   7.031  16.584  0.00  0.00    +0.000 OA
ATOM     15  C   UNL     1       5.149   6.518  16.125  0.00  0.00    +0.000 C 
ATOM     16  C   UNL     1       5.126   4.993  16.139  0.00  0.00    +0.000 C 
ENDBRANCH   8  11
ENDBRANCH   7   8
BRANCH   5  17
ATOM     17  N   UNL     1       2.294   8.293  19.624  0.00  0.00    +0.000 N 
ATOM     18  H   UNL     1       1.922   8.892  20.361  0.00  0.00    +0.000 HD
BRANCH  17  19
ATOM     19  S   UNL     1       1.737   8.787  18.091  0.00  0.00    +0.000 S 
ATOM     20  O   UNL     1       2.675   9.791  17.633  0.00  0.00    +0.000 OA
ATOM     21  O   UNL     1       1.449   7.612  17.295  0.00  0.00    +0.000 OA
BRANCH  19  22
ATOM     22  C   UNL     1       0.190   9.627  18.412  0.00  0.00    +0.000 A 
ATOM     23  C   UNL     1       0.084  10.459  19.529  0.00  0.00    +0.000 A 
ATOM     24  C   UNL     1      -1.079  11.207  19.735  0.00  0.00    +0.000 A 
ATOM     25  C   UNL     1      -2.140  11.145  18.819  0.00  0.00    +0.000 A 
ATOM     26  C   UNL     1      -3.301  11.919  18.999  0.00  0.00    +0.000 A 
ATOM     27  C   UNL     1      -4.350  11.859  18.081  0.00  0.00    +0.000 A 
ATOM     28  C   UNL     1      -4.249  11.022  16.978  0.00  0.00    +0.000 A 
ATOM     29  C   UNL     1      -3.102  10.254  16.777  0.00  0.00    +0.000 A 
ATOM     30  C   UNL     1      -2.036  10.302  17.689  0.00  0.00    +0.000 A 
ATOM     31  C   UNL     1      -0.861   9.551  17.491  0.00  0.00    +0.000 A 
ENDBRANCH  19  22
ENDBRANCH  17  19
ENDBRANCH   5  17
TORSDOF 5
ENDMDL
MODEL 2
REMARK VINA RESULT:      -8.1      1.547      2.390
REMARK  Name = 
REMARK  6 active torsions:
REMARK  status: ('A' for Active; 'I' for Inactive)
REMARK    1  A    between atoms: C_1  and  C_2
REMARK    2  A    between atoms: C_5  and  N_6
REMARK    3  A    between atoms: N_6  and  S_7
REMARK    4  A    between atoms: S_7  and  C_10
REMARK    5  A    between atoms: C_21  and  S_22
REMARK    6  A    between atoms: S_22  and  N_25
REMARK                            x       y       z     vdW  Elec       q    Type
REMARK                         _______ _______ _______ _____ _____    ______ ____
ROOT
ATOM      1  C   UNL     1       2.191   4.532  20.666  0.00  0.00    +0.000 C 
ATOM      2  C   UNL     1       2.314   5.922  20.100  0.00  0.00    +0.000 A 
ATOM      3  C   UNL     1       1.570   6.943  20.721  0.00  0.00    +0.000 A 
ATOM      4  C   UNL     1       1.403   8.175  20.102  0.00  0.00    +0.000 A 
ATOM      5  C   UNL     1       1.948   8.374  18.840  0.00  0.00    +0.000 A 
ATOM      6  C   UNL     1       2.779   7.410  18.255  0.00  0.00    +0.000 A 
ATOM      7  C   UNL     1       2.998   6.192  18.893  0.00  0.00    +0.000 A 
ENDROOT
BRANCH   7   8
ATOM      8  S   UNL     1       4.107   4.944  18.230  0.00  0.00    +0.000 S 
ATOM      9  O   UNL     1       4.976   4.582  19.333  0.00  0.00    +0.000 OA
ATOM     10  O   UNL     1       3.252   3.966  17.591  0.00  0.00    +0.000 OA
BRANCH   8  11
ATOM     11  N   UNL     1       5.081   5.602  17.051  0.00  0.00    +0.000 NA
ATOM     12  C   UNL     1       5.265   5.032  15.706  0.00  0.00    +0.000 C 
ATOM     13  C   UNL     1       6.756   4.754  15.469  0.00  0.00    +0.000 C 
ATOM     14  O   UNL     1       7.602   5.874  15.783  0.00  0.00    +0.000 OA
ATOM     15  C   UNL     1       7.357   6.452  17.079  0.00  0.00    +0.000 C 
ATOM     16  C   UNL     1       5.888   6.816  17.260  0.00  0.00    +0.000 C 
ENDBRANCH   8  11
ENDBRANCH   7   8
BRANCH   5  17
ATOM     17  N   UNL     1       1.511   9.483  18.064  0.00  0.00    +0.000 N 
ATOM     18  H   UNL     1       2.083   9.758  17.267  0.00  0.00    +0.000 HD
BRANCH  17  19
ATOM     19  S   UNL     1       0.962  10.848  18.927  0.00  0.00    +0.000 S 
ATOM     20  O   UNL     1       1.064  10.498  20.329  0.00  0.00    +0.000 OA
ATOM     21  O   UNL     1       1.613  12.029  18.400  0.00  0.00    +0.000 OA
BRANCH  19  22
ATOM     22  C   UNL     1      -0.782  10.963  18.543  0.00  0.00    +0.000 A 
ATOM     23  C   UNL     1      -1.324  10.122  17.568  0.00  0.00    +0.000 A 
ATOM     24  C   UNL     1      -2.702  10.122  17.333  0.00  0.00    +0.000 A 
ATOM     25  C   UNL     1      -3.554  10.947  18.082  0.00  0.00    +0.000 A 
ATOM     26  C   UNL     1      -4.946  10.931  17.877  0.00  0.00    +0.000 A 
ATOM     27  C   UNL     1      -5.790  11.749  18.630  0.00  0.00    +0.000 A 
ATOM     28  C   UNL     1      -5.249  12.593  19.590  0.00  0.00    +0.000 A 
ATOM     29  C   UNL     1      -3.873  12.617  19.814  0.00  0.00    +0.000 A 
ATOM     30  C   UNL     1      -3.008  11.801  19.068  0.00  0.00    +0.000 A 
ATOM     31  C   UNL     1      -1.618  11.795  19.296  0.00  0.00    +0.000 A 
ENDBRANCH  19  22
ENDBRANCH  17  19
ENDBRANCH   5  17
TORSDOF 5
ENDMDL
MODEL 3
REMARK VINA RESULT:      -8.0      2.171      4.135
REMARK  Name = 
REMARK  6 active torsions:
REMARK  status: ('A' for Active; 'I' for Inactive)
REMARK    1  A    between atoms: C_1  and  C_2
REMARK    2  A    between atoms: C_5  and  N_6
REMARK    3  A    between atoms: N_6  and  S_7
REMARK    4  A    between atoms: S_7  and  C_10
REMARK    5  A    between atoms: C_21  and  S_22
REMARK    6  A    between atoms: S_22  and  N_25
REMARK                            x       y       z     vdW  Elec       q    Type
REMARK                         _______ _______ _______ _____ _____    ______ ____
ROOT
ATOM      1  C   UNL     1       5.985   5.128  16.540  0.00  0.00    +0.000 C 
ATOM      2  C   UNL     1       4.740   5.744  17.119  0.00  0.00    +0.000 A 
ATOM      3  C   UNL     1       4.398   7.041  16.691  0.00  0.00    +0.000 A 
ATOM      4  C   UNL     1       3.444   7.784  17.373  0.00  0.00    +0.000 A 
ATOM      5  C   UNL     1       2.858   7.245  18.511  0.00  0.00    +0.000 A 
ATOM      6  C   UNL     1       3.106   5.920  18.889  0.00  0.00    +0.000 A 
ATOM      7  C   UNL     1       4.020   5.146  18.179  0.00  0.00    +0.000 A 
ENDROOT
BRANCH   7   8
ATOM      8  S   UNL     1       4.330   3.421  18.569  0.00  0.00    +0.000 S 
ATOM      9  O   UNL     1       4.267   2.725  17.299  0.00  0.00    +0.000 OA
ATOM     10  O   UNL     1       5.534   3.415  19.373  0.00  0.00    +0.000 OA
BRANCH   8  11
ATOM     11  N   UNL     1       3.100   2.809  19.509  0.00  0.00    +0.000 NA
ATOM     12  C   UNL     1       1.769   2.436  19.002  0.00  0.00    +0.000 C 
ATOM     13  C   UNL     1       0.693   3.229  19.758  0.00  0.00    +0.000 C 
ATOM     14  O   UNL     1       0.844   3.175  21.187  0.00  0.00    +0.000 OA
ATOM     15  C   UNL     1       2.172   3.484  21.651  0.00  0.00    +0.000 C 
ATOM     16  C   UNL     1       3.220   2.616  20.963  0.00  0.00    +0.000 C 
ENDBRANCH   8  11
ENDBRANCH   7   8
BRANCH   5  17
ATOM     17  N   UNL     1       2.147   8.103  19.395  0.00  0.00    +0.000 N 
ATOM     18  H   UNL     1       1.617   7.669  20.151  0.00  0.00    +0.000 HD
BRANCH  17  19
ATOM     19  S   UNL     1       1.267   9.376  18.679  0.00  0.00    +0.000 S 
ATOM     20  O   UNL     1       2.239  10.405  18.372  0.00  0.00    +0.000 OA
ATOM     21  O   UNL     1       0.403   8.830  17.653  0.00  0.00    +0.000 OA
BRANCH  19  22
ATOM     22  C   UNL     1       0.230  10.012  19.991  0.00  0.00    +0.000 A 
ATOM     23  C   UNL     1       0.342   9.471  21.274  0.00  0.00    +0.000 A 
ATOM     24  C   UNL     1      -0.381  10.028  22.333  0.00  0.00    +0.000 A 
ATOM     25  C   UNL     1      -1.208  11.143  22.125  0.00  0.00    +0.000 A 
ATOM     26  C   UNL     1      -1.913  11.732  23.190  0.00  0.00    +0.000 A 
ATOM     27  C   UNL     1      -2.729  12.845  22.979  0.00  0.00    +0.000 A 
ATOM     28  C   UNL     1      -2.850  13.374  21.701  0.00  0.00    +0.000 A 
ATOM     29  C   UNL     1      -2.151  12.809  20.634  0.00  0.00    +0.000 A 
ATOM     30  C   UNL     1      -1.325  11.691  20.827  0.00  0.00    +0.000 A 
ATOM     31  C   UNL     1      -0.594  11.121  19.766  0.00  0.00    +0.000 A 
ENDBRANCH  19  22
ENDBRANCH  17  19
ENDBRANCH   5  17
TORSDOF 5
ENDMDL
MODEL 4
REMARK VINA RESULT:      -7.9      0.656      1.152
REMARK  Name = 
REMARK  6 active torsions:
REMARK  status: ('A' for Active; 'I' for Inactive)
REMARK    1  A    between atoms: C_1  and  C_2
REMARK    2  A    between atoms: C_5  and  N_6
REMARK    3  A    between atoms: N_6  and  S_7
REMARK    4  A    between atoms: S_7  and  C_10
REMARK    5  A    between atoms: C_21  and  S_22
REMARK    6  A    between atoms: S_22  and  N_25
REMARK                            x       y       z     vdW  Elec       q    Type
REMARK                         _______ _______ _______ _____ _____    ______ ____
ROOT
ATOM      1  C   UNL     1       1.650   2.593  19.083  0.00  0.00    +0.000 C 
ATOM      2  C   UNL     1       1.957   3.979  19.583  0.00  0.00    +0.000 A 
ATOM      3  C   UNL     1       0.970   4.626  20.349  0.00  0.00    +0.000 A 
ATOM      4  C   UNL     1       1.051   5.989  20.604  0.00  0.00    +0.000 A 
ATOM      5  C   UNL     1       2.102   6.715  20.058  0.00  0.00    +0.000 A 
ATOM      6  C   UNL     1       3.147   6.072  19.385  0.00  0.00    +0.000 A 
ATOM      7  C   UNL     1       3.104   4.696  19.171  0.00  0.00    +0.000 A 
ENDROOT
BRANCH   7   8
ATOM      8  S   UNL     1       4.445   3.802  18.378  0.00  0.00    +0.000 S 
ATOM      9  O   UNL     1       5.246   3.273  19.465  0.00  0.00    +0.000 OA
ATOM     10  O   UNL     1       3.811   2.928  17.414  0.00  0.00    +0.000 OA
BRANCH   8  11
ATOM     11  N   UNL     1       5.421   4.852  17.533  0.00  0.00    +0.000 NA
ATOM     12  C   UNL     1       4.990   5.636  16.364  0.00  0.00    +0.000 C 
ATOM     13  C   UNL     1       5.894   5.307  15.168  0.00  0.00    +0.000 C 
ATOM     14  O   UNL     1       7.297   5.384  15.475  0.00  0.00    +0.000 OA
ATOM     15  C   UNL     1       7.681   4.660  16.659  0.00  0.00    +0.000 C 
ATOM     16  C   UNL     1       6.840   5.072  17.863  0.00  0.00    +0.000 C 
ENDBRANCH   8  11
ENDBRANCH   7   8
BRANCH   5  17
ATOM     17  N   UNL     1       2.019   8.135  20.026  0.00  0.00    +0.000 N 
ATOM     18  H   UNL     1       1.447   8.592  20.735  0.00  0.00    +0.000 HD
BRANCH  17  19
ATOM     19  S   UNL     1       1.789   8.850  18.495  0.00  0.00    +0.000 S 
ATOM     20  O   UNL     1       2.776   9.907  18.400  0.00  0.00    +0.000 OA
ATOM     21  O   UNL     1       1.711   7.806  17.496  0.00  0.00    +0.000 OA
BRANCH  19  22
ATOM     22  C   UNL     1       0.187   9.641  18.593  0.00  0.00    +0.000 A 
ATOM     23  C   UNL     1      -0.092  10.487  19.669  0.00  0.00    +0.000 A 
ATOM     24  C   UNL     1      -1.296  11.197  19.705  0.00  0.00    +0.000 A 
ATOM     25  C   UNL     1      -2.224  11.083  18.658  0.00  0.00    +0.000 A 
ATOM     26  C   UNL     1      -3.424  11.818  18.669  0.00  0.00    +0.000 A 
ATOM     27  C   UNL     1      -4.341  11.706  17.622  0.00  0.00    +0.000 A 
ATOM     28  C   UNL     1      -4.068  10.855  16.560  0.00  0.00    +0.000 A 
ATOM     29  C   UNL     1      -2.879  10.125  16.528  0.00  0.00    +0.000 A 
ATOM     30  C   UNL     1      -1.945  10.224  17.570  0.00  0.00    +0.000 A 
ATOM     31  C   UNL     1      -0.730   9.513  17.544  0.00  0.00    +0.000 A 
ENDBRANCH  19  22
ENDBRANCH  17  19
ENDBRANCH   5  17
TORSDOF 5
ENDMDL
MODEL 5
REMARK VINA RESULT:      -7.9      1.729      2.379
REMARK  Name = 
REMARK  6 active torsions:
REMARK  status: ('A' for Active; 'I' for Inactive)
REMARK    1  A    between atoms: C_1  and  C_2
REMARK    2  A    between atoms: C_5  and  N_6
REMARK    3  A    between atoms: N_6  and  S_7
REMARK    4  A    between atoms: S_7  and  C_10
REMARK    5  A    between atoms: C_21  and  S_22
REMARK    6  A    between atoms: S_22  and  N_25
REMARK                            x       y       z     vdW  Elec       q    Type
REMARK                         _______ _______ _______ _____ _____    ______ ____
ROOT
ATOM      1  C   UNL     1       1.899   5.128  20.678  0.00  0.00    +0.000 C 
ATOM      2  C   UNL     1       2.057   6.514  20.112  0.00  0.00    +0.000 A 
ATOM      3  C   UNL     1       1.318   7.549  20.715  0.00  0.00    +0.000 A 
ATOM      4  C   UNL     1       1.185   8.782  20.091  0.00  0.00    +0.000 A 
ATOM      5  C   UNL     1       1.760   8.969  18.840  0.00  0.00    +0.000 A 
ATOM      6  C   UNL     1       2.586   7.989  18.274  0.00  0.00    +0.000 A 
ATOM      7  C   UNL     1       2.771   6.769  18.919  0.00  0.00    +0.000 A 
ENDROOT
BRANCH   7   8
ATOM      8  S   UNL     1       3.872   5.501  18.282  0.00  0.00    +0.000 S 
ATOM      9  O   UNL     1       4.635   5.048  19.428  0.00  0.00    +0.000 OA
ATOM     10  O   UNL     1       3.027   4.595  17.533  0.00  0.00    +0.000 OA
BRANCH   8  11
ATOM     11  N   UNL     1       4.963   6.164  17.214  0.00  0.00    +0.000 NA
ATOM     12  C   UNL     1       5.046   5.821  15.785  0.00  0.00    +0.000 C 
ATOM     13  C   UNL     1       6.459   5.314  15.463  0.00  0.00    +0.000 C 
ATOM     14  O   UNL     1       7.500   6.179  15.949  0.00  0.00    +0.000 OA
ATOM     15  C   UNL     1       7.359   6.550  17.333  0.00  0.00    +0.000 C 
ATOM     16  C   UNL     1       5.984   7.146  17.615  0.00  0.00    +0.000 C 
ENDBRANCH   8  11
ENDBRANCH   7   8
BRANCH   5  17
ATOM     17  N   UNL     1       1.358  10.084  18.053  0.00  0.00    +0.000 N 
ATOM     18  H   UNL     1       1.841  10.237  17.169  0.00  0.00    +0.000 HD
BRANCH  17  19
ATOM     19  S   UNL     1       1.112  11.553  18.882  0.00  0.00    +0.000 S 
ATOM     20  O   UNL     1       1.653  11.353  20.212  0.00  0.00    +0.000 OA
ATOM     21  O   UNL     1       1.565  12.645  18.046  0.00  0.00    +0.000 OA
BRANCH  19  22
ATOM     22  C   UNL     1      -0.663  11.691  19.057  0.00  0.00    +0.000 A 
ATOM     23  C   UNL     1      -1.192  12.277  20.208  0.00  0.00    +0.000 A 
ATOM     24  C   UNL     1      -2.570  12.492  20.313  0.00  0.00    +0.000 A 
ATOM     25  C   UNL     1      -3.430  12.140  19.261  0.00  0.00    +0.000 A 
ATOM     26  C   UNL     1      -4.813  12.381  19.343  0.00  0.00    +0.000 A 
ATOM     27  C   UNL     1      -5.663  12.035  18.291  0.00  0.00    +0.000 A 
ATOM     28  C   UNL     1      -5.137  11.440  17.152  0.00  0.00    +0.000 A 
ATOM     29  C   UNL     1      -3.767  11.201  17.049  0.00  0.00    +0.000 A 
ATOM     30  C   UNL     1      -2.896  11.543  18.096  0.00  0.00    +0.000 A 
ATOM     31  C   UNL     1      -1.507  11.330  18.001  0.00  0.00    +0.000 A 
ENDBRANCH  19  22
ENDBRANCH  17  19
ENDBRANCH   5  17
TORSDOF 5
ENDMDL
MODEL 6
REMARK VINA RESULT:      -7.8      2.929      4.476
REMARK  Name = 
REMARK  6 active torsions:
REMARK  status: ('A' for Active; 'I' for Inactive)
REMARK    1  A    between atoms: C_1  and  C_2
REMARK    2  A    between atoms: C_5  and  N_6
REMARK    3  A    between atoms: N_6  and  S_7
REMARK    4  A    between atoms: S_7  and  C_10
REMARK    5  A    between atoms: C_21  and  S_22
REMARK    6  A    between atoms: S_22  and  N_25
REMARK                            x       y       z     vdW  Elec       q    Type
REMARK                         _______ _______ _______ _____ _____    ______ ____
ROOT
ATOM      1  C   UNL     1       4.277   6.823  17.257  0.00  0.00    +0.000 C 
ATOM      2  C   UNL     1       3.112   7.433  17.989  0.00  0.00    +0.000 A 
ATOM      3  C   UNL     1       2.563   8.617  17.464  0.00  0.00    +0.000 A 
ATOM      4  C   UNL     1       1.689   9.390  18.218  0.00  0.00    +0.000 A 
ATOM      5  C   UNL     1       1.394   8.997  19.517  0.00  0.00    +0.000 A 
ATOM      6  C   UNL     1       1.845   7.770  20.018  0.00  0.00    +0.000 A 
ATOM      7  C   UNL     1       2.677   6.960  19.249  0.00  0.00    +0.000 A 
ENDROOT
BRANCH   7   8
ATOM      8  S   UNL     1       3.232   5.345  19.805  0.00  0.00    +0.000 S 
ATOM      9  O   UNL     1       4.679   5.421  19.814  0.00  0.00    +0.000 OA
ATOM     10  O   UNL     1       2.483   5.073  21.014  0.00  0.00    +0.000 OA
BRANCH   8  11
ATOM     11  N   UNL     1       2.823   4.177  18.691  0.00  0.00    +0.000 NA
ATOM     12  C   UNL     1       1.448   3.887  18.252  0.00  0.00    +0.000 C 
ATOM     13  C   UNL     1       1.125   2.412  18.527  0.00  0.00    +0.000 C 
ATOM     14  O   UNL     1       2.130   1.507  18.038  0.00  0.00    +0.000 OA
ATOM     15  C   UNL     1       3.472   1.850  18.430  0.00  0.00    +0.000 C 
ATOM     16  C   UNL     1       3.813   3.289  18.058  0.00  0.00    +0.000 C 
ENDBRANCH   8  11
ENDBRANCH   7   8
BRANCH   5  17
ATOM     17  N   UNL     1       0.785   9.931  20.400  0.00  0.00    +0.000 N 
ATOM     18  H   UNL     1       0.392   9.573  21.270  0.00  0.00    +0.000 HD
BRANCH  17  19
ATOM     19  S   UNL     1      -0.245  11.090  19.691  0.00  0.00    +0.000 S 
ATOM     20  O   UNL     1       0.583  12.251  19.433  0.00  0.00    +0.000 OA
ATOM     21  O   UNL     1      -1.003  10.459  18.631  0.00  0.00    +0.000 OA
BRANCH  19  22
ATOM     22  C   UNL     1      -1.389  11.545  20.991  0.00  0.00    +0.000 A 
ATOM     23  C   UNL     1      -1.112  11.166  22.306  0.00  0.00    +0.000 A 
ATOM     24  C   UNL     1      -1.936  11.605  23.347  0.00  0.00    +0.000 A 
ATOM     25  C   UNL     1      -3.033  12.441  23.086  0.00  0.00    +0.000 A 
ATOM     26  C   UNL     1      -3.849  12.915  24.129  0.00  0.00    +0.000 A 
ATOM     27  C   UNL     1      -4.935  13.751  23.865  0.00  0.00    +0.000 A 
ATOM     28  C   UNL     1      -5.216  14.117  22.556  0.00  0.00    +0.000 A 
ATOM     29  C   UNL     1      -4.412  13.664  21.509  0.00  0.00    +0.000 A 
ATOM     30  C   UNL     1      -3.316  12.823  21.755  0.00  0.00    +0.000 A 
ATOM     31  C   UNL     1      -2.481  12.374  20.713  0.00  0.00    +0.000 A 
ENDBRANCH  19  22
ENDBRANCH  17  19
ENDBRANCH   5  17
TORSDOF 5
ENDMDL
MODEL 7
REMARK VINA RESULT:      -7.8      0.958      1.954
REMARK  Name = 
REMARK  6 active torsions:
REMARK  status: ('A' for Active; 'I' for Inactive)
REMARK    1  A    between atoms: C_1  and  C_2
REMARK    2  A    between atoms: C_5  and  N_6
REMARK    3  A    between atoms: N_6  and  S_7
REMARK    4  A    between atoms: S_7  and  C_10
REMARK    5  A    between atoms: C_21  and  S_22
REMARK    6  A    between atoms: S_22  and  N_25
REMARK                            x       y       z     vdW  Elec       q    Type
REMARK                         _______ _______ _______ _____ _____    ______ ____
ROOT
ATOM      1  C   UNL     1       2.010   3.077  19.818  0.00  0.00    +0.000 C 
ATOM      2  C   UNL     1       2.255   4.554  19.972  0.00  0.00    +0.000 A 
ATOM      3  C   UNL     1       1.424   5.261  20.861  0.00  0.00    +0.000 A 
ATOM      4  C   UNL     1       1.393   6.649  20.851  0.00  0.00    +0.000 A 
ATOM      5  C   UNL     1       2.166   7.333  19.922  0.00  0.00    +0.000 A 
ATOM      6  C   UNL     1       3.077   6.653  19.104  0.00  0.00    +0.000 A 
ATOM      7  C   UNL     1       3.156   5.263  19.145  0.00  0.00    +0.000 A 
ENDROOT
BRANCH   7   8
ATOM      8  S   UNL     1       4.351   4.338  18.174  0.00  0.00    +0.000 S 
ATOM      9  O   UNL     1       5.310   3.828  19.134  0.00  0.00    +0.000 OA
ATOM     10  O   UNL     1       3.568   3.446  17.344  0.00  0.00    +0.000 OA
BRANCH   8  11
ATOM     11  N   UNL     1       5.188   5.358  17.160  0.00  0.00    +0.000 NA
ATOM     12  C   UNL     1       5.342   5.152  15.710  0.00  0.00    +0.000 C 
ATOM     13  C   UNL     1       6.835   5.096  15.359  0.00  0.00    +0.000 C 
ATOM     14  O   UNL     1       7.593   6.189  15.908  0.00  0.00    +0.000 OA
ATOM     15  C   UNL     1       7.375   6.407  17.315  0.00  0.00    +0.000 C 
ATOM     16  C   UNL     1       5.891   6.562  17.633  0.00  0.00    +0.000 C 
ENDBRANCH   8  11
ENDBRANCH   7   8
BRANCH   5  17
ATOM     17  N   UNL     1       1.897   8.708  19.676  0.00  0.00    +0.000 N 
ATOM     18  H   UNL     1       1.379   9.224  20.386  0.00  0.00    +0.000 HD
BRANCH  17  19
ATOM     19  S   UNL     1       1.358   9.111  18.109  0.00  0.00    +0.000 S 
ATOM     20  O   UNL     1       2.369   9.988  17.555  0.00  0.00    +0.000 OA
ATOM     21  O   UNL     1       0.961   7.899  17.423  0.00  0.00    +0.000 OA
BRANCH  19  22
ATOM     22  C   UNL     1      -0.108  10.103  18.368  0.00  0.00    +0.000 A 
ATOM     23  C   UNL     1      -1.168  10.004  17.463  0.00  0.00    +0.000 A 
ATOM     24  C   UNL     1      -2.362  10.688  17.708  0.00  0.00    +0.000 A 
ATOM     25  C   UNL     1      -2.516  11.463  18.869  0.00  0.00    +0.000 A 
ATOM     26  C   UNL     1      -3.725  12.128  19.142  0.00  0.00    +0.000 A 
ATOM     27  C   UNL     1      -3.875  12.892  20.301  0.00  0.00    +0.000 A 
ATOM     28  C   UNL     1      -2.817  12.999  21.193  0.00  0.00    +0.000 A 
ATOM     29  C   UNL     1      -1.614  12.339  20.943  0.00  0.00    +0.000 A 
ATOM     30  C   UNL     1      -1.443  11.566  19.785  0.00  0.00    +0.000 A 
ATOM     31  C   UNL     1      -0.244  10.874  19.527  0.00  0.00    +0.000 A 
ENDBRANCH  19  22
ENDBRANCH  17  19
ENDBRANCH   5  17
TORSDOF 5
ENDMDL
MODEL 8
REMARK VINA RESULT:      -7.8      2.843      3.780
REMARK  Name = 
REMARK  6 active torsions:
REMARK  status: ('A' for Active; 'I' for Inactive)
REMARK    1  A    between atoms: C_1  and  C_2
REMARK    2  A    between atoms: C_5  and  N_6
REMARK    3  A    between atoms: N_6  and  S_7
REMARK    4  A    between atoms: S_7  and  C_10
REMARK    5  A    between atoms: C_21  and  S_22
REMARK    6  A    between atoms: S_22  and  N_25
REMARK                            x       y       z     vdW  Elec       q    Type
REMARK                         _______ _______ _______ _____ _____    ______ ____
ROOT
ATOM      1  C   UNL     1       1.418   3.714  20.167  0.00  0.00    +0.000 C 
ATOM      2  C   UNL     1       1.895   5.132  19.995  0.00  0.00    +0.000 A 
ATOM      3  C   UNL     1       1.280   6.123  20.783  0.00  0.00    +0.000 A 
ATOM      4  C   UNL     1       1.454   7.470  20.490  0.00  0.00    +0.000 A 
ATOM      5  C   UNL     1       2.212   7.825  19.382  0.00  0.00    +0.000 A 
ATOM      6  C   UNL     1       2.917   6.860  18.652  0.00  0.00    +0.000 A 
ATOM      7  C   UNL     1       2.794   5.510  18.972  0.00  0.00    +0.000 A 
ENDROOT
BRANCH   7   8
ATOM      8  S   UNL     1       3.724   4.230  18.121  0.00  0.00    +0.000 S 
ATOM      9  O   UNL     1       4.260   3.387  19.171  0.00  0.00    +0.000 OA
ATOM     10  O   UNL     1       2.826   3.703  17.115  0.00  0.00    +0.000 OA
BRANCH   8  11
ATOM     11  N   UNL     1       5.029   4.893  17.328  0.00  0.00    +0.000 NA
ATOM     12  C   UNL     1       5.174   4.952  15.864  0.00  0.00    +0.000 C 
ATOM     13  C   UNL     1       6.471   4.242  15.451  0.00  0.00    +0.000 C 
ATOM     14  O   UNL     1       7.621   4.671  16.201  0.00  0.00    +0.000 OA
ATOM     15  C   UNL     1       7.429   4.664  17.628  0.00  0.00    +0.000 C 
ATOM     16  C   UNL     1       6.192   5.460  18.030  0.00  0.00    +0.000 C 
ENDBRANCH   8  11
ENDBRANCH   7   8
BRANCH   5  17
ATOM     17  N   UNL     1       2.124   9.154  18.881  0.00  0.00    +0.000 N 
ATOM     18  H   UNL     1       2.838   9.819  19.174  0.00  0.00    +0.000 HD
BRANCH  17  19
ATOM     19  S   UNL     1       0.577   9.870  18.888  0.00  0.00    +0.000 S 
ATOM     20  O   UNL     1      -0.066   9.438  17.663  0.00  0.00    +0.000 OA
ATOM     21  O   UNL     1      -0.040   9.641  20.177  0.00  0.00    +0.000 OA
BRANCH  19  22
ATOM     22  C   UNL     1       0.882  11.625  18.726  0.00  0.00    +0.000 A 
ATOM     23  C   UNL     1      -0.126  12.528  19.071  0.00  0.00    +0.000 A 
ATOM     24  C   UNL     1       0.131  13.902  19.055  0.00  0.00    +0.000 A 
ATOM     25  C   UNL     1       1.403  14.387  18.712  0.00  0.00    +0.000 A 
ATOM     26  C   UNL     1       1.682  15.766  18.724  0.00  0.00    +0.000 A 
ATOM     27  C   UNL     1       2.950  16.242  18.388  0.00  0.00    +0.000 A 
ATOM     28  C   UNL     1       3.948  15.344  18.033  0.00  0.00    +0.000 A 
ATOM     29  C   UNL     1       3.692  13.973  18.024  0.00  0.00    +0.000 A 
ATOM     30  C   UNL     1       2.424  13.475  18.359  0.00  0.00    +0.000 A 
ATOM     31  C   UNL     1       2.154  12.093  18.377  0.00  0.00    +0.000 A 
ENDBRANCH  19  22
ENDBRANCH  17  19
ENDBRANCH   5  17
TORSDOF 5
ENDMDL
MODEL 9
REMARK VINA RESULT:      -7.8      2.661      4.584
REMARK  Name = 
REMARK  6 active torsions:
REMARK  status: ('A' for Active; 'I' for Inactive)
REMARK    1  A    between atoms: C_1  and  C_2
REMARK    2  A    between atoms: C_5  and  N_6
REMARK    3  A    between atoms: N_6  and  S_7
REMARK    4  A    between atoms: S_7  and  C_10
REMARK    5  A    between atoms: C_21  and  S_22
REMARK    6  A    between atoms: S_22  and  N_25
REMARK                            x       y       z     vdW  Elec       q    Type
REMARK                         _______ _______ _______ _____ _____    ______ ____
ROOT
ATOM      1  C   UNL     1       4.198   6.947  16.663  0.00  0.00    +0.000 C 
ATOM      2  C   UNL     1       3.250   7.097  17.823  0.00  0.00    +0.000 A 
ATOM      3  C   UNL     1       2.623   8.345  17.991  0.00  0.00    +0.000 A 
ATOM      4  C   UNL     1       1.968   8.656  19.176  0.00  0.00    +0.000 A 
ATOM      5  C   UNL     1       1.974   7.731  20.212  0.00  0.00    +0.000 A 
ATOM      6  C   UNL     1       2.500   6.446  20.025  0.00  0.00    +0.000 A 
ATOM      7  C   UNL     1       3.110   6.105  18.821  0.00  0.00    +0.000 A 
ENDROOT
BRANCH   7   8
ATOM      8  S   UNL     1       3.740   4.455  18.493  0.00  0.00    +0.000 S 
ATOM      9  O   UNL     1       3.454   4.208  17.094  0.00  0.00    +0.000 OA
ATOM     10  O   UNL     1       5.097   4.450  18.998  0.00  0.00    +0.000 OA
BRANCH   8  11
ATOM     11  N   UNL     1       2.880   3.324  19.363  0.00  0.00    +0.000 NA
ATOM     12  C   UNL     1       1.534   2.846  19.008  0.00  0.00    +0.000 C 
ATOM     13  C   UNL     1       0.576   3.104  20.179  0.00  0.00    +0.000 C 
ATOM     14  O   UNL     1       1.081   2.639  21.443  0.00  0.00    +0.000 OA
ATOM     15  C   UNL     1       2.423   3.069  21.736  0.00  0.00    +0.000 C 
ATOM     16  C   UNL     1       3.383   2.714  20.605  0.00  0.00    +0.000 C 
ENDBRANCH   8  11
ENDBRANCH   7   8
BRANCH   5  17
ATOM     17  N   UNL     1       1.610   8.153  21.520  0.00  0.00    +0.000 N 
ATOM     18  H   UNL     1       1.874   7.555  22.301  0.00  0.00    +0.000 HD
BRANCH  17  19
ATOM     19  S   UNL     1       0.027   8.755  21.714  0.00  0.00    +0.000 S 
ATOM     20  O   UNL     1      -0.847   7.780  21.094  0.00  0.00    +0.000 OA
ATOM     21  O   UNL     1      -0.157   9.156  23.092  0.00  0.00    +0.000 OA
BRANCH  19  22
ATOM     22  C   UNL     1      -0.033  10.228  20.699  0.00  0.00    +0.000 A 
ATOM     23  C   UNL     1      -0.985  10.318  19.682  0.00  0.00    +0.000 A 
ATOM     24  C   UNL     1      -1.118  11.502  18.951  0.00  0.00    +0.000 A 
ATOM     25  C   UNL     1      -0.313  12.615  19.242  0.00  0.00    +0.000 A 
ATOM     26  C   UNL     1      -0.460  13.822  18.536  0.00  0.00    +0.000 A 
ATOM     27  C   UNL     1       0.339  14.928  18.833  0.00  0.00    +0.000 A 
ATOM     28  C   UNL     1       1.294  14.833  19.836  0.00  0.00    +0.000 A 
ATOM     29  C   UNL     1       1.449  13.646  20.554  0.00  0.00    +0.000 A 
ATOM     30  C   UNL     1       0.655  12.525  20.269  0.00  0.00    +0.000 A 
ATOM     31  C   UNL     1       0.781  11.326  20.998  0.00  0.00    +0.000 A 
ENDBRANCH  19  22
ENDBRANCH  17  19
ENDBRANCH   5  17
TORSDOF 5
ENDMDL
