MODEL 1
REMARK VINA RESULT:      -8.9      0.000      0.000
REMARK  Name = 
REMARK  6 active torsions:
REMARK  status: ('A' for Active; 'I' for Inactive)
REMARK    1  A    between atoms: C_2  and  C_3
REMARK    2  A    between atoms: C_3  and  C_4
REMARK    3  A    between atoms: C_4  and  N_5
REMARK    4  A    between atoms: N_16  and  C_17
REMARK    5  A    between atoms: C_21  and  C_22
REMARK    6  A    between atoms: C_22  and  N_23
REMARK                            x       y       z     vdW  Elec       q    Type
REMARK                         _______ _______ _______ _____ _____    ______ ____
ROOT
ATOM      1  O   UNL     1       0.935   4.337  19.834  0.00  0.00    +0.000 OA
ATOM      2  C   UNL     1       2.052   4.545  20.299  0.00  0.00    +0.000 C 
ATOM      3  N   UNL     1       2.786   5.714  20.179  0.00  0.00    +0.000 N 
ATOM      4  H   UNL     1       3.746   5.698  20.506  0.00  0.00    +0.000 HD
ENDROOT
BRANCH   3   5
ATOM      5  C   UNL     1       2.385   6.905  19.521  0.00  0.00    +0.000 A 
ATOM      6  C   UNL     1       2.747   7.214  18.207  0.00  0.00    +0.000 A 
ATOM      7  C   UNL     1       2.404   8.443  17.639  0.00  0.00    +0.000 A 
ATOM      8  C   UNL     1       1.690   9.378  18.376  0.00  0.00    +0.000 A 
ATOM      9  C   UNL     1       1.279   9.082  19.682  0.00  0.00    +0.000 A 
ATOM     10  C   UNL     1       1.613   7.832  20.239  0.00  0.00    +0.000 A 
BRANCH   9  11
ATOM     11  C   UNL     1       0.565  10.135  20.493  0.00  0.00    +0.000 C 
BRANCH  11  12
ATOM     12  N   UNL     1       0.150  11.273  19.691  0.00  0.00    +0.000 N 
ATOM     13  C   UNL     1       0.743  12.568  19.772  0.00  0.00    +0.000 C 
ATOM     14  C   UNL     1       0.135  13.251  18.572  0.00  0.00    +0.000 C 
ATOM     15  O   UNL     1      -1.085  12.544  18.326  0.00  0.00    +0.000 OA
ATOM     16  C   UNL     1      -0.986  11.312  18.931  0.00  0.00    +0.000 C 
ATOM     17  O   UNL     1      -1.799  10.417  18.784  0.00  0.00    +0.000 OA
ENDBRANCH  11  12
ENDBRANCH   9  11
ENDBRANCH   3   5
BRANCH   2  18
ATOM     18  C   UNL     1       2.737   3.465  21.113  0.00  0.00    +0.000 C 
BRANCH  18  19
ATOM     19  C   UNL     1       3.478   2.510  20.183  0.00  0.00    +0.000 C 
BRANCH  19  20
ATOM     20  N   UNL     1       4.356   3.218  19.256  0.00  0.00    +0.000 N 
ATOM     21  N   UNL     1       5.444   3.830  19.813  0.00  0.00    +0.000 NA
ATOM     22  N   UNL     1       6.272   4.457  19.116  0.00  0.00    +0.000 NA
ATOM     23  C   UNL     1       6.129   4.490  17.724  0.00  0.00    +0.000 A 
ATOM     24  C   UNL     1       7.126   5.099  16.951  0.00  0.00    +0.000 A 
ATOM     25  C   UNL     1       7.028   5.138  15.557  0.00  0.00    +0.000 A 
ATOM     26  C   UNL     1       5.923   4.576  14.918  0.00  0.00    +0.000 A 
ATOM     27  C   UNL     1       4.918   3.978  15.676  0.00  0.00    +0.000 A 
ATOM     28  C   UNL     1       5.039   3.940  17.071  0.00  0.00    +0.000 A 
ATOM     29  C   UNL     1       4.039   3.289  17.914  0.00  0.00    +0.000 A 
ATOM     30  O   UNL     1       3.011   2.835  17.419  0.00  0.00    +0.000 OA
ENDBRANCH  19  20
ENDBRANCH  18  19
ENDBRANCH   2  18
TORSDOF 6
ENDMDL
MODEL 2
REMARK VINA RESULT:      -8.8      1.033      1.312
REMARK  Name = 
REMARK  6 active torsions:
REMARK  status: ('A' for Active; 'I' for Inactive)
REMARK    1  A    between atoms: C_2  and  C_3
REMARK    2  A    between atoms: C_3  and  C_4
REMARK    3  A    between atoms: C_4  and  N_5
REMARK    4  A    between atoms: N_16  and  C_17
REMARK    5  A    between atoms: C_21  and  C_22
REMARK    6  A    between atoms: C_22  and  N_23
REMARK                            x       y       z     vdW  Elec       q    Type
REMARK                         _______ _______ _______ _____ _____    ______ ____
ROOT
ATOM      1  O   UNL     1       0.736   4.535  20.435  0.00  0.00    +0.000 OA
ATOM      2  C   UNL     1       1.955   4.645  20.531  0.00  0.00    +0.000 C 
ATOM      3  N   UNL     1       2.706   5.769  20.223  0.00  0.00    +0.000 N 
ATOM      4  H   UNL     1       3.715   5.671  20.230  0.00  0.00    +0.000 HD
ENDROOT
BRANCH   3   5
ATOM      5  C   UNL     1       2.215   7.016  19.762  0.00  0.00    +0.000 A 
ATOM      6  C   UNL     1       2.372   7.465  18.447  0.00  0.00    +0.000 A 
ATOM      7  C   UNL     1       1.953   8.742  18.070  0.00  0.00    +0.000 A 
ATOM      8  C   UNL     1       1.366   9.588  19.000  0.00  0.00    +0.000 A 
ATOM      9  C   UNL     1       1.159   9.154  20.316  0.00  0.00    +0.000 A 
ATOM     10  C   UNL     1       1.568   7.857  20.683  0.00  0.00    +0.000 A 
BRANCH   9  11
ATOM     11  C   UNL     1       0.585  10.110  21.332  0.00  0.00    +0.000 C 
BRANCH  11  12
ATOM     12  N   UNL     1       0.049  11.316  20.726  0.00  0.00    +0.000 N 
ATOM     13  C   UNL     1      -1.127  11.350  19.918  0.00  0.00    +0.000 C 
ATOM     14  C   UNL     1      -1.361  12.836  19.793  0.00  0.00    +0.000 C 
ATOM     15  O   UNL     1      -0.074  13.429  20.001  0.00  0.00    +0.000 OA
ATOM     16  C   UNL     1       0.709  12.511  20.663  0.00  0.00    +0.000 C 
ATOM     17  O   UNL     1       1.812  12.762  21.116  0.00  0.00    +0.000 OA
ENDBRANCH  11  12
ENDBRANCH   9  11
ENDBRANCH   3   5
BRANCH   2  18
ATOM     18  C   UNL     1       2.772   3.480  21.054  0.00  0.00    +0.000 C 
BRANCH  18  19
ATOM     19  C   UNL     1       3.204   2.591  19.893  0.00  0.00    +0.000 C 
BRANCH  19  20
ATOM     20  N   UNL     1       4.169   3.255  19.022  0.00  0.00    +0.000 N 
ATOM     21  N   UNL     1       5.296   3.731  19.631  0.00  0.00    +0.000 NA
ATOM     22  N   UNL     1       6.197   4.308  18.984  0.00  0.00    +0.000 NA
ATOM     23  C   UNL     1       6.093   4.424  17.593  0.00  0.00    +0.000 A 
ATOM     24  C   UNL     1       7.162   4.972  16.873  0.00  0.00    +0.000 A 
ATOM     25  C   UNL     1       7.103   5.089  15.481  0.00  0.00    +0.000 A 
ATOM     26  C   UNL     1       5.965   4.670  14.793  0.00  0.00    +0.000 A 
ATOM     27  C   UNL     1       4.889   4.135  15.498  0.00  0.00    +0.000 A 
ATOM     28  C   UNL     1       4.971   4.016  16.891  0.00  0.00    +0.000 A 
ATOM     29  C   UNL     1       3.894   3.424  17.679  0.00  0.00    +0.000 A 
ATOM     30  O   UNL     1       2.839   3.097  17.141  0.00  0.00    +0.000 OA
ENDBRANCH  19  20
ENDBRANCH  18  19
ENDBRANCH   2  18
TORSDOF 6
ENDMDL
MODEL 3
REMARK VINA RESULT:      -8.5      2.419      8.376
REMARK  Name = 
REMARK  6 active torsions:
REMARK  status: ('A' for Active; 'I' for Inactive)
REMARK    1  A    between atoms: C_2  and  C_3
REMARK    2  A    between atoms: C_3  and  C_4
REMARK    3  A    between atoms: C_4  and  N_5
REMARK    4  A    between atoms: N_16  and  C_17
REMARK    5  A    between atoms: C_21  and  C_22
REMARK    6  A    between atoms: C_22  and  N_23
REMARK                            x       y       z     vdW  Elec       q    Type
REMARK                         _______ _______ _______ _____ _____    ______ ____
ROOT
ATOM      1  O   UNL     1      -0.409   8.123  21.402  0.00  0.00    +0.000 OA
ATOM      2  C   UNL     1       0.652   8.710  21.213  0.00  0.00    +0.000 C 
ATOM      3  N   UNL     1       1.802   8.169  20.657  0.00  0.00    +0.000 N 
ATOM      4  H   UNL     1       2.642   8.737  20.680  0.00  0.00    +0.000 HD
ENDROOT
BRANCH   3   5
ATOM      5  C   UNL     1       1.971   6.846  20.177  0.00  0.00    +0.000 A 
ATOM      6  C   UNL     1       1.466   5.720  20.835  0.00  0.00    +0.000 A 
ATOM      7  C   UNL     1       1.743   4.433  20.369  0.00  0.00    +0.000 A 
ATOM      8  C   UNL     1       2.524   4.253  19.236  0.00  0.00    +0.000 A 
ATOM      9  C   UNL     1       3.012   5.362  18.532  0.00  0.00    +0.000 A 
ATOM     10  C   UNL     1       2.712   6.657  18.999  0.00  0.00    +0.000 A 
BRANCH   9  11
ATOM     11  C   UNL     1       3.917   5.148  17.344  0.00  0.00    +0.000 C 
BRANCH  11  12
ATOM     12  N   UNL     1       5.253   5.678  17.556  0.00  0.00    +0.000 N 
ATOM     13  C   UNL     1       5.830   6.725  16.776  0.00  0.00    +0.000 C 
ATOM     14  C   UNL     1       7.067   7.047  17.578  0.00  0.00    +0.000 C 
ATOM     15  O   UNL     1       7.351   5.851  18.313  0.00  0.00    +0.000 OA
ATOM     16  C   UNL     1       6.195   5.106  18.364  0.00  0.00    +0.000 C 
ATOM     17  O   UNL     1       6.065   4.102  19.041  0.00  0.00    +0.000 OA
ENDBRANCH  11  12
ENDBRANCH   9  11
ENDBRANCH   3   5
BRANCH   2  18
ATOM     18  C   UNL     1       0.774  10.176  21.579  0.00  0.00    +0.000 C 
BRANCH  18  19
ATOM     19  C   UNL     1       0.875  11.017  20.311  0.00  0.00    +0.000 C 
BRANCH  19  20
ATOM     20  N   UNL     1      -0.390  11.068  19.584  0.00  0.00    +0.000 N 
ATOM     21  N   UNL     1      -1.379  11.819  20.155  0.00  0.00    +0.000 NA
ATOM     22  N   UNL     1      -2.500  11.944  19.617  0.00  0.00    +0.000 NA
ATOM     23  C   UNL     1      -2.746  11.358  18.370  0.00  0.00    +0.000 A 
ATOM     24  C   UNL     1      -3.968  11.603  17.732  0.00  0.00    +0.000 A 
ATOM     25  C   UNL     1      -4.245  11.050  16.478  0.00  0.00    +0.000 A 
ATOM     26  C   UNL     1      -3.304  10.232  15.852  0.00  0.00    +0.000 A 
ATOM     27  C   UNL     1      -2.090   9.971  16.482  0.00  0.00    +0.000 A 
ATOM     28  C   UNL     1      -1.827  10.542  17.734  0.00  0.00    +0.000 A 
ATOM     29  C   UNL     1      -0.555  10.339  18.423  0.00  0.00    +0.000 A 
ATOM     30  O   UNL     1       0.289   9.577  17.957  0.00  0.00    +0.000 OA
ENDBRANCH  19  20
ENDBRANCH  18  19
ENDBRANCH   2  18
TORSDOF 6
ENDMDL
MODEL 4
REMARK VINA RESULT:      -8.4      2.373      8.566
REMARK  Name = 
REMARK  6 active torsions:
REMARK  status: ('A' for Active; 'I' for Inactive)
REMARK    1  A    between atoms: C_2  and  C_3
REMARK    2  A    between atoms: C_3  and  C_4
REMARK    3  A    between atoms: C_4  and  N_5
REMARK    4  A    between atoms: N_16  and  C_17
REMARK    5  A    between atoms: C_21  and  C_22
REMARK    6  A    between atoms: C_22  and  N_23
REMARK                            x       y       z     vdW  Elec       q    Type
REMARK                         _______ _______ _______ _____ _____    ______ ____
ROOT
ATOM      1  O   UNL     1      -0.106   7.874  21.400  0.00  0.00    +0.000 OA
ATOM      2  C   UNL     1       0.861   8.569  21.102  0.00  0.00    +0.000 C 
ATOM      3  N   UNL     1       1.992   8.152  20.417  0.00  0.00    +0.000 N 
ATOM      4  H   UNL     1       2.766   8.805  20.354  0.00  0.00    +0.000 HD
ENDROOT
BRANCH   3   5
ATOM      5  C   UNL     1       2.245   6.854  19.907  0.00  0.00    +0.000 A 
ATOM      6  C   UNL     1       1.864   5.682  20.566  0.00  0.00    +0.000 A 
ATOM      7  C   UNL     1       2.220   4.428  20.066  0.00  0.00    +0.000 A 
ATOM      8  C   UNL     1       2.959   4.328  18.895  0.00  0.00    +0.000 A 
ATOM      9  C   UNL     1       3.322   5.483  18.189  0.00  0.00    +0.000 A 
ATOM     10  C   UNL     1       2.941   6.742  18.692  0.00  0.00    +0.000 A 
BRANCH   9  11
ATOM     11  C   UNL     1       4.184   5.360  16.957  0.00  0.00    +0.000 C 
BRANCH  11  12
ATOM     12  N   UNL     1       5.589   5.169  17.273  0.00  0.00    +0.000 N 
ATOM     13  C   UNL     1       6.290   5.905  18.274  0.00  0.00    +0.000 C 
ATOM     14  C   UNL     1       7.584   5.135  18.360  0.00  0.00    +0.000 C 
ATOM     15  O   UNL     1       7.711   4.487  17.090  0.00  0.00    +0.000 OA
ATOM     16  C   UNL     1       6.461   4.436  16.518  0.00  0.00    +0.000 C 
ATOM     17  O   UNL     1       6.205   3.816  15.500  0.00  0.00    +0.000 OA
ENDBRANCH  11  12
ENDBRANCH   9  11
ENDBRANCH   3   5
BRANCH   2  18
ATOM     18  C   UNL     1       0.868  10.040  21.469  0.00  0.00    +0.000 C 
BRANCH  18  19
ATOM     19  C   UNL     1       0.959  10.887  20.204  0.00  0.00    +0.000 C 
BRANCH  19  20
ATOM     20  N   UNL     1      -0.320  10.972  19.507  0.00  0.00    +0.000 N 
ATOM     21  N   UNL     1      -1.278  11.740  20.107  0.00  0.00    +0.000 NA
ATOM     22  N   UNL     1      -2.409  11.895  19.597  0.00  0.00    +0.000 NA
ATOM     23  C   UNL     1      -2.697  11.325  18.352  0.00  0.00    +0.000 A 
ATOM     24  C   UNL     1      -3.928  11.602  17.744  0.00  0.00    +0.000 A 
ATOM     25  C   UNL     1      -4.247  11.065  16.493  0.00  0.00    +0.000 A 
ATOM     26  C   UNL     1      -3.340  10.232  15.840  0.00  0.00    +0.000 A 
ATOM     27  C   UNL     1      -2.117   9.938  16.439  0.00  0.00    +0.000 A 
ATOM     28  C   UNL     1      -1.812  10.494  17.688  0.00  0.00    +0.000 A 
ATOM     29  C   UNL     1      -0.529  10.256  18.345  0.00  0.00    +0.000 A 
ATOM     30  O   UNL     1       0.286   9.479  17.853  0.00  0.00    +0.000 OA
ENDBRANCH  19  20
ENDBRANCH  18  19
ENDBRANCH   2  18
TORSDOF 6
ENDMDL
MODEL 5
REMARK VINA RESULT:      -8.4      6.213      8.911
REMARK  Name = 
REMARK  6 active torsions:
REMARK  status: ('A' for Active; 'I' for Inactive)
REMARK    1  A    between atoms: C_2  and  C_3
REMARK    2  A    between atoms: C_3  and  C_4
REMARK    3  A    between atoms: C_4  and  N_5
REMARK    4  A    between atoms: N_16  and  C_17
REMARK    5  A    between atoms: C_21  and  C_22
REMARK    6  A    between atoms: C_22  and  N_23
REMARK                            x       y       z     vdW  Elec       q    Type
REMARK                         _______ _______ _______ _____ _____    ______ ____
ROOT
ATOM      1  O   UNL     1       8.386   7.007  18.668  0.00  0.00    +0.000 OA
ATOM      2  C   UNL     1       7.783   7.783  17.932  0.00  0.00    +0.000 C 
ATOM      3  N   UNL     1       6.714   7.468  17.106  0.00  0.00    +0.000 N 
ATOM      4  H   UNL     1       6.399   8.183  16.460  0.00  0.00    +0.000 HD
ENDROOT
BRANCH   3   5
ATOM      5  C   UNL     1       6.093   6.201  16.967  0.00  0.00    +0.000 A 
ATOM      6  C   UNL     1       5.715   5.663  15.734  0.00  0.00    +0.000 A 
ATOM      7  C   UNL     1       5.022   4.453  15.661  0.00  0.00    +0.000 A 
ATOM      8  C   UNL     1       4.700   3.761  16.821  0.00  0.00    +0.000 A 
ATOM      9  C   UNL     1       5.100   4.255  18.070  0.00  0.00    +0.000 A 
ATOM     10  C   UNL     1       5.816   5.467  18.132  0.00  0.00    +0.000 A 
BRANCH   9  11
ATOM     11  C   UNL     1       4.682   3.528  19.324  0.00  0.00    +0.000 C 
BRANCH  11  12
ATOM     12  N   UNL     1       3.271   3.696  19.625  0.00  0.00    +0.000 N 
ATOM     13  C   UNL     1       2.742   4.765  20.407  0.00  0.00    +0.000 C 
ATOM     14  C   UNL     1       1.260   4.604  20.170  0.00  0.00    +0.000 C 
ATOM     15  O   UNL     1       1.092   3.226  19.818  0.00  0.00    +0.000 OA
ATOM     16  C   UNL     1       2.311   2.750  19.393  0.00  0.00    +0.000 C 
ATOM     17  O   UNL     1       2.472   1.654  18.886  0.00  0.00    +0.000 OA
ENDBRANCH  11  12
ENDBRANCH   9  11
ENDBRANCH   3   5
BRANCH   2  18
ATOM     18  C   UNL     1       8.182   9.244  17.896  0.00  0.00    +0.000 C 
BRANCH  18  19
ATOM     19  C   UNL     1       8.988   9.589  19.144  0.00  0.00    +0.000 C 
BRANCH  19  20
ATOM     20  N   UNL     1       9.625  10.898  19.041  0.00  0.00    +0.000 N 
ATOM     21  N   UNL     1      10.117  11.229  17.809  0.00  0.00    +0.000 NA
ATOM     22  N   UNL     1      10.674  12.329  17.600  0.00  0.00    +0.000 NA
ATOM     23  C   UNL     1      10.751  13.279  18.624  0.00  0.00    +0.000 A 
ATOM     24  C   UNL     1      11.276  14.546  18.340  0.00  0.00    +0.000 A 
ATOM     25  C   UNL     1      11.354  15.528  19.332  0.00  0.00    +0.000 A 
ATOM     26  C   UNL     1      10.917  15.250  20.626  0.00  0.00    +0.000 A 
ATOM     27  C   UNL     1      10.404  13.989  20.925  0.00  0.00    +0.000 A 
ATOM     28  C   UNL     1      10.325  13.022  19.916  0.00  0.00    +0.000 A 
ATOM     29  C   UNL     1       9.757  11.698  20.159  0.00  0.00    +0.000 A 
ATOM     30  O   UNL     1       9.416  11.368  21.292  0.00  0.00    +0.000 OA
ENDBRANCH  19  20
ENDBRANCH  18  19
ENDBRANCH   2  18
TORSDOF 6
ENDMDL
MODEL 6
REMARK VINA RESULT:      -8.4      1.940      4.158
REMARK  Name = 
REMARK  6 active torsions:
REMARK  status: ('A' for Active; 'I' for Inactive)
REMARK    1  A    between atoms: C_2  and  C_3
REMARK    2  A    between atoms: C_3  and  C_4
REMARK    3  A    between atoms: C_4  and  N_5
REMARK    4  A    between atoms: N_16  and  C_17
REMARK    5  A    between atoms: C_21  and  C_22
REMARK    6  A    between atoms: C_22  and  N_23
REMARK                            x       y       z     vdW  Elec       q    Type
REMARK                         _______ _______ _______ _____ _____    ______ ____
ROOT
ATOM      1  O   UNL     1       5.552   6.861  17.991  0.00  0.00    +0.000 OA
ATOM      2  C   UNL     1       4.694   6.430  17.226  0.00  0.00    +0.000 C 
ATOM      3  N   UNL     1       3.329   6.660  17.311  0.00  0.00    +0.000 N 
ATOM      4  H   UNL     1       2.729   6.134  16.685  0.00  0.00    +0.000 HD
ENDROOT
BRANCH   3   5
ATOM      5  C   UNL     1       2.660   7.454  18.276  0.00  0.00    +0.000 A 
ATOM      6  C   UNL     1       2.418   7.030  19.585  0.00  0.00    +0.000 A 
ATOM      7  C   UNL     1       1.672   7.814  20.467  0.00  0.00    +0.000 A 
ATOM      8  C   UNL     1       1.161   9.037  20.055  0.00  0.00    +0.000 A 
ATOM      9  C   UNL     1       1.420   9.508  18.761  0.00  0.00    +0.000 A 
ATOM     10  C   UNL     1       2.190   8.718  17.884  0.00  0.00    +0.000 A 
BRANCH   9  11
ATOM     11  C   UNL     1       0.800  10.806  18.305  0.00  0.00    +0.000 C 
BRANCH  11  12
ATOM     12  N   UNL     1      -0.650  10.743  18.247  0.00  0.00    +0.000 N 
ATOM     13  C   UNL     1      -1.378   9.870  17.384  0.00  0.00    +0.000 C 
ATOM     14  C   UNL     1      -2.781  10.022  17.920  0.00  0.00    +0.000 C 
ATOM     15  O   UNL     1      -2.793  11.303  18.559  0.00  0.00    +0.000 OA
ATOM     16  C   UNL     1      -1.489  11.648  18.833  0.00  0.00    +0.000 C 
ATOM     17  O   UNL     1      -1.170  12.614  19.505  0.00  0.00    +0.000 OA
ENDBRANCH  11  12
ENDBRANCH   9  11
ENDBRANCH   3   5
BRANCH   2  18
ATOM     18  C   UNL     1       5.105   5.577  16.043  0.00  0.00    +0.000 C 
BRANCH  18  19
ATOM     19  C   UNL     1       5.037   4.101  16.422  0.00  0.00    +0.000 C 
BRANCH  19  20
ATOM     20  N   UNL     1       3.986   3.833  17.398  0.00  0.00    +0.000 N 
ATOM     21  N   UNL     1       2.708   3.818  16.913  0.00  0.00    +0.000 NA
ATOM     22  N   UNL     1       1.728   3.589  17.654  0.00  0.00    +0.000 NA
ATOM     23  C   UNL     1       1.930   3.278  19.003  0.00  0.00    +0.000 A 
ATOM     24  C   UNL     1       0.831   2.913  19.790  0.00  0.00    +0.000 A 
ATOM     25  C   UNL     1       0.994   2.579  21.139  0.00  0.00    +0.000 A 
ATOM     26  C   UNL     1       2.261   2.618  21.719  0.00  0.00    +0.000 A 
ATOM     27  C   UNL     1       3.362   2.991  20.949  0.00  0.00    +0.000 A 
ATOM     28  C   UNL     1       3.179   3.313  19.599  0.00  0.00    +0.000 A 
ATOM     29  C   UNL     1       4.300   3.669  18.733  0.00  0.00    +0.000 A 
ATOM     30  O   UNL     1       5.431   3.787  19.198  0.00  0.00    +0.000 OA
ENDBRANCH  19  20
ENDBRANCH  18  19
ENDBRANCH   2  18
TORSDOF 6
ENDMDL
MODEL 7
REMARK VINA RESULT:      -8.4      6.356      9.000
REMARK  Name = 
REMARK  6 active torsions:
REMARK  status: ('A' for Active; 'I' for Inactive)
REMARK    1  A    between atoms: C_2  and  C_3
REMARK    2  A    between atoms: C_3  and  C_4
REMARK    3  A    between atoms: C_4  and  N_5
REMARK    4  A    between atoms: N_16  and  C_17
REMARK    5  A    between atoms: C_21  and  C_22
REMARK    6  A    between atoms: C_22  and  N_23
REMARK                            x       y       z     vdW  Elec       q    Type
REMARK                         _______ _______ _______ _____ _____    ______ ____
ROOT
ATOM      1  O   UNL     1       8.440   7.147  18.702  0.00  0.00    +0.000 OA
ATOM      2  C   UNL     1       7.875   7.887  17.903  0.00  0.00    +0.000 C 
ATOM      3  N   UNL     1       6.874   7.525  17.014  0.00  0.00    +0.000 N 
ATOM      4  H   UNL     1       6.591   8.214  16.326  0.00  0.00    +0.000 HD
ENDROOT
BRANCH   3   5
ATOM      5  C   UNL     1       6.290   6.241  16.871  0.00  0.00    +0.000 A 
ATOM      6  C   UNL     1       6.231   5.557  15.654  0.00  0.00    +0.000 A 
ATOM      7  C   UNL     1       5.561   4.337  15.548  0.00  0.00    +0.000 A 
ATOM      8  C   UNL     1       4.945   3.780  16.661  0.00  0.00    +0.000 A 
ATOM      9  C   UNL     1       5.020   4.422  17.904  0.00  0.00    +0.000 A 
ATOM     10  C   UNL     1       5.715   5.643  18.004  0.00  0.00    +0.000 A 
BRANCH   9  11
ATOM     11  C   UNL     1       4.287   3.839  19.087  0.00  0.00    +0.000 C 
BRANCH  11  12
ATOM     12  N   UNL     1       2.930   3.437  18.760  0.00  0.00    +0.000 N 
ATOM     13  C   UNL     1       2.486   2.082  18.716  0.00  0.00    +0.000 C 
ATOM     14  C   UNL     1       0.992   2.259  18.605  0.00  0.00    +0.000 C 
ATOM     15  O   UNL     1       0.818   3.560  18.032  0.00  0.00    +0.000 OA
ATOM     16  C   UNL     1       1.977   4.271  18.245  0.00  0.00    +0.000 C 
ATOM     17  O   UNL     1       2.097   5.460  18.006  0.00  0.00    +0.000 OA
ENDBRANCH  11  12
ENDBRANCH   9  11
ENDBRANCH   3   5
BRANCH   2  18
ATOM     18  C   UNL     1       8.246   9.356  17.851  0.00  0.00    +0.000 C 
BRANCH  18  19
ATOM     19  C   UNL     1       8.983   9.747  19.127  0.00  0.00    +0.000 C 
BRANCH  19  20
ATOM     20  N   UNL     1       9.694  11.014  18.984  0.00  0.00    +0.000 N 
ATOM     21  N   UNL     1      10.230  11.264  17.752  0.00  0.00    +0.000 NA
ATOM     22  N   UNL     1      10.852  12.321  17.510  0.00  0.00    +0.000 NA
ATOM     23  C   UNL     1      10.957  13.310  18.494  0.00  0.00    +0.000 A 
ATOM     24  C   UNL     1      11.558  14.533  18.169  0.00  0.00    +0.000 A 
ATOM     25  C   UNL     1      11.667  15.553  19.120  0.00  0.00    +0.000 A 
ATOM     26  C   UNL     1      11.187  15.355  20.414  0.00  0.00    +0.000 A 
ATOM     27  C   UNL     1      10.598  14.139  20.753  0.00  0.00    +0.000 A 
ATOM     28  C   UNL     1      10.489  13.133  19.785  0.00  0.00    +0.000 A 
ATOM     29  C   UNL     1       9.843  11.854  20.070  0.00  0.00    +0.000 A 
ATOM     30  O   UNL     1       9.459  11.593  21.207  0.00  0.00    +0.000 OA
ENDBRANCH  19  20
ENDBRANCH  18  19
ENDBRANCH   2  18
TORSDOF 6
ENDMDL
MODEL 8
REMARK VINA RESULT:      -8.3      1.957      3.864
REMARK  Name = 
REMARK  6 active torsions:
REMARK  status: ('A' for Active; 'I' for Inactive)
REMARK    1  A    between atoms: C_2  and  C_3
REMARK    2  A    between atoms: C_3  and  C_4
REMARK    3  A    between atoms: C_4  and  N_5
REMARK    4  A    between atoms: N_16  and  C_17
REMARK    5  A    between atoms: C_21  and  C_22
REMARK    6  A    between atoms: C_22  and  N_23
REMARK                            x       y       z     vdW  Elec       q    Type
REMARK                         _______ _______ _______ _____ _____    ______ ____
ROOT
ATOM      1  O   UNL     1       5.505   6.764  18.018  0.00  0.00    +0.000 OA
ATOM      2  C   UNL     1       4.624   6.336  17.278  0.00  0.00    +0.000 C 
ATOM      3  N   UNL     1       3.259   6.520  17.433  0.00  0.00    +0.000 N 
ATOM      4  H   UNL     1       2.645   6.000  16.815  0.00  0.00    +0.000 HD
ENDROOT
BRANCH   3   5
ATOM      5  C   UNL     1       2.613   7.257  18.458  0.00  0.00    +0.000 A 
ATOM      6  C   UNL     1       2.439   6.774  19.758  0.00  0.00    +0.000 A 
ATOM      7  C   UNL     1       1.712   7.501  20.702  0.00  0.00    +0.000 A 
ATOM      8  C   UNL     1       1.154   8.726  20.362  0.00  0.00    +0.000 A 
ATOM      9  C   UNL     1       1.345   9.256  19.079  0.00  0.00    +0.000 A 
ATOM     10  C   UNL     1       2.095   8.523  18.139  0.00  0.00    +0.000 A 
BRANCH   9  11
ATOM     11  C   UNL     1       0.673  10.554  18.704  0.00  0.00    +0.000 C 
BRANCH  11  12
ATOM     12  N   UNL     1       1.511  11.712  18.964  0.00  0.00    +0.000 N 
ATOM     13  C   UNL     1       2.509  12.195  18.066  0.00  0.00    +0.000 C 
ATOM     14  C   UNL     1       2.858  13.523  18.692  0.00  0.00    +0.000 C 
ATOM     15  O   UNL     1       2.505  13.382  20.072  0.00  0.00    +0.000 OA
ATOM     16  C   UNL     1       1.607  12.344  20.172  0.00  0.00    +0.000 C 
ATOM     17  O   UNL     1       1.003  12.066  21.193  0.00  0.00    +0.000 OA
ENDBRANCH  11  12
ENDBRANCH   9  11
ENDBRANCH   3   5
BRANCH   2  18
ATOM     18  C   UNL     1       5.004   5.541  16.044  0.00  0.00    +0.000 C 
BRANCH  18  19
ATOM     19  C   UNL     1       5.245   4.084  16.424  0.00  0.00    +0.000 C 
BRANCH  19  20
ATOM     20  N   UNL     1       4.534   3.709  17.642  0.00  0.00    +0.000 N 
ATOM     21  N   UNL     1       5.302   3.561  18.763  0.00  0.00    +0.000 NA
ATOM     22  N   UNL     1       4.801   3.253  19.866  0.00  0.00    +0.000 NA
ATOM     23  C   UNL     1       3.414   3.111  19.987  0.00  0.00    +0.000 A 
ATOM     24  C   UNL     1       2.861   2.877  21.252  0.00  0.00    +0.000 A 
ATOM     25  C   UNL     1       1.478   2.747  21.417  0.00  0.00    +0.000 A 
ATOM     26  C   UNL     1       0.632   2.837  20.313  0.00  0.00    +0.000 A 
ATOM     27  C   UNL     1       1.170   3.057  19.047  0.00  0.00    +0.000 A 
ATOM     28  C   UNL     1       2.556   3.195  18.903  0.00  0.00    +0.000 A 
ATOM     29  C   UNL     1       3.174   3.469  17.608  0.00  0.00    +0.000 A 
ATOM     30  O   UNL     1       2.491   3.494  16.587  0.00  0.00    +0.000 OA
ENDBRANCH  19  20
ENDBRANCH  18  19
ENDBRANCH   2  18
TORSDOF 6
ENDMDL
MODEL 9
REMARK VINA RESULT:      -8.2      2.493      9.092
REMARK  Name = 
REMARK  6 active torsions:
REMARK  status: ('A' for Active; 'I' for Inactive)
REMARK    1  A    between atoms: C_2  and  C_3
REMARK    2  A    between atoms: C_3  and  C_4
REMARK    3  A    between atoms: C_4  and  N_5
REMARK    4  A    between atoms: N_16  and  C_17
REMARK    5  A    between atoms: C_21  and  C_22
REMARK    6  A    between atoms: C_22  and  N_23
REMARK                            x       y       z     vdW  Elec       q    Type
REMARK                         _______ _______ _______ _____ _____    ______ ____
ROOT
ATOM      1  O   UNL     1       2.085   7.999  19.558  0.00  0.00    +0.000 OA
ATOM      2  C   UNL     1       2.159   8.372  18.390  0.00  0.00    +0.000 C 
ATOM      3  N   UNL     1       2.965   7.826  17.403  0.00  0.00    +0.000 N 
ATOM      4  H   UNL     1       3.016   8.318  16.518  0.00  0.00    +0.000 HD
ENDROOT
BRANCH   3   5
ATOM      5  C   UNL     1       3.840   6.719  17.539  0.00  0.00    +0.000 A 
ATOM      6  C   UNL     1       5.221   6.804  17.344  0.00  0.00    +0.000 A 
ATOM      7  C   UNL     1       6.025   5.663  17.397  0.00  0.00    +0.000 A 
ATOM      8  C   UNL     1       5.460   4.421  17.651  0.00  0.00    +0.000 A 
ATOM      9  C   UNL     1       4.084   4.309  17.890  0.00  0.00    +0.000 A 
ATOM     10  C   UNL     1       3.284   5.468  17.853  0.00  0.00    +0.000 A 
BRANCH   9  11
ATOM     11  C   UNL     1       3.475   2.943  18.095  0.00  0.00    +0.000 C 
BRANCH  11  12
ATOM     12  N   UNL     1       2.705   2.853  19.323  0.00  0.00    +0.000 N 
ATOM     13  C   UNL     1       3.284   2.739  20.623  0.00  0.00    +0.000 C 
ATOM     14  C   UNL     1       2.079   2.954  21.506  0.00  0.00    +0.000 C 
ATOM     15  O   UNL     1       0.958   2.586  20.695  0.00  0.00    +0.000 OA
ATOM     16  C   UNL     1       1.356   2.643  19.378  0.00  0.00    +0.000 C 
ATOM     17  O   UNL     1       0.594   2.528  18.434  0.00  0.00    +0.000 OA
ENDBRANCH  11  12
ENDBRANCH   9  11
ENDBRANCH   3   5
BRANCH   2  18
ATOM     18  C   UNL     1       1.292   9.521  17.915  0.00  0.00    +0.000 C 
BRANCH  18  19
ATOM     19  C   UNL     1       0.344   9.948  19.030  0.00  0.00    +0.000 C 
BRANCH  19  20
ATOM     20  N   UNL     1      -0.953  10.375  18.515  0.00  0.00    +0.000 N 
ATOM     21  N   UNL     1      -1.284   9.914  17.272  0.00  0.00    +0.000 NA
ATOM     22  N   UNL     1      -2.374  10.206  16.733  0.00  0.00    +0.000 NA
ATOM     23  C   UNL     1      -3.315  10.970  17.432  0.00  0.00    +0.000 A 
ATOM     24  C   UNL     1      -4.574  11.190  16.858  0.00  0.00    +0.000 A 
ATOM     25  C   UNL     1      -5.548  11.935  17.532  0.00  0.00    +0.000 A 
ATOM     26  C   UNL     1      -5.268  12.478  18.785  0.00  0.00    +0.000 A 
ATOM     27  C   UNL     1      -4.015  12.277  19.361  0.00  0.00    +0.000 A 
ATOM     28  C   UNL     1      -3.057  11.520  18.675  0.00  0.00    +0.000 A 
ATOM     29  C   UNL     1      -1.742  11.240  19.247  0.00  0.00    +0.000 A 
ATOM     30  O   UNL     1      -1.410  11.745  20.317  0.00  0.00    +0.000 OA
ENDBRANCH  19  20
ENDBRANCH  18  19
ENDBRANCH   2  18
TORSDOF 6
ENDMDL
