MODEL 1
REMARK VINA RESULT:      -8.1      0.000      0.000
REMARK  Name = 
REMARK  5 active torsions:
REMARK  status: ('A' for Active; 'I' for Inactive)
REMARK    1  A    between atoms: C_1  and  C_2
REMARK    2  A    between atoms: C_5  and  C_6
REMARK    3  A    between atoms: C_6  and  N_7
REMARK    4  A    between atoms: N_11  and  C_12
REMARK    5  A    between atoms: N_20  and  C_21
REMARK                            x       y       z     vdW  Elec       q    Type
REMARK                         _______ _______ _______ _____ _____    ______ ____
ROOT
ATOM      1  N   UNL     1       4.769   4.346  18.172  0.00  0.00    +0.000 NA
ATOM      2  C   UNL     1       3.760   4.943  17.284  0.00  0.00    +0.000 C 
ATOM      3  C   UNL     1       2.349   4.353  17.385  0.00  0.00    +0.000 C 
ATOM      4  C   UNL     1       1.624   4.435  18.722  0.00  0.00    +0.000 C 
ATOM      5  N   UNL     1       2.275   5.328  19.663  0.00  0.00    +0.000 N 
ATOM      6  C   UNL     1       3.433   4.756  20.361  0.00  0.00    +0.000 C 
ATOM      7  C   UNL     1       4.735   4.907  19.546  0.00  0.00    +0.000 C 
ENDROOT
BRANCH   5   8
ATOM      8  C   UNL     1       1.826   6.593  19.986  0.00  0.00    +0.000 A 
ATOM      9  N   UNL     1       1.265   6.775  21.214  0.00  0.00    +0.000 NA
ATOM     10  C   UNL     1       0.750   7.967  21.554  0.00  0.00    +0.000 A 
ATOM     11  N   UNL     1       0.733   9.086  20.827  0.00  0.00    +0.000 NA
ATOM     12  C   UNL     1       1.326   8.924  19.628  0.00  0.00    +0.000 A 
ATOM     13  C   UNL     1       1.876   7.737  19.154  0.00  0.00    +0.000 A 
ATOM     14  C   UNL     1       2.368   8.086  17.883  0.00  0.00    +0.000 A 
ATOM     15  N   UNL     1       2.132   9.351  17.543  0.00  0.00    +0.000 NA
ATOM     16  N   UNL     1       1.495   9.883  18.627  0.00  0.00    +0.000 N 
BRANCH  16  17
ATOM     17  C   UNL     1       1.099  11.256  18.605  0.00  0.00    +0.000 A 
ATOM     18  C   UNL     1       2.087  12.255  18.534  0.00  0.00    +0.000 A 
ATOM     19  C   UNL     1       1.731  13.605  18.496  0.00  0.00    +0.000 A 
ATOM     20  C   UNL     1       0.389  13.975  18.539  0.00  0.00    +0.000 A 
ATOM     21  C   UNL     1      -0.597  12.995  18.614  0.00  0.00    +0.000 A 
ATOM     22  C   UNL     1      -0.248  11.640  18.647  0.00  0.00    +0.000 A 
ENDBRANCH  16  17
ENDBRANCH   5   8
BRANCH   1  23
ATOM     23  C   UNL     1       6.134   4.477  17.595  0.00  0.00    +0.000 C 
BRANCH  23  28
ATOM     24  C   UNL     1       8.856   9.592  18.408  0.00  0.00    +0.000 C 
ATOM     25  C   UNL     1       8.172   8.273  18.199  0.00  0.00    +0.000 A 
ATOM     26  C   UNL     1       8.458   7.175  19.017  0.00  0.00    +0.000 A 
ATOM     27  C   UNL     1       7.811   5.951  18.815  0.00  0.00    +0.000 A 
ATOM     28  C   UNL     1       6.857   5.800  17.798  0.00  0.00    +0.000 A 
ATOM     29  C   UNL     1       6.587   6.902  16.972  0.00  0.00    +0.000 A 
ATOM     30  C   UNL     1       7.234   8.125  17.172  0.00  0.00    +0.000 A 
ENDBRANCH  23  28
ENDBRANCH   1  23
TORSDOF 4
ENDMDL
MODEL 2
REMARK VINA RESULT:      -8.0      0.114      1.249
REMARK  Name = 
REMARK  5 active torsions:
REMARK  status: ('A' for Active; 'I' for Inactive)
REMARK    1  A    between atoms: C_1  and  C_2
REMARK    2  A    between atoms: C_5  and  C_6
REMARK    3  A    between atoms: C_6  and  N_7
REMARK    4  A    between atoms: N_11  and  C_12
REMARK    5  A    between atoms: N_20  and  C_21
REMARK                            x       y       z     vdW  Elec       q    Type
REMARK                         _______ _______ _______ _____ _____    ______ ____
ROOT
ATOM      1  N   UNL     1       4.825   4.432  18.220  0.00  0.00    +0.000 NA
ATOM      2  C   UNL     1       3.843   5.039  17.310  0.00  0.00    +0.000 C 
ATOM      3  C   UNL     1       2.431   4.446  17.359  0.00  0.00    +0.000 C 
ATOM      4  C   UNL     1       1.664   4.508  18.675  0.00  0.00    +0.000 C 
ATOM      5  N   UNL     1       2.284   5.389  19.648  0.00  0.00    +0.000 N 
ATOM      6  C   UNL     1       3.421   4.810  20.373  0.00  0.00    +0.000 C 
ATOM      7  C   UNL     1       4.747   4.973  19.600  0.00  0.00    +0.000 C 
ENDROOT
BRANCH   5   8
ATOM      8  C   UNL     1       1.823   6.649  19.974  0.00  0.00    +0.000 A 
ATOM      9  N   UNL     1       1.251   6.820  21.198  0.00  0.00    +0.000 NA
ATOM     10  C   UNL     1       0.724   8.006  21.541  0.00  0.00    +0.000 A 
ATOM     11  N   UNL     1       0.704   9.128  20.820  0.00  0.00    +0.000 NA
ATOM     12  C   UNL     1       1.309   8.978  19.624  0.00  0.00    +0.000 A 
ATOM     13  C   UNL     1       1.871   7.798  19.148  0.00  0.00    +0.000 A 
ATOM     14  C   UNL     1       2.371   8.158  17.884  0.00  0.00    +0.000 A 
ATOM     15  N   UNL     1       2.127   9.423  17.548  0.00  0.00    +0.000 NA
ATOM     16  N   UNL     1       1.478   9.943  18.630  0.00  0.00    +0.000 N 
BRANCH  16  17
ATOM     17  C   UNL     1       1.072  11.314  18.612  0.00  0.00    +0.000 A 
ATOM     18  C   UNL     1      -0.300  11.625  18.620  0.00  0.00    +0.000 A 
ATOM     19  C   UNL     1      -0.728  12.955  18.617  0.00  0.00    +0.000 A 
ATOM     20  C   UNL     1       0.206  13.988  18.597  0.00  0.00    +0.000 A 
ATOM     21  C   UNL     1       1.566  13.692  18.584  0.00  0.00    +0.000 A 
ATOM     22  C   UNL     1       2.002  12.362  18.592  0.00  0.00    +0.000 A 
ENDBRANCH  16  17
ENDBRANCH   5   8
BRANCH   1  23
ATOM     23  C   UNL     1       6.207   4.572  17.688  0.00  0.00    +0.000 C 
BRANCH  23  28
ATOM     24  C   UNL     1       8.924   9.707  18.382  0.00  0.00    +0.000 C 
ATOM     25  C   UNL     1       8.213   8.398  18.206  0.00  0.00    +0.000 A 
ATOM     26  C   UNL     1       7.239   8.235  17.216  0.00  0.00    +0.000 A 
ATOM     27  C   UNL     1       6.585   7.008  17.057  0.00  0.00    +0.000 A 
ATOM     28  C   UNL     1       6.898   5.914  17.878  0.00  0.00    +0.000 A 
ATOM     29  C   UNL     1       7.866   6.091  18.879  0.00  0.00    +0.000 A 
ATOM     30  C   UNL     1       8.518   7.317  19.039  0.00  0.00    +0.000 A 
ENDBRANCH  23  28
ENDBRANCH   1  23
TORSDOF 4
ENDMDL
MODEL 3
REMARK VINA RESULT:      -7.8      3.864      9.900
REMARK  Name = 
REMARK  5 active torsions:
REMARK  status: ('A' for Active; 'I' for Inactive)
REMARK    1  A    between atoms: C_1  and  C_2
REMARK    2  A    between atoms: C_5  and  C_6
REMARK    3  A    between atoms: C_6  and  N_7
REMARK    4  A    between atoms: N_11  and  C_12
REMARK    5  A    between atoms: N_20  and  C_21
REMARK                            x       y       z     vdW  Elec       q    Type
REMARK                         _______ _______ _______ _____ _____    ______ ____
ROOT
ATOM      1  N   UNL     1      -1.274  13.386  21.793  0.00  0.00    +0.000 NA
ATOM      2  C   UNL     1      -2.125  12.331  21.224  0.00  0.00    +0.000 C 
ATOM      3  C   UNL     1      -2.122  12.222  19.695  0.00  0.00    +0.000 C 
ATOM      4  C   UNL     1      -0.802  11.922  18.994  0.00  0.00    +0.000 C 
ATOM      5  N   UNL     1       0.239  11.496  19.910  0.00  0.00    +0.000 N 
ATOM      6  C   UNL     1       0.908  12.582  20.637  0.00  0.00    +0.000 C 
ATOM      7  C   UNL     1       0.147  12.977  21.920  0.00  0.00    +0.000 C 
ENDROOT
BRANCH   5   8
ATOM      8  C   UNL     1       0.674  10.193  20.057  0.00  0.00    +0.000 A 
ATOM      9  N   UNL     1       0.450   9.579  21.252  0.00  0.00    +0.000 NA
ATOM     10  C   UNL     1       0.911   8.338  21.473  0.00  0.00    +0.000 A 
ATOM     11  N   UNL     1       1.577   7.552  20.624  0.00  0.00    +0.000 NA
ATOM     12  C   UNL     1       1.763   8.138  19.425  0.00  0.00    +0.000 A 
ATOM     13  C   UNL     1       1.352   9.423  19.082  0.00  0.00    +0.000 A 
ATOM     14  C   UNL     1       1.766   9.555  17.745  0.00  0.00    +0.000 A 
ATOM     15  N   UNL     1       2.413   8.492  17.273  0.00  0.00    +0.000 NA
ATOM     16  N   UNL     1       2.405   7.602  18.307  0.00  0.00    +0.000 N 
BRANCH  16  17
ATOM     17  C   UNL     1       3.018   6.322  18.136  0.00  0.00    +0.000 A 
ATOM     18  C   UNL     1       2.205   5.182  18.002  0.00  0.00    +0.000 A 
ATOM     19  C   UNL     1       2.774   3.919  17.819  0.00  0.00    +0.000 A 
ATOM     20  C   UNL     1       4.159   3.778  17.777  0.00  0.00    +0.000 A 
ATOM     21  C   UNL     1       4.974   4.898  17.913  0.00  0.00    +0.000 A 
ATOM     22  C   UNL     1       4.410   6.166  18.092  0.00  0.00    +0.000 A 
ENDBRANCH  16  17
ENDBRANCH   5   8
BRANCH   1  23
ATOM     23  C   UNL     1      -1.798  13.846  23.107  0.00  0.00    +0.000 C 
BRANCH  23  28
ATOM     24  C   UNL     1      -7.527  13.272  24.149  0.00  0.00    +0.000 C 
ATOM     25  C   UNL     1      -6.061  13.419  23.866  0.00  0.00    +0.000 A 
ATOM     26  C   UNL     1      -5.587  14.424  23.017  0.00  0.00    +0.000 A 
ATOM     27  C   UNL     1      -4.218  14.553  22.764  0.00  0.00    +0.000 A 
ATOM     28  C   UNL     1      -3.290  13.688  23.361  0.00  0.00    +0.000 A 
ATOM     29  C   UNL     1      -3.774  12.672  24.200  0.00  0.00    +0.000 A 
ATOM     30  C   UNL     1      -5.143  12.541  24.452  0.00  0.00    +0.000 A 
ENDBRANCH  23  28
ENDBRANCH   1  23
TORSDOF 4
ENDMDL
MODEL 4
REMARK VINA RESULT:      -7.5      1.825      2.882
REMARK  Name = 
REMARK  5 active torsions:
REMARK  status: ('A' for Active; 'I' for Inactive)
REMARK    1  A    between atoms: C_1  and  C_2
REMARK    2  A    between atoms: C_5  and  C_6
REMARK    3  A    between atoms: C_6  and  N_7
REMARK    4  A    between atoms: N_11  and  C_12
REMARK    5  A    between atoms: N_20  and  C_21
REMARK                            x       y       z     vdW  Elec       q    Type
REMARK                         _______ _______ _______ _____ _____    ______ ____
ROOT
ATOM      1  N   UNL     1       4.959   4.500  18.065  0.00  0.00    +0.000 NA
ATOM      2  C   UNL     1       3.936   5.090  17.188  0.00  0.00    +0.000 C 
ATOM      3  C   UNL     1       2.537   4.473  17.284  0.00  0.00    +0.000 C 
ATOM      4  C   UNL     1       1.814   4.524  18.625  0.00  0.00    +0.000 C 
ATOM      5  N   UNL     1       2.452   5.415  19.577  0.00  0.00    +0.000 N 
ATOM      6  C   UNL     1       3.622   4.856  20.263  0.00  0.00    +0.000 C 
ATOM      7  C   UNL     1       4.918   5.042  19.446  0.00  0.00    +0.000 C 
ENDROOT
BRANCH   5   8
ATOM      8  C   UNL     1       1.981   6.668  19.918  0.00  0.00    +0.000 A 
ATOM      9  N   UNL     1       1.435   6.826  21.156  0.00  0.00    +0.000 NA
ATOM     10  C   UNL     1       0.900   8.003  21.515  0.00  0.00    +0.000 A 
ATOM     11  N   UNL     1       0.847   9.128  20.799  0.00  0.00    +0.000 NA
ATOM     12  C   UNL     1       1.425   8.990  19.589  0.00  0.00    +0.000 A 
ATOM     13  C   UNL     1       1.993   7.819  19.096  0.00  0.00    +0.000 A 
ATOM     14  C   UNL     1       2.457   8.191  17.821  0.00  0.00    +0.000 A 
ATOM     15  N   UNL     1       2.188   9.453  17.496  0.00  0.00    +0.000 NA
ATOM     16  N   UNL     1       1.557   9.961  18.595  0.00  0.00    +0.000 N 
BRANCH  16  17
ATOM     17  C   UNL     1       1.131  11.326  18.591  0.00  0.00    +0.000 A 
ATOM     18  C   UNL     1      -0.245  11.617  18.601  0.00  0.00    +0.000 A 
ATOM     19  C   UNL     1      -0.692  12.940  18.612  0.00  0.00    +0.000 A 
ATOM     20  C   UNL     1       0.227  13.987  18.604  0.00  0.00    +0.000 A 
ATOM     21  C   UNL     1       1.591  13.711  18.589  0.00  0.00    +0.000 A 
ATOM     22  C   UNL     1       2.046  12.388  18.583  0.00  0.00    +0.000 A 
ENDBRANCH  16  17
ENDBRANCH   5   8
BRANCH   1  23
ATOM     23  C   UNL     1       6.319   4.664  17.486  0.00  0.00    +0.000 C 
BRANCH  23  28
ATOM     24  C   UNL     1       6.946   3.981  11.709  0.00  0.00    +0.000 C 
ATOM     25  C   UNL     1       6.769   4.157  13.188  0.00  0.00    +0.000 A 
ATOM     26  C   UNL     1       5.887   3.348  13.911  0.00  0.00    +0.000 A 
ATOM     27  C   UNL     1       5.734   3.519  15.291  0.00  0.00    +0.000 A 
ATOM     28  C   UNL     1       6.466   4.496  15.981  0.00  0.00    +0.000 A 
ATOM     29  C   UNL     1       7.338   5.314  15.246  0.00  0.00    +0.000 A 
ATOM     30  C   UNL     1       7.490   5.145  13.867  0.00  0.00    +0.000 A 
ENDBRANCH  23  28
ENDBRANCH   1  23
TORSDOF 4
ENDMDL
MODEL 5
REMARK VINA RESULT:      -7.5      3.583      5.797
REMARK  Name = 
REMARK  5 active torsions:
REMARK  status: ('A' for Active; 'I' for Inactive)
REMARK    1  A    between atoms: C_1  and  C_2
REMARK    2  A    between atoms: C_5  and  C_6
REMARK    3  A    between atoms: C_6  and  N_7
REMARK    4  A    between atoms: N_11  and  C_12
REMARK    5  A    between atoms: N_20  and  C_21
REMARK                            x       y       z     vdW  Elec       q    Type
REMARK                         _______ _______ _______ _____ _____    ______ ____
ROOT
ATOM      1  N   UNL     1       2.246   7.800  19.446  0.00  0.00    +0.000 NA
ATOM      2  C   UNL     1       1.199   8.015  20.455  0.00  0.00    +0.000 C 
ATOM      3  C   UNL     1       1.177   9.401  21.110  0.00  0.00    +0.000 C 
ATOM      4  C   UNL     1       0.959  10.619  20.220  0.00  0.00    +0.000 C 
ATOM      5  N   UNL     1       0.515  10.268  18.883  0.00  0.00    +0.000 N 
ATOM      6  C   UNL     1       1.579   9.831  17.972  0.00  0.00    +0.000 C 
ATOM      7  C   UNL     1       1.876   8.322  18.107  0.00  0.00    +0.000 C 
ENDROOT
BRANCH   5   8
ATOM      8  C   UNL     1      -0.779  10.407  18.423  0.00  0.00    +0.000 A 
ATOM      9  N   UNL     1      -1.129   9.729  17.295  0.00  0.00    +0.000 NA
ATOM     10  C   UNL     1      -2.353   9.882  16.764  0.00  0.00    +0.000 A 
ATOM     11  N   UNL     1      -3.356  10.629  17.229  0.00  0.00    +0.000 NA
ATOM     12  C   UNL     1      -3.030  11.268  18.370  0.00  0.00    +0.000 A 
ATOM     13  C   UNL     1      -1.793  11.207  19.004  0.00  0.00    +0.000 A 
ATOM     14  C   UNL     1      -1.962  12.024  20.135  0.00  0.00    +0.000 A 
ATOM     15  N   UNL     1      -3.163  12.592  20.216  0.00  0.00    +0.000 NA
ATOM     16  N   UNL     1      -3.838  12.117  19.129  0.00  0.00    +0.000 N 
BRANCH  16  17
ATOM     17  C   UNL     1      -5.190  12.525  18.910  0.00  0.00    +0.000 A 
ATOM     18  C   UNL     1      -5.895  13.156  19.951  0.00  0.00    +0.000 A 
ATOM     19  C   UNL     1      -7.214  13.578  19.763  0.00  0.00    +0.000 A 
ATOM     20  C   UNL     1      -7.846  13.367  18.540  0.00  0.00    +0.000 A 
ATOM     21  C   UNL     1      -7.160  12.739  17.504  0.00  0.00    +0.000 A 
ATOM     22  C   UNL     1      -5.838  12.318  17.685  0.00  0.00    +0.000 A 
ENDBRANCH  16  17
ENDBRANCH   5   8
BRANCH   1  23
ATOM     23  C   UNL     1       2.614   6.361  19.355  0.00  0.00    +0.000 C 
BRANCH  23  28
ATOM     24  C   UNL     1       6.019   4.742  14.881  0.00  0.00    +0.000 C 
ATOM     25  C   UNL     1       5.159   5.163  16.036  0.00  0.00    +0.000 A 
ATOM     26  C   UNL     1       5.180   6.479  16.509  0.00  0.00    +0.000 A 
ATOM     27  C   UNL     1       4.370   6.861  17.584  0.00  0.00    +0.000 A 
ATOM     28  C   UNL     1       3.514   5.939  18.203  0.00  0.00    +0.000 A 
ATOM     29  C   UNL     1       3.510   4.617  17.733  0.00  0.00    +0.000 A 
ATOM     30  C   UNL     1       4.320   4.234  16.660  0.00  0.00    +0.000 A 
ENDBRANCH  23  28
ENDBRANCH   1  23
TORSDOF 4
ENDMDL
MODEL 6
REMARK VINA RESULT:      -7.4      1.727      2.644
REMARK  Name = 
REMARK  5 active torsions:
REMARK  status: ('A' for Active; 'I' for Inactive)
REMARK    1  A    between atoms: C_1  and  C_2
REMARK    2  A    between atoms: C_5  and  C_6
REMARK    3  A    between atoms: C_6  and  N_7
REMARK    4  A    between atoms: N_11  and  C_12
REMARK    5  A    between atoms: N_20  and  C_21
REMARK                            x       y       z     vdW  Elec       q    Type
REMARK                         _______ _______ _______ _____ _____    ______ ____
ROOT
ATOM      1  N   UNL     1       4.801   4.429  18.236  0.00  0.00    +0.000 NA
ATOM      2  C   UNL     1       3.865   5.093  17.317  0.00  0.00    +0.000 C 
ATOM      3  C   UNL     1       2.426   4.567  17.335  0.00  0.00    +0.000 C 
ATOM      4  C   UNL     1       1.640   4.651  18.638  0.00  0.00    +0.000 C 
ATOM      5  N   UNL     1       2.285   5.489  19.632  0.00  0.00    +0.000 N 
ATOM      6  C   UNL     1       3.380   4.848  20.369  0.00  0.00    +0.000 C 
ATOM      7  C   UNL     1       4.726   4.958  19.621  0.00  0.00    +0.000 C 
ENDROOT
BRANCH   5   8
ATOM      8  C   UNL     1       1.878   6.766  19.967  0.00  0.00    +0.000 A 
ATOM      9  N   UNL     1       1.369   6.965  21.214  0.00  0.00    +0.000 NA
ATOM     10  C   UNL     1       0.895   8.169  21.569  0.00  0.00    +0.000 A 
ATOM     11  N   UNL     1       0.876   9.286  20.838  0.00  0.00    +0.000 NA
ATOM     12  C   UNL     1       1.420   9.107  19.618  0.00  0.00    +0.000 A 
ATOM     13  C   UNL     1       1.924   7.905  19.128  0.00  0.00    +0.000 A 
ATOM     14  C   UNL     1       2.375   8.239  17.839  0.00  0.00    +0.000 A 
ATOM     15  N   UNL     1       2.155   9.508  17.502  0.00  0.00    +0.000 NA
ATOM     16  N   UNL     1       1.573  10.058  18.607  0.00  0.00    +0.000 N 
BRANCH  16  17
ATOM     17  C   UNL     1       1.209  11.440  18.594  0.00  0.00    +0.000 A 
ATOM     18  C   UNL     1       2.218  12.416  18.514  0.00  0.00    +0.000 A 
ATOM     19  C   UNL     1       1.894  13.774  18.485  0.00  0.00    +0.000 A 
ATOM     20  C   UNL     1       0.561  14.175  18.546  0.00  0.00    +0.000 A 
ATOM     21  C   UNL     1      -0.446  13.218  18.631  0.00  0.00    +0.000 A 
ATOM     22  C   UNL     1      -0.128  11.855  18.656  0.00  0.00    +0.000 A 
ENDBRANCH  16  17
ENDBRANCH   5   8
BRANCH   1  23
ATOM     23  C   UNL     1       6.197   4.510  17.728  0.00  0.00    +0.000 C 
BRANCH  23  28
ATOM     24  C   UNL     1       6.925   4.188  11.931  0.00  0.00    +0.000 C 
ATOM     25  C   UNL     1       6.754   4.269  13.420  0.00  0.00    +0.000 A 
ATOM     26  C   UNL     1       7.452   5.217  14.175  0.00  0.00    +0.000 A 
ATOM     27  C   UNL     1       7.282   5.286  15.561  0.00  0.00    +0.000 A 
ATOM     28  C   UNL     1       6.403   4.417  16.223  0.00  0.00    +0.000 A 
ATOM     29  C   UNL     1       5.718   3.459  15.461  0.00  0.00    +0.000 A 
ATOM     30  C   UNL     1       5.889   3.388  14.075  0.00  0.00    +0.000 A 
ENDBRANCH  23  28
ENDBRANCH   1  23
TORSDOF 4
ENDMDL
MODEL 7
REMARK VINA RESULT:      -7.4      3.803      9.941
REMARK  Name = 
REMARK  5 active torsions:
REMARK  status: ('A' for Active; 'I' for Inactive)
REMARK    1  A    between atoms: C_1  and  C_2
REMARK    2  A    between atoms: C_5  and  C_6
REMARK    3  A    between atoms: C_6  and  N_7
REMARK    4  A    between atoms: N_11  and  C_12
REMARK    5  A    between atoms: N_20  and  C_21
REMARK                            x       y       z     vdW  Elec       q    Type
REMARK                         _______ _______ _______ _____ _____    ______ ____
ROOT
ATOM      1  N   UNL     1      -2.719  12.749  20.022  0.00  0.00    +0.000 NA
ATOM      2  C   UNL     1      -1.971  12.373  18.813  0.00  0.00    +0.000 C 
ATOM      3  C   UNL     1      -0.588  13.013  18.656  0.00  0.00    +0.000 C 
ATOM      4  C   UNL     1       0.462  12.739  19.727  0.00  0.00    +0.000 C 
ATOM      5  N   UNL     1       0.085  11.662  20.624  0.00  0.00    +0.000 N 
ATOM      6  C   UNL     1      -0.855  12.039  21.686  0.00  0.00    +0.000 C 
ATOM      7  C   UNL     1      -2.323  11.961  21.216  0.00  0.00    +0.000 C 
ENDROOT
BRANCH   5   8
ATOM      8  C   UNL     1       0.613  10.386  20.586  0.00  0.00    +0.000 A 
ATOM      9  N   UNL     1       0.624   9.667  21.742  0.00  0.00    +0.000 NA
ATOM     10  C   UNL     1       1.187   8.450  21.779  0.00  0.00    +0.000 A 
ATOM     11  N   UNL     1       1.749   7.781  20.770  0.00  0.00    +0.000 NA
ATOM     12  C   UNL     1       1.702   8.469  19.612  0.00  0.00    +0.000 A 
ATOM     13  C   UNL     1       1.166   9.743  19.453  0.00  0.00    +0.000 A 
ATOM     14  C   UNL     1       1.347  10.007  18.083  0.00  0.00    +0.000 A 
ATOM     15  N   UNL     1       1.970   9.033  17.424  0.00  0.00    +0.000 NA
ATOM     16  N   UNL     1       2.183   8.067  18.365  0.00  0.00    +0.000 N 
BRANCH  16  17
ATOM     17  C   UNL     1       2.833   6.851  17.987  0.00  0.00    +0.000 A 
ATOM     18  C   UNL     1       4.148   6.901  17.489  0.00  0.00    +0.000 A 
ATOM     19  C   UNL     1       4.815   5.729  17.125  0.00  0.00    +0.000 A 
ATOM     20  C   UNL     1       4.177   4.497  17.244  0.00  0.00    +0.000 A 
ATOM     21  C   UNL     1       2.874   4.436  17.731  0.00  0.00    +0.000 A 
ATOM     22  C   UNL     1       2.202   5.606  18.102  0.00  0.00    +0.000 A 
ENDBRANCH  16  17
ENDBRANCH   5   8
BRANCH   1  23
ATOM     23  C   UNL     1      -4.186  12.646  19.798  0.00  0.00    +0.000 C 
BRANCH  23  28
ATOM     24  C   UNL     1      -7.734  14.113  24.213  0.00  0.00    +0.000 C 
ATOM     25  C   UNL     1      -6.822  13.722  23.088  0.00  0.00    +0.000 A 
ATOM     26  C   UNL     1      -7.039  12.550  22.357  0.00  0.00    +0.000 A 
ATOM     27  C   UNL     1      -6.184  12.198  21.307  0.00  0.00    +0.000 A 
ATOM     28  C   UNL     1      -5.100  13.015  20.957  0.00  0.00    +0.000 A 
ATOM     29  C   UNL     1      -4.879  14.182  21.705  0.00  0.00    +0.000 A 
ATOM     30  C   UNL     1      -5.732  14.534  22.755  0.00  0.00    +0.000 A 
ENDBRANCH  23  28
ENDBRANCH   1  23
TORSDOF 4
ENDMDL
MODEL 8
REMARK VINA RESULT:      -7.4      4.286      6.987
REMARK  Name = 
REMARK  5 active torsions:
REMARK  status: ('A' for Active; 'I' for Inactive)
REMARK    1  A    between atoms: C_1  and  C_2
REMARK    2  A    between atoms: C_5  and  C_6
REMARK    3  A    between atoms: C_6  and  N_7
REMARK    4  A    between atoms: N_11  and  C_12
REMARK    5  A    between atoms: N_20  and  C_21
REMARK                            x       y       z     vdW  Elec       q    Type
REMARK                         _______ _______ _______ _____ _____    ______ ____
ROOT
ATOM      1  N   UNL     1       1.141   8.331  19.758  0.00  0.00    +0.000 NA
ATOM      2  C   UNL     1       1.227   9.475  18.839  0.00  0.00    +0.000 C 
ATOM      3  C   UNL     1      -0.109  10.016  18.320  0.00  0.00    +0.000 C 
ATOM      4  C   UNL     1      -1.116  10.550  19.331  0.00  0.00    +0.000 C 
ATOM      5  N   UNL     1      -0.546  10.730  20.654  0.00  0.00    +0.000 N 
ATOM      6  C   UNL     1      -0.436   9.506  21.455  0.00  0.00    +0.000 C 
ATOM      7  C   UNL     1       0.868   8.735  21.160  0.00  0.00    +0.000 C 
ENDROOT
BRANCH   5   8
ATOM      8  C   UNL     1      -0.204  11.951  21.202  0.00  0.00    +0.000 A 
ATOM      9  N   UNL     1       0.993  12.495  20.847  0.00  0.00    +0.000 NA
ATOM     10  C   UNL     1       1.406  13.645  21.403  0.00  0.00    +0.000 A 
ATOM     11  N   UNL     1       0.757  14.401  22.290  0.00  0.00    +0.000 NA
ATOM     12  C   UNL     1      -0.448  13.891  22.612  0.00  0.00    +0.000 A 
ATOM     13  C   UNL     1      -0.976  12.700  22.122  0.00  0.00    +0.000 A 
ATOM     14  C   UNL     1      -2.235  12.619  22.743  0.00  0.00    +0.000 A 
ATOM     15  N   UNL     1      -2.490  13.622  23.580  0.00  0.00    +0.000 NA
ATOM     16  N   UNL     1      -1.388  14.424  23.495  0.00  0.00    +0.000 N 
BRANCH  16  17
ATOM     17  C   UNL     1      -1.332  15.623  24.271  0.00  0.00    +0.000 A 
ATOM     18  C   UNL     1      -1.191  15.533  25.668  0.00  0.00    +0.000 A 
ATOM     19  C   UNL     1      -1.119  16.687  26.452  0.00  0.00    +0.000 A 
ATOM     20  C   UNL     1      -1.197  17.942  25.854  0.00  0.00    +0.000 A 
ATOM     21  C   UNL     1      -1.342  18.044  24.473  0.00  0.00    +0.000 A 
ATOM     22  C   UNL     1      -1.410  16.893  23.682  0.00  0.00    +0.000 A 
ENDBRANCH  16  17
ENDBRANCH   5   8
BRANCH   1  23
ATOM     23  C   UNL     1       2.371   7.497  19.692  0.00  0.00    +0.000 C 
BRANCH  23  28
ATOM     24  C   UNL     1       1.617   1.760  18.824  0.00  0.00    +0.000 C 
ATOM     25  C   UNL     1       1.826   3.230  19.039  0.00  0.00    +0.000 A 
ATOM     26  C   UNL     1       2.161   4.074  17.976  0.00  0.00    +0.000 A 
ATOM     27  C   UNL     1       2.348   5.444  18.188  0.00  0.00    +0.000 A 
ATOM     28  C   UNL     1       2.194   6.003  19.466  0.00  0.00    +0.000 A 
ATOM     29  C   UNL     1       1.873   5.146  20.530  0.00  0.00    +0.000 A 
ATOM     30  C   UNL     1       1.688   3.777  20.319  0.00  0.00    +0.000 A 
ENDBRANCH  23  28
ENDBRANCH   1  23
TORSDOF 4
ENDMDL
MODEL 9
REMARK VINA RESULT:      -7.3      3.480      5.595
REMARK  Name = 
REMARK  5 active torsions:
REMARK  status: ('A' for Active; 'I' for Inactive)
REMARK    1  A    between atoms: C_1  and  C_2
REMARK    2  A    between atoms: C_5  and  C_6
REMARK    3  A    between atoms: C_6  and  N_7
REMARK    4  A    between atoms: N_11  and  C_12
REMARK    5  A    between atoms: N_20  and  C_21
REMARK                            x       y       z     vdW  Elec       q    Type
REMARK                         _______ _______ _______ _____ _____    ______ ____
ROOT
ATOM      1  N   UNL     1       2.203   7.625  19.599  0.00  0.00    +0.000 NA
ATOM      2  C   UNL     1       1.150   7.937  20.577  0.00  0.00    +0.000 C 
ATOM      3  C   UNL     1       1.166   9.361  21.144  0.00  0.00    +0.000 C 
ATOM      4  C   UNL     1       1.000  10.527  20.176  0.00  0.00    +0.000 C 
ATOM      5  N   UNL     1       0.562  10.108  18.858  0.00  0.00    +0.000 N 
ATOM      6  C   UNL     1       1.623   9.580  17.991  0.00  0.00    +0.000 C 
ATOM      7  C   UNL     1       1.868   8.074  18.224  0.00  0.00    +0.000 C 
ENDROOT
BRANCH   5   8
ATOM      8  C   UNL     1      -0.721  10.260  18.370  0.00  0.00    +0.000 A 
ATOM      9  N   UNL     1      -1.050   9.594  17.228  0.00  0.00    +0.000 NA
ATOM     10  C   UNL     1      -2.260   9.759  16.672  0.00  0.00    +0.000 A 
ATOM     11  N   UNL     1      -3.269  10.508  17.122  0.00  0.00    +0.000 NA
ATOM     12  C   UNL     1      -2.965  11.135  18.275  0.00  0.00    +0.000 A 
ATOM     13  C   UNL     1      -1.742  11.061  18.935  0.00  0.00    +0.000 A 
ATOM     14  C   UNL     1      -1.930  11.869  20.070  0.00  0.00    +0.000 A 
ATOM     15  N   UNL     1      -3.129  12.445  20.129  0.00  0.00    +0.000 NA
ATOM     16  N   UNL     1      -3.783  11.984  19.023  0.00  0.00    +0.000 N 
BRANCH  16  17
ATOM     17  C   UNL     1      -5.128  12.402  18.778  0.00  0.00    +0.000 A 
ATOM     18  C   UNL     1      -5.587  12.498  17.452  0.00  0.00    +0.000 A 
ATOM     19  C   UNL     1      -6.900  12.890  17.181  0.00  0.00    +0.000 A 
ATOM     20  C   UNL     1      -7.766  13.201  18.227  0.00  0.00    +0.000 A 
ATOM     21  C   UNL     1      -7.321  13.115  19.543  0.00  0.00    +0.000 A 
ATOM     22  C   UNL     1      -6.008  12.718  19.822  0.00  0.00    +0.000 A 
ENDBRANCH  16  17
ENDBRANCH   5   8
BRANCH   1  23
ATOM     23  C   UNL     1       2.524   6.172  19.603  0.00  0.00    +0.000 C 
BRANCH  23  28
ATOM     24  C   UNL     1       7.190   4.498  16.495  0.00  0.00    +0.000 C 
ATOM     25  C   UNL     1       5.997   4.916  17.303  0.00  0.00    +0.000 A 
ATOM     26  C   UNL     1       6.131   5.293  18.643  0.00  0.00    +0.000 A 
ATOM     27  C   UNL     1       5.012   5.686  19.386  0.00  0.00    +0.000 A 
ATOM     28  C   UNL     1       3.736   5.720  18.803  0.00  0.00    +0.000 A 
ATOM     29  C   UNL     1       3.609   5.325  17.462  0.00  0.00    +0.000 A 
ATOM     30  C   UNL     1       4.726   4.931  16.720  0.00  0.00    +0.000 A 
ENDBRANCH  23  28
ENDBRANCH   1  23
TORSDOF 4
ENDMDL
