MODEL 1
REMARK VINA RESULT:     -10.1      0.000      0.000
REMARK  Name = 
REMARK  7 active torsions:
REMARK  status: ('A' for Active; 'I' for Inactive)
REMARK    1  A    between atoms: C_1  and  N_2
REMARK    2  A    between atoms: C_6  and  C_7
REMARK    3  A    between atoms: C_7  and  C_8
REMARK    4  A    between atoms: C_8  and  C_9
REMARK    5  A    between atoms: C_13  and  N_14
REMARK    6  A    between atoms: C_21  and  C_22
REMARK    7  A    between atoms: C_22  and  C_23
REMARK                            x       y       z     vdW  Elec       q    Type
REMARK                         _______ _______ _______ _____ _____    ______ ____
ROOT
ATOM      1  C   UNL     1       4.811   5.258  18.174  0.00  0.00    +0.000 A 
ATOM      2  C   UNL     1       4.297   4.095  18.756  0.00  0.00    +0.000 A 
ATOM      3  N   UNL     1       3.171   4.023  19.493  0.00  0.00    +0.000 NA
ATOM      4  C   UNL     1       2.489   5.178  19.685  0.00  0.00    +0.000 A 
ATOM      5  C   UNL     1       2.854   6.398  19.130  0.00  0.00    +0.000 A 
ATOM      6  C   UNL     1       4.027   6.406  18.367  0.00  0.00    +0.000 A 
ENDROOT
BRANCH   5   7
ATOM      7  N   UNL     1       2.093   7.577  19.295  0.00  0.00    +0.000 N 
ATOM      8  C   UNL     1       1.382   7.874  20.528  0.00  0.00    +0.000 C 
ATOM      9  C   UNL     1       0.827   9.238  20.287  0.00  0.00    +0.000 A 
ATOM     10  C   UNL     1       1.167   9.655  19.002  0.00  0.00    +0.000 A 
ATOM     11  C   UNL     1       0.787  10.878  18.487  0.00  0.00    +0.000 A 
ATOM     12  C   UNL     1       0.034  11.712  19.310  0.00  0.00    +0.000 A 
ATOM     13  C   UNL     1      -0.306  11.314  20.618  0.00  0.00    +0.000 A 
ATOM     14  C   UNL     1       0.092  10.062  21.133  0.00  0.00    +0.000 A 
ATOM     15  C   UNL     1       1.983   8.614  18.369  0.00  0.00    +0.000 C 
ATOM     16  O   UNL     1       2.432   8.723  17.244  0.00  0.00    +0.000 OA
BRANCH  14  17
ATOM     17  C   UNL     1      -0.253   9.664  22.548  0.00  0.00    +0.000 C 
ATOM     18  C   UNL     1      -1.126  10.701  23.234  0.00  0.00    +0.000 C 
ATOM     19  F   UNL     1      -0.919   8.472  22.592  0.00  0.00    +0.000 F 
ATOM     20  F   UNL     1       0.858   9.480  23.316  0.00  0.00    +0.000 F 
ENDBRANCH  14  17
ENDBRANCH   5   7
BRANCH   1  21
ATOM     21  C   UNL     1       6.189   5.280  17.351  0.00  0.00    +0.000 C 
ATOM     22  C   UNL     1       6.816   6.686  17.022  0.00  0.00    +0.000 C 
ATOM     23  C   UNL     1       7.747   6.543  18.230  0.00  0.00    +0.000 C 
ATOM     24  C   UNL     1       7.479   5.035  18.228  0.00  0.00    +0.000 C 
BRANCH  21  25
ATOM     25  C   UNL     1       6.111   4.306  16.153  0.00  0.00    +0.000 C 
BRANCH  25  31
ATOM     26  C   UNL     1       5.462   3.485  13.133  0.00  0.00    +0.000 C 
ATOM     27  N   UNL     1       6.503   4.356  13.610  0.00  0.00    +0.000 N 
ATOM     28  C   UNL     1       7.459   4.922  12.819  0.00  0.00    +0.000 A 
ATOM     29  N   UNL     1       8.254   5.661  13.552  0.00  0.00    +0.000 NA
ATOM     30  N   UNL     1       7.826   5.568  14.852  0.00  0.00    +0.000 NA
ATOM     31  C   UNL     1       6.777   4.768  14.894  0.00  0.00    +0.000 A 
ENDBRANCH  25  31
ENDBRANCH  21  25
ENDBRANCH   1  21
TORSDOF 5
ENDMDL
MODEL 2
REMARK VINA RESULT:      -9.5      3.799      8.536
REMARK  Name = 
REMARK  7 active torsions:
REMARK  status: ('A' for Active; 'I' for Inactive)
REMARK    1  A    between atoms: C_1  and  N_2
REMARK    2  A    between atoms: C_6  and  C_7
REMARK    3  A    between atoms: C_7  and  C_8
REMARK    4  A    between atoms: C_8  and  C_9
REMARK    5  A    between atoms: C_13  and  N_14
REMARK    6  A    between atoms: C_21  and  C_22
REMARK    7  A    between atoms: C_22  and  C_23
REMARK                            x       y       z     vdW  Elec       q    Type
REMARK                         _______ _______ _______ _____ _____    ______ ____
ROOT
ATOM      1  C   UNL     1      -0.492  10.548  20.175  0.00  0.00    +0.000 A 
ATOM      2  C   UNL     1      -0.186  10.925  21.487  0.00  0.00    +0.000 A 
ATOM      3  N   UNL     1       0.698  10.301  22.291  0.00  0.00    +0.000 NA
ATOM      4  C   UNL     1       1.335   9.220  21.780  0.00  0.00    +0.000 A 
ATOM      5  C   UNL     1       1.167   8.760  20.481  0.00  0.00    +0.000 A 
ATOM      6  C   UNL     1       0.243   9.455  19.692  0.00  0.00    +0.000 A 
ENDROOT
BRANCH   5   7
ATOM      7  N   UNL     1       1.888   7.666  19.951  0.00  0.00    +0.000 N 
ATOM      8  C   UNL     1       1.924   6.371  20.610  0.00  0.00    +0.000 C 
ATOM      9  C   UNL     1       2.693   5.519  19.657  0.00  0.00    +0.000 A 
ATOM     10  C   UNL     1       3.092   6.290  18.567  0.00  0.00    +0.000 A 
ATOM     11  C   UNL     1       3.830   5.778  17.518  0.00  0.00    +0.000 A 
ATOM     12  C   UNL     1       4.173   4.430  17.576  0.00  0.00    +0.000 A 
ATOM     13  C   UNL     1       3.764   3.630  18.663  0.00  0.00    +0.000 A 
ATOM     14  C   UNL     1       3.009   4.166  19.727  0.00  0.00    +0.000 A 
ATOM     15  C   UNL     1       2.574   7.651  18.737  0.00  0.00    +0.000 C 
ATOM     16  O   UNL     1       2.761   8.533  17.922  0.00  0.00    +0.000 OA
BRANCH  14  17
ATOM     17  C   UNL     1       2.550   3.289  20.867  0.00  0.00    +0.000 C 
ATOM     18  C   UNL     1       1.182   2.682  20.603  0.00  0.00    +0.000 C 
ATOM     19  F   UNL     1       3.419   2.260  21.097  0.00  0.00    +0.000 F 
ATOM     20  F   UNL     1       2.484   3.970  22.046  0.00  0.00    +0.000 F 
ENDBRANCH  14  17
ENDBRANCH   5   7
BRANCH   1  21
ATOM     21  C   UNL     1      -1.597  11.307  19.291  0.00  0.00    +0.000 C 
ATOM     22  C   UNL     1      -2.296  12.566  19.928  0.00  0.00    +0.000 C 
ATOM     23  C   UNL     1      -1.324  13.476  19.169  0.00  0.00    +0.000 C 
ATOM     24  C   UNL     1      -1.007  12.312  18.226  0.00  0.00    +0.000 C 
BRANCH  21  25
ATOM     25  C   UNL     1      -2.562  10.284  18.649  0.00  0.00    +0.000 C 
BRANCH  25  31
ATOM     26  C   UNL     1      -4.905  11.929  17.228  0.00  0.00    +0.000 C 
ATOM     27  N   UNL     1      -3.874  11.141  16.608  0.00  0.00    +0.000 N 
ATOM     28  C   UNL     1      -3.785  10.902  15.268  0.00  0.00    +0.000 A 
ATOM     29  N   UNL     1      -2.737  10.156  15.024  0.00  0.00    +0.000 NA
ATOM     30  N   UNL     1      -2.132   9.883  16.225  0.00  0.00    +0.000 NA
ATOM     31  C   UNL     1      -2.825  10.464  17.187  0.00  0.00    +0.000 A 
ENDBRANCH  25  31
ENDBRANCH  21  25
ENDBRANCH   1  21
TORSDOF 5
ENDMDL
MODEL 3
REMARK VINA RESULT:      -9.4      1.395      2.751
REMARK  Name = 
REMARK  7 active torsions:
REMARK  status: ('A' for Active; 'I' for Inactive)
REMARK    1  A    between atoms: C_1  and  N_2
REMARK    2  A    between atoms: C_6  and  C_7
REMARK    3  A    between atoms: C_7  and  C_8
REMARK    4  A    between atoms: C_8  and  C_9
REMARK    5  A    between atoms: C_13  and  N_14
REMARK    6  A    between atoms: C_21  and  C_22
REMARK    7  A    between atoms: C_22  and  C_23
REMARK                            x       y       z     vdW  Elec       q    Type
REMARK                         _______ _______ _______ _____ _____    ______ ____
ROOT
ATOM      1  C   UNL     1       4.406   4.671  17.336  0.00  0.00    +0.000 A 
ATOM      2  C   UNL     1       3.798   3.561  17.931  0.00  0.00    +0.000 A 
ATOM      3  N   UNL     1       2.758   3.608  18.788  0.00  0.00    +0.000 NA
ATOM      4  C   UNL     1       2.272   4.834  19.096  0.00  0.00    +0.000 A 
ATOM      5  C   UNL     1       2.745   6.019  18.546  0.00  0.00    +0.000 A 
ATOM      6  C   UNL     1       3.818   5.904  17.656  0.00  0.00    +0.000 A 
ENDROOT
BRANCH   5   7
ATOM      7  N   UNL     1       2.181   7.282  18.837  0.00  0.00    +0.000 N 
ATOM      8  C   UNL     1       1.475   7.547  20.081  0.00  0.00    +0.000 C 
ATOM      9  C   UNL     1       1.162   9.003  19.996  0.00  0.00    +0.000 A 
ATOM     10  C   UNL     1       1.622   9.505  18.781  0.00  0.00    +0.000 A 
ATOM     11  C   UNL     1       1.471  10.827  18.412  0.00  0.00    +0.000 A 
ATOM     12  C   UNL     1       0.830  11.673  19.314  0.00  0.00    +0.000 A 
ATOM     13  C   UNL     1       0.372  11.187  20.554  0.00  0.00    +0.000 A 
ATOM     14  C   UNL     1       0.536   9.834  20.920  0.00  0.00    +0.000 A 
ATOM     15  C   UNL     1       2.284   8.424  18.044  0.00  0.00    +0.000 C 
ATOM     16  O   UNL     1       2.792   8.587  16.952  0.00  0.00    +0.000 OA
BRANCH  14  17
ATOM     17  C   UNL     1       0.070   9.336  22.267  0.00  0.00    +0.000 C 
ATOM     18  C   UNL     1      -0.728  10.389  23.018  0.00  0.00    +0.000 C 
ATOM     19  F   UNL     1      -0.720   8.226  22.152  0.00  0.00    +0.000 F 
ATOM     20  F   UNL     1       1.108   8.953  23.063  0.00  0.00    +0.000 F 
ENDBRANCH  14  17
ENDBRANCH   5   7
BRANCH   1  21
ATOM     21  C   UNL     1       5.677   4.544  16.363  0.00  0.00    +0.000 C 
ATOM     22  C   UNL     1       5.639   3.418  15.263  0.00  0.00    +0.000 C 
ATOM     23  C   UNL     1       5.180   4.455  14.232  0.00  0.00    +0.000 C 
ATOM     24  C   UNL     1       5.685   5.565  15.159  0.00  0.00    +0.000 C 
BRANCH  21  25
ATOM     25  C   UNL     1       6.986   4.607  17.183  0.00  0.00    +0.000 C 
BRANCH  25  31
ATOM     26  C   UNL     1       8.111   5.761  19.943  0.00  0.00    +0.000 C 
ATOM     27  N   UNL     1       7.937   6.458  18.697  0.00  0.00    +0.000 N 
ATOM     28  C   UNL     1       8.160   7.792  18.520  0.00  0.00    +0.000 A 
ATOM     29  N   UNL     1       7.914   8.117  17.275  0.00  0.00    +0.000 NA
ATOM     30  N   UNL     1       7.506   6.981  16.622  0.00  0.00    +0.000 NA
ATOM     31  C   UNL     1       7.504   5.979  17.482  0.00  0.00    +0.000 A 
ENDBRANCH  25  31
ENDBRANCH  21  25
ENDBRANCH   1  21
TORSDOF 5
ENDMDL
MODEL 4
REMARK VINA RESULT:      -9.4      3.884      8.542
REMARK  Name = 
REMARK  7 active torsions:
REMARK  status: ('A' for Active; 'I' for Inactive)
REMARK    1  A    between atoms: C_1  and  N_2
REMARK    2  A    between atoms: C_6  and  C_7
REMARK    3  A    between atoms: C_7  and  C_8
REMARK    4  A    between atoms: C_8  and  C_9
REMARK    5  A    between atoms: C_13  and  N_14
REMARK    6  A    between atoms: C_21  and  C_22
REMARK    7  A    between atoms: C_22  and  C_23
REMARK                            x       y       z     vdW  Elec       q    Type
REMARK                         _______ _______ _______ _____ _____    ______ ____
ROOT
ATOM      1  C   UNL     1      -0.272  10.730  20.378  0.00  0.00    +0.000 A 
ATOM      2  C   UNL     1       0.011  10.933  21.733  0.00  0.00    +0.000 A 
ATOM      3  N   UNL     1       0.776  10.129  22.499  0.00  0.00    +0.000 NA
ATOM      4  C   UNL     1       1.305   9.035  21.901  0.00  0.00    +0.000 A 
ATOM      5  C   UNL     1       1.148   8.732  20.555  0.00  0.00    +0.000 A 
ATOM      6  C   UNL     1       0.352   9.609  19.810  0.00  0.00    +0.000 A 
ENDROOT
BRANCH   5   7
ATOM      7  N   UNL     1       1.762   7.617  19.939  0.00  0.00    +0.000 N 
ATOM      8  C   UNL     1       1.547   6.258  20.411  0.00  0.00    +0.000 C 
ATOM      9  C   UNL     1       2.286   5.427  19.416  0.00  0.00    +0.000 A 
ATOM     10  C   UNL     1       2.899   6.259  18.483  0.00  0.00    +0.000 A 
ATOM     11  C   UNL     1       3.663   5.778  17.438  0.00  0.00    +0.000 A 
ATOM     12  C   UNL     1       3.807   4.397  17.335  0.00  0.00    +0.000 A 
ATOM     13  C   UNL     1       3.181   3.538  18.260  0.00  0.00    +0.000 A 
ATOM     14  C   UNL     1       2.400   4.043  19.321  0.00  0.00    +0.000 A 
ATOM     15  C   UNL     1       2.560   7.651  18.798  0.00  0.00    +0.000 C 
ATOM     16  O   UNL     1       2.953   8.591  18.133  0.00  0.00    +0.000 OA
BRANCH  14  17
ATOM     17  C   UNL     1       1.708   3.109  20.284  0.00  0.00    +0.000 C 
ATOM     18  C   UNL     1       2.416   3.052  21.628  0.00  0.00    +0.000 C 
ATOM     19  F   UNL     1       0.416   3.486  20.516  0.00  0.00    +0.000 F 
ATOM     20  F   UNL     1       1.628   1.837  19.801  0.00  0.00    +0.000 F 
ENDBRANCH  14  17
ENDBRANCH   5   7
BRANCH   1  21
ATOM     21  C   UNL     1      -1.236  11.702  19.540  0.00  0.00    +0.000 C 
ATOM     22  C   UNL     1      -1.490  13.145  20.116  0.00  0.00    +0.000 C 
ATOM     23  C   UNL     1      -0.413  13.698  19.176  0.00  0.00    +0.000 C 
ATOM     24  C   UNL     1      -0.538  12.430  18.326  0.00  0.00    +0.000 C 
BRANCH  21  25
ATOM     25  C   UNL     1      -2.511  10.944  19.104  0.00  0.00    +0.000 C 
BRANCH  25  31
ATOM     26  C   UNL     1      -5.013  12.025  17.435  0.00  0.00    +0.000 C 
ATOM     27  N   UNL     1      -3.867  11.306  16.947  0.00  0.00    +0.000 N 
ATOM     28  C   UNL     1      -3.708  10.889  15.658  0.00  0.00    +0.000 A 
ATOM     29  N   UNL     1      -2.562  10.268  15.535  0.00  0.00    +0.000 NA
ATOM     30  N   UNL     1      -1.961  10.259  16.769  0.00  0.00    +0.000 NA
ATOM     31  C   UNL     1      -2.754  10.871  17.628  0.00  0.00    +0.000 A 
ENDBRANCH  25  31
ENDBRANCH  21  25
ENDBRANCH   1  21
TORSDOF 5
ENDMDL
MODEL 5
REMARK VINA RESULT:      -9.3      2.590      4.286
REMARK  Name = 
REMARK  7 active torsions:
REMARK  status: ('A' for Active; 'I' for Inactive)
REMARK    1  A    between atoms: C_1  and  N_2
REMARK    2  A    between atoms: C_6  and  C_7
REMARK    3  A    between atoms: C_7  and  C_8
REMARK    4  A    between atoms: C_8  and  C_9
REMARK    5  A    between atoms: C_13  and  N_14
REMARK    6  A    between atoms: C_21  and  C_22
REMARK    7  A    between atoms: C_22  and  C_23
REMARK                            x       y       z     vdW  Elec       q    Type
REMARK                         _______ _______ _______ _____ _____    ______ ____
ROOT
ATOM      1  C   UNL     1       2.919   6.097  18.486  0.00  0.00    +0.000 A 
ATOM      2  C   UNL     1       3.527   6.731  17.397  0.00  0.00    +0.000 A 
ATOM      3  N   UNL     1       3.385   8.031  17.073  0.00  0.00    +0.000 NA
ATOM      4  C   UNL     1       2.582   8.777  17.868  0.00  0.00    +0.000 A 
ATOM      5  C   UNL     1       1.951   8.296  19.008  0.00  0.00    +0.000 A 
ATOM      6  C   UNL     1       2.145   6.940  19.298  0.00  0.00    +0.000 A 
ENDROOT
BRANCH   5   7
ATOM      7  N   UNL     1       1.166   9.109  19.856  0.00  0.00    +0.000 N 
ATOM      8  C   UNL     1       0.318  10.172  19.341  0.00  0.00    +0.000 C 
ATOM      9  C   UNL     1      -0.386  10.672  20.559  0.00  0.00    +0.000 A 
ATOM     10  C   UNL     1       0.064   9.970  21.674  0.00  0.00    +0.000 A 
ATOM     11  C   UNL     1      -0.401  10.214  22.951  0.00  0.00    +0.000 A 
ATOM     12  C   UNL     1      -1.364  11.210  23.100  0.00  0.00    +0.000 A 
ATOM     13  C   UNL     1      -1.843  11.919  21.981  0.00  0.00    +0.000 A 
ATOM     14  C   UNL     1      -1.361  11.657  20.682  0.00  0.00    +0.000 A 
ATOM     15  C   UNL     1       1.039   8.965  21.237  0.00  0.00    +0.000 C 
ATOM     16  O   UNL     1       1.585   8.199  22.007  0.00  0.00    +0.000 OA
BRANCH  14  17
ATOM     17  C   UNL     1      -1.909  12.403  19.489  0.00  0.00    +0.000 C 
ATOM     18  C   UNL     1      -2.669  11.486  18.545  0.00  0.00    +0.000 C 
ATOM     19  F   UNL     1      -2.759  13.405  19.863  0.00  0.00    +0.000 F 
ATOM     20  F   UNL     1      -0.927  13.019  18.771  0.00  0.00    +0.000 F 
ENDBRANCH  14  17
ENDBRANCH   5   7
BRANCH   1  21
ATOM     21  C   UNL     1       3.091   4.529  18.783  0.00  0.00    +0.000 C 
ATOM     22  C   UNL     1       2.833   4.037  20.256  0.00  0.00    +0.000 C 
ATOM     23  C   UNL     1       1.412   3.622  19.857  0.00  0.00    +0.000 C 
ATOM     24  C   UNL     1       1.843   3.646  18.388  0.00  0.00    +0.000 C 
BRANCH  21  25
ATOM     25  C   UNL     1       4.396   4.004  18.142  0.00  0.00    +0.000 C 
BRANCH  25  31
ATOM     26  C   UNL     1       6.837   5.013  16.342  0.00  0.00    +0.000 C 
ATOM     27  N   UNL     1       6.710   5.069  17.774  0.00  0.00    +0.000 N 
ATOM     28  C   UNL     1       7.687   5.506  18.619  0.00  0.00    +0.000 A 
ATOM     29  N   UNL     1       7.261   5.436  19.856  0.00  0.00    +0.000 NA
ATOM     30  N   UNL     1       5.987   4.928  19.828  0.00  0.00    +0.000 NA
ATOM     31  C   UNL     1       5.656   4.690  18.572  0.00  0.00    +0.000 A 
ENDBRANCH  25  31
ENDBRANCH  21  25
ENDBRANCH   1  21
TORSDOF 5
ENDMDL
MODEL 6
REMARK VINA RESULT:      -9.2      1.947      2.614
REMARK  Name = 
REMARK  7 active torsions:
REMARK  status: ('A' for Active; 'I' for Inactive)
REMARK    1  A    between atoms: C_1  and  N_2
REMARK    2  A    between atoms: C_6  and  C_7
REMARK    3  A    between atoms: C_7  and  C_8
REMARK    4  A    between atoms: C_8  and  C_9
REMARK    5  A    between atoms: C_13  and  N_14
REMARK    6  A    between atoms: C_21  and  C_22
REMARK    7  A    between atoms: C_22  and  C_23
REMARK                            x       y       z     vdW  Elec       q    Type
REMARK                         _______ _______ _______ _____ _____    ______ ____
ROOT
ATOM      1  C   UNL     1       4.653   4.856  17.259  0.00  0.00    +0.000 A 
ATOM      2  C   UNL     1       3.790   3.797  16.959  0.00  0.00    +0.000 A 
ATOM      3  N   UNL     1       2.515   3.686  17.382  0.00  0.00    +0.000 NA
ATOM      4  C   UNL     1       2.040   4.685  18.165  0.00  0.00    +0.000 A 
ATOM      5  C   UNL     1       2.765   5.819  18.504  0.00  0.00    +0.000 A 
ATOM      6  C   UNL     1       4.079   5.880  18.027  0.00  0.00    +0.000 A 
ENDROOT
BRANCH   5   7
ATOM      7  N   UNL     1       2.227   6.876  19.272  0.00  0.00    +0.000 N 
ATOM      8  C   UNL     1       2.088   8.224  18.743  0.00  0.00    +0.000 C 
ATOM      9  C   UNL     1       1.389   8.955  19.841  0.00  0.00    +0.000 A 
ATOM     10  C   UNL     1       1.190   8.093  20.916  0.00  0.00    +0.000 A 
ATOM     11  C   UNL     1       0.571   8.486  22.086  0.00  0.00    +0.000 A 
ATOM     12  C   UNL     1       0.136   9.807  22.166  0.00  0.00    +0.000 A 
ATOM     13  C   UNL     1       0.314  10.689  21.081  0.00  0.00    +0.000 A 
ATOM     14  C   UNL     1       0.945  10.273  19.891  0.00  0.00    +0.000 A 
ATOM     15  C   UNL     1       1.705   6.767  20.560  0.00  0.00    +0.000 C 
ATOM     16  O   UNL     1       1.647   5.814  21.313  0.00  0.00    +0.000 OA
BRANCH  14  17
ATOM     17  C   UNL     1       1.100  11.221  18.725  0.00  0.00    +0.000 C 
ATOM     18  C   UNL     1       1.632  12.576  19.162  0.00  0.00    +0.000 C 
ATOM     19  F   UNL     1       1.956  10.728  17.781  0.00  0.00    +0.000 F 
ATOM     20  F   UNL     1      -0.076  11.426  18.068  0.00  0.00    +0.000 F 
ENDBRANCH  14  17
ENDBRANCH   5   7
BRANCH   1  21
ATOM     21  C   UNL     1       6.180   4.897  16.764  0.00  0.00    +0.000 C 
ATOM     22  C   UNL     1       6.866   6.309  16.642  0.00  0.00    +0.000 C 
ATOM     23  C   UNL     1       7.506   6.105  18.020  0.00  0.00    +0.000 C 
ATOM     24  C   UNL     1       7.243   4.601  17.893  0.00  0.00    +0.000 C 
BRANCH  21  25
ATOM     25  C   UNL     1       6.368   3.976  15.537  0.00  0.00    +0.000 C 
BRANCH  25  31
ATOM     26  C   UNL     1       5.837   3.334  12.451  0.00  0.00    +0.000 C 
ATOM     27  N   UNL     1       6.763   4.281  13.012  0.00  0.00    +0.000 N 
ATOM     28  C   UNL     1       7.647   5.020  12.284  0.00  0.00    +0.000 A 
ATOM     29  N   UNL     1       8.345   5.786  13.085  0.00  0.00    +0.000 NA
ATOM     30  N   UNL     1       7.925   5.536  14.368  0.00  0.00    +0.000 NA
ATOM     31  C   UNL     1       6.979   4.615  14.329  0.00  0.00    +0.000 A 
ENDBRANCH  25  31
ENDBRANCH  21  25
ENDBRANCH   1  21
TORSDOF 5
ENDMDL
MODEL 7
REMARK VINA RESULT:      -9.2      3.795      8.790
REMARK  Name = 
REMARK  7 active torsions:
REMARK  status: ('A' for Active; 'I' for Inactive)
REMARK    1  A    between atoms: C_1  and  N_2
REMARK    2  A    between atoms: C_6  and  C_7
REMARK    3  A    between atoms: C_7  and  C_8
REMARK    4  A    between atoms: C_8  and  C_9
REMARK    5  A    between atoms: C_13  and  N_14
REMARK    6  A    between atoms: C_21  and  C_22
REMARK    7  A    between atoms: C_22  and  C_23
REMARK                            x       y       z     vdW  Elec       q    Type
REMARK                         _______ _______ _______ _____ _____    ______ ____
ROOT
ATOM      1  C   UNL     1       0.038  10.527  20.062  0.00  0.00    +0.000 A 
ATOM      2  C   UNL     1       0.267  10.734  21.427  0.00  0.00    +0.000 A 
ATOM      3  N   UNL     1       0.967   9.911  22.233  0.00  0.00    +0.000 NA
ATOM      4  C   UNL     1       1.483   8.793  21.669  0.00  0.00    +0.000 A 
ATOM      5  C   UNL     1       1.376   8.482  20.320  0.00  0.00    +0.000 A 
ATOM      6  C   UNL     1       0.646   9.379  19.533  0.00  0.00    +0.000 A 
ENDROOT
BRANCH   5   7
ATOM      7  N   UNL     1       1.976   7.339  19.743  0.00  0.00    +0.000 N 
ATOM      8  C   UNL     1       1.713   5.996  20.234  0.00  0.00    +0.000 C 
ATOM      9  C   UNL     1       2.455   5.127  19.274  0.00  0.00    +0.000 A 
ATOM     10  C   UNL     1       3.116   5.924  18.343  0.00  0.00    +0.000 A 
ATOM     11  C   UNL     1       3.894   5.404  17.329  0.00  0.00    +0.000 A 
ATOM     12  C   UNL     1       4.004   4.017  17.256  0.00  0.00    +0.000 A 
ATOM     13  C   UNL     1       3.330   3.193  18.179  0.00  0.00    +0.000 A 
ATOM     14  C   UNL     1       2.535   3.739  19.209  0.00  0.00    +0.000 A 
ATOM     15  C   UNL     1       2.805   7.330  18.623  0.00  0.00    +0.000 C 
ATOM     16  O   UNL     1       3.241   8.246  17.952  0.00  0.00    +0.000 OA
BRANCH  14  17
ATOM     17  C   UNL     1       1.793   2.842  20.171  0.00  0.00    +0.000 C 
ATOM     18  C   UNL     1       2.442   2.822  21.545  0.00  0.00    +0.000 C 
ATOM     19  F   UNL     1       0.496   3.238  20.335  0.00  0.00    +0.000 F 
ATOM     20  F   UNL     1       1.721   1.556  19.725  0.00  0.00    +0.000 F 
ENDBRANCH  14  17
ENDBRANCH   5   7
BRANCH   1  21
ATOM     21  C   UNL     1      -0.851  11.525  19.173  0.00  0.00    +0.000 C 
ATOM     22  C   UNL     1      -1.720  12.596  19.934  0.00  0.00    +0.000 C 
ATOM     23  C   UNL     1      -0.626  13.641  19.689  0.00  0.00    +0.000 C 
ATOM     24  C   UNL     1      -0.060  12.753  18.577  0.00  0.00    +0.000 C 
BRANCH  21  25
ATOM     25  C   UNL     1      -1.606  10.736  18.078  0.00  0.00    +0.000 C 
BRANCH  25  31
ATOM     26  C   UNL     1      -3.197  10.870  15.310  0.00  0.00    +0.000 C 
ATOM     27  N   UNL     1      -3.662  11.246  16.618  0.00  0.00    +0.000 N 
ATOM     28  C   UNL     1      -4.875  11.814  16.872  0.00  0.00    +0.000 A 
ATOM     29  N   UNL     1      -4.998  12.032  18.158  0.00  0.00    +0.000 NA
ATOM     30  N   UNL     1      -3.838  11.615  18.761  0.00  0.00    +0.000 NA
ATOM     31  C   UNL     1      -3.022  11.154  17.832  0.00  0.00    +0.000 A 
ENDBRANCH  25  31
ENDBRANCH  21  25
ENDBRANCH   1  21
TORSDOF 5
ENDMDL
MODEL 8
REMARK VINA RESULT:      -9.2      3.788      9.020
REMARK  Name = 
REMARK  7 active torsions:
REMARK  status: ('A' for Active; 'I' for Inactive)
REMARK    1  A    between atoms: C_1  and  N_2
REMARK    2  A    between atoms: C_6  and  C_7
REMARK    3  A    between atoms: C_7  and  C_8
REMARK    4  A    between atoms: C_8  and  C_9
REMARK    5  A    between atoms: C_13  and  N_14
REMARK    6  A    between atoms: C_21  and  C_22
REMARK    7  A    between atoms: C_22  and  C_23
REMARK                            x       y       z     vdW  Elec       q    Type
REMARK                         _______ _______ _______ _____ _____    ______ ____
ROOT
ATOM      1  C   UNL     1       0.719  10.235  20.151  0.00  0.00    +0.000 A 
ATOM      2  C   UNL     1       0.719  10.118  21.545  0.00  0.00    +0.000 A 
ATOM      3  N   UNL     1       1.141   9.040  22.236  0.00  0.00    +0.000 NA
ATOM      4  C   UNL     1       1.597   7.988  21.514  0.00  0.00    +0.000 A 
ATOM      5  C   UNL     1       1.698   7.981  20.130  0.00  0.00    +0.000 A 
ATOM      6  C   UNL     1       1.253   9.132  19.469  0.00  0.00    +0.000 A 
ENDROOT
BRANCH   5   7
ATOM      7  N   UNL     1       2.234   6.894  19.402  0.00  0.00    +0.000 N 
ATOM      8  C   UNL     1       3.194   7.081  18.326  0.00  0.00    +0.000 C 
ATOM      9  C   UNL     1       3.552   5.686  17.936  0.00  0.00    +0.000 A 
ATOM     10  C   UNL     1       2.818   4.788  18.707  0.00  0.00    +0.000 A 
ATOM     11  C   UNL     1       2.928   3.419  18.570  0.00  0.00    +0.000 A 
ATOM     12  C   UNL     1       3.822   2.942  17.614  0.00  0.00    +0.000 A 
ATOM     13  C   UNL     1       4.585   3.836  16.835  0.00  0.00    +0.000 A 
ATOM     14  C   UNL     1       4.464   5.233  16.988  0.00  0.00    +0.000 A 
ATOM     15  C   UNL     1       1.989   5.545  19.651  0.00  0.00    +0.000 C 
ATOM     16  O   UNL     1       1.254   5.009  20.458  0.00  0.00    +0.000 OA
BRANCH  14  17
ATOM     17  C   UNL     1       5.313   6.176  16.170  0.00  0.00    +0.000 C 
ATOM     18  C   UNL     1       6.171   5.435  15.158  0.00  0.00    +0.000 C 
ATOM     19  F   UNL     1       4.550   7.076  15.481  0.00  0.00    +0.000 F 
ATOM     20  F   UNL     1       6.140   6.930  16.947  0.00  0.00    +0.000 F 
ENDBRANCH  14  17
ENDBRANCH   5   7
BRANCH   1  21
ATOM     21  C   UNL     1       0.151  11.531  19.391  0.00  0.00    +0.000 C 
ATOM     22  C   UNL     1      -0.837  11.291  18.189  0.00  0.00    +0.000 C 
ATOM     23  C   UNL     1      -2.023  11.543  19.127  0.00  0.00    +0.000 C 
ATOM     24  C   UNL     1      -1.069  12.229  20.110  0.00  0.00    +0.000 C 
BRANCH  21  25
ATOM     25  C   UNL     1       1.298  12.526  19.101  0.00  0.00    +0.000 C 
BRANCH  25  31
ATOM     26  C   UNL     1       0.566  15.636  19.160  0.00  0.00    +0.000 C 
ATOM     27  N   UNL     1       1.288  14.877  20.145  0.00  0.00    +0.000 N 
ATOM     28  C   UNL     1       1.862  15.410  21.262  0.00  0.00    +0.000 A 
ATOM     29  N   UNL     1       2.440  14.461  21.955  0.00  0.00    +0.000 NA
ATOM     30  N   UNL     1       2.258  13.282  21.275  0.00  0.00    +0.000 NA
ATOM     31  C   UNL     1       1.575  13.533  20.174  0.00  0.00    +0.000 A 
ENDBRANCH  25  31
ENDBRANCH  21  25
ENDBRANCH   1  21
TORSDOF 5
ENDMDL
MODEL 9
REMARK VINA RESULT:      -9.2      0.684      1.237
REMARK  Name = 
REMARK  7 active torsions:
REMARK  status: ('A' for Active; 'I' for Inactive)
REMARK    1  A    between atoms: C_1  and  N_2
REMARK    2  A    between atoms: C_6  and  C_7
REMARK    3  A    between atoms: C_7  and  C_8
REMARK    4  A    between atoms: C_8  and  C_9
REMARK    5  A    between atoms: C_13  and  N_14
REMARK    6  A    between atoms: C_21  and  C_22
REMARK    7  A    between atoms: C_22  and  C_23
REMARK                            x       y       z     vdW  Elec       q    Type
REMARK                         _______ _______ _______ _____ _____    ______ ____
ROOT
ATOM      1  C   UNL     1       4.898   5.609  18.025  0.00  0.00    +0.000 A 
ATOM      2  C   UNL     1       4.427   4.399  18.544  0.00  0.00    +0.000 A 
ATOM      3  N   UNL     1       3.295   4.245  19.259  0.00  0.00    +0.000 NA
ATOM      4  C   UNL     1       2.561   5.360  19.493  0.00  0.00    +0.000 A 
ATOM      5  C   UNL     1       2.881   6.619  19.001  0.00  0.00    +0.000 A 
ATOM      6  C   UNL     1       4.063   6.712  18.258  0.00  0.00    +0.000 A 
ENDROOT
BRANCH   5   7
ATOM      7  N   UNL     1       2.067   7.756  19.207  0.00  0.00    +0.000 N 
ATOM      8  C   UNL     1       1.375   7.994  20.463  0.00  0.00    +0.000 C 
ATOM      9  C   UNL     1       0.747   9.333  20.263  0.00  0.00    +0.000 A 
ATOM     10  C   UNL     1       1.033   9.790  18.979  0.00  0.00    +0.000 A 
ATOM     11  C   UNL     1       0.581  11.003  18.497  0.00  0.00    +0.000 A 
ATOM     12  C   UNL     1      -0.190  11.783  19.354  0.00  0.00    +0.000 A 
ATOM     13  C   UNL     1      -0.477  11.345  20.663  0.00  0.00    +0.000 A 
ATOM     14  C   UNL     1      -0.005  10.105  21.143  0.00  0.00    +0.000 A 
ATOM     15  C   UNL     1       1.884   8.803  18.305  0.00  0.00    +0.000 C 
ATOM     16  O   UNL     1       2.297   8.954  17.172  0.00  0.00    +0.000 OA
BRANCH  14  17
ATOM     17  C   UNL     1      -0.293   9.664  22.558  0.00  0.00    +0.000 C 
ATOM     18  C   UNL     1      -1.152  10.672  23.303  0.00  0.00    +0.000 C 
ATOM     19  F   UNL     1      -0.944   8.463  22.593  0.00  0.00    +0.000 F 
ATOM     20  F   UNL     1       0.847   9.473  23.280  0.00  0.00    +0.000 F 
ENDBRANCH  14  17
ENDBRANCH   5   7
BRANCH   1  21
ATOM     21  C   UNL     1       6.286   5.727  17.227  0.00  0.00    +0.000 C 
ATOM     22  C   UNL     1       7.466   6.495  17.933  0.00  0.00    +0.000 C 
ATOM     23  C   UNL     1       8.051   5.154  18.390  0.00  0.00    +0.000 C 
ATOM     24  C   UNL     1       7.208   4.449  17.322  0.00  0.00    +0.000 C 
BRANCH  21  25
ATOM     25  C   UNL     1       6.026   6.144  15.761  0.00  0.00    +0.000 C 
BRANCH  25  31
ATOM     26  C   UNL     1       8.184   5.614  13.464  0.00  0.00    +0.000 C 
ATOM     27  N   UNL     1       6.986   4.868  13.743  0.00  0.00    +0.000 N 
ATOM     28  C   UNL     1       6.531   3.827  12.989  0.00  0.00    +0.000 A 
ATOM     29  N   UNL     1       5.423   3.360  13.507  0.00  0.00    +0.000 NA
ATOM     30  N   UNL     1       5.132   4.117  14.615  0.00  0.00    +0.000 NA
ATOM     31  C   UNL     1       6.066   5.039  14.751  0.00  0.00    +0.000 A 
ENDBRANCH  25  31
ENDBRANCH  21  25
ENDBRANCH   1  21
TORSDOF 5
ENDMDL
