MODEL 1
REMARK VINA RESULT:      -8.5      0.000      0.000
REMARK  Name = 
REMARK  6 active torsions:
REMARK  status: ('A' for Active; 'I' for Inactive)
REMARK    1  A    between atoms: C_1  and  N_2
REMARK    2  A    between atoms: C_6  and  C_7
REMARK    3  A    between atoms: C_7  and  C_8
REMARK    4  A    between atoms: C_8  and  C_9
REMARK    5  A    between atoms: C_13  and  N_14
REMARK    6  A    between atoms: C_20  and  C_21
REMARK                            x       y       z     vdW  Elec       q    Type
REMARK                         _______ _______ _______ _____ _____    ______ ____
ROOT
ATOM      1  C   UNL     1       1.799   5.852  20.566  0.00  0.00    +0.000 A 
ATOM      2  C   UNL     1       1.464   4.512  20.782  0.00  0.00    +0.000 A 
ATOM      3  C   UNL     1       2.310   3.498  20.336  0.00  0.00    +0.000 A 
ATOM      4  C   UNL     1       3.471   3.806  19.624  0.00  0.00    +0.000 A 
ATOM      5  C   UNL     1       3.803   5.132  19.332  0.00  0.00    +0.000 A 
ATOM      6  C   UNL     1       2.981   6.146  19.860  0.00  0.00    +0.000 A 
ENDROOT
BRANCH   5   7
ATOM      7  N   UNL     1       4.855   5.456  18.435  0.00  0.00    +0.000 N 
ATOM      8  C   UNL     1       4.646   5.818  17.083  0.00  0.00    +0.000 C 
ATOM      9  C   UNL     1       6.040   6.038  16.632  0.00  0.00    +0.000 C 
ATOM     10  C   UNL     1       6.956   5.361  17.359  0.00  0.00    +0.000 C 
ATOM     11  C   UNL     1       6.213   5.302  18.638  0.00  0.00    +0.000 C 
ATOM     12  O   UNL     1       6.820   5.197  19.696  0.00  0.00    +0.000 OA
ATOM     13  C   UNL     1       6.940   5.234  15.901  0.00  0.00    +0.000 C 
BRANCH  13  14
ATOM     14  C   UNL     1       6.324   4.302  14.930  0.00  0.00    +0.000 C 
ATOM     15  F   UNL     1       5.904   3.158  15.534  0.00  0.00    +0.000 F 
ATOM     16  F   UNL     1       5.209   4.869  14.405  0.00  0.00    +0.000 F 
ATOM     17  F   UNL     1       7.137   3.958  13.913  0.00  0.00    +0.000 F 
ENDBRANCH  13  14
ENDBRANCH   5   7
BRANCH   1  18
ATOM     18  C   UNL     1       0.850   6.968  20.946  0.00  0.00    +0.000 C 
BRANCH  18  19
ATOM     19  C   UNL     1       1.478   8.366  20.975  0.00  0.00    +0.000 C 
BRANCH  19  25
ATOM     20  C   UNL     1      -0.591  10.376  19.804  0.00  0.00    +0.000 C 
ATOM     21  N   UNL     1      -0.273  10.203  21.194  0.00  0.00    +0.000 N 
ATOM     22  C   UNL     1      -0.807  10.902  22.232  0.00  0.00    +0.000 A 
ATOM     23  N   UNL     1      -0.286  10.495  23.342  0.00  0.00    +0.000 NA
ATOM     24  N   UNL     1       0.625   9.506  23.057  0.00  0.00    +0.000 NA
ATOM     25  C   UNL     1       0.636   9.329  21.751  0.00  0.00    +0.000 A 
ENDBRANCH  19  25
ENDBRANCH  18  19
ENDBRANCH   1  18
TORSDOF 5
ENDMDL
MODEL 2
REMARK VINA RESULT:      -8.4      4.865      7.057
REMARK  Name = 
REMARK  6 active torsions:
REMARK  status: ('A' for Active; 'I' for Inactive)
REMARK    1  A    between atoms: C_1  and  N_2
REMARK    2  A    between atoms: C_6  and  C_7
REMARK    3  A    between atoms: C_7  and  C_8
REMARK    4  A    between atoms: C_8  and  C_9
REMARK    5  A    between atoms: C_13  and  N_14
REMARK    6  A    between atoms: C_20  and  C_21
REMARK                            x       y       z     vdW  Elec       q    Type
REMARK                         _______ _______ _______ _____ _____    ______ ____
ROOT
ATOM      1  C   UNL     1       7.476   7.684  17.950  0.00  0.00    +0.000 A 
ATOM      2  C   UNL     1       8.309   6.934  18.785  0.00  0.00    +0.000 A 
ATOM      3  C   UNL     1       7.925   5.659  19.196  0.00  0.00    +0.000 A 
ATOM      4  C   UNL     1       6.682   5.139  18.824  0.00  0.00    +0.000 A 
ATOM      5  C   UNL     1       5.796   5.889  18.045  0.00  0.00    +0.000 A 
ATOM      6  C   UNL     1       6.234   7.139  17.571  0.00  0.00    +0.000 A 
ENDROOT
BRANCH   5   7
ATOM      7  N   UNL     1       4.455   5.472  17.835  0.00  0.00    +0.000 N 
ATOM      8  C   UNL     1       3.357   5.963  18.581  0.00  0.00    +0.000 C 
ATOM      9  C   UNL     1       2.239   5.211  17.965  0.00  0.00    +0.000 C 
ATOM     10  C   UNL     1       2.622   4.049  17.389  0.00  0.00    +0.000 C 
ATOM     11  C   UNL     1       4.010   4.429  17.045  0.00  0.00    +0.000 C 
ATOM     12  O   UNL     1       4.585   3.877  16.116  0.00  0.00    +0.000 OA
ATOM     13  C   UNL     1       1.534   4.058  18.368  0.00  0.00    +0.000 C 
BRANCH  13  14
ATOM     14  C   UNL     1       1.427   3.849  19.830  0.00  0.00    +0.000 C 
ATOM     15  F   UNL     1       0.939   4.953  20.456  0.00  0.00    +0.000 F 
ATOM     16  F   UNL     1       0.533   2.861  20.082  0.00  0.00    +0.000 F 
ATOM     17  F   UNL     1       2.592   3.520  20.421  0.00  0.00    +0.000 F 
ENDBRANCH  13  14
ENDBRANCH   5   7
BRANCH   1  18
ATOM     18  C   UNL     1       7.822   9.109  17.575  0.00  0.00    +0.000 C 
BRANCH  18  19
ATOM     19  C   UNL     1       8.956   9.734  18.396  0.00  0.00    +0.000 C 
BRANCH  19  25
ATOM     20  C   UNL     1       9.890  11.625  20.686  0.00  0.00    +0.000 C 
ATOM     21  N   UNL     1       9.290  12.031  19.447  0.00  0.00    +0.000 N 
ATOM     22  C   UNL     1       9.010  13.309  19.071  0.00  0.00    +0.000 A 
ATOM     23  N   UNL     1       8.462  13.306  17.901  0.00  0.00    +0.000 NA
ATOM     24  N   UNL     1       8.361  12.004  17.471  0.00  0.00    +0.000 NA
ATOM     25  C   UNL     1       8.861  11.228  18.411  0.00  0.00    +0.000 A 
ENDBRANCH  19  25
ENDBRANCH  18  19
ENDBRANCH   1  18
TORSDOF 5
ENDMDL
MODEL 3
REMARK VINA RESULT:      -8.3      4.910      7.354
REMARK  Name = 
REMARK  6 active torsions:
REMARK  status: ('A' for Active; 'I' for Inactive)
REMARK    1  A    between atoms: C_1  and  N_2
REMARK    2  A    between atoms: C_6  and  C_7
REMARK    3  A    between atoms: C_7  and  C_8
REMARK    4  A    between atoms: C_8  and  C_9
REMARK    5  A    between atoms: C_13  and  N_14
REMARK    6  A    between atoms: C_20  and  C_21
REMARK                            x       y       z     vdW  Elec       q    Type
REMARK                         _______ _______ _______ _____ _____    ______ ____
ROOT
ATOM      1  C   UNL     1       7.653   7.693  17.962  0.00  0.00    +0.000 A 
ATOM      2  C   UNL     1       8.427   6.958  18.864  0.00  0.00    +0.000 A 
ATOM      3  C   UNL     1       7.983   5.721  19.325  0.00  0.00    +0.000 A 
ATOM      4  C   UNL     1       6.737   5.225  18.933  0.00  0.00    +0.000 A 
ATOM      5  C   UNL     1       5.906   5.963  18.084  0.00  0.00    +0.000 A 
ATOM      6  C   UNL     1       6.407   7.171  17.564  0.00  0.00    +0.000 A 
ENDROOT
BRANCH   5   7
ATOM      7  N   UNL     1       4.560   5.581  17.845  0.00  0.00    +0.000 N 
ATOM      8  C   UNL     1       3.461   6.089  18.578  0.00  0.00    +0.000 C 
ATOM      9  C   UNL     1       2.337   5.373  17.932  0.00  0.00    +0.000 C 
ATOM     10  C   UNL     1       2.701   4.210  17.348  0.00  0.00    +0.000 C 
ATOM     11  C   UNL     1       4.104   4.560  17.033  0.00  0.00    +0.000 C 
ATOM     12  O   UNL     1       4.682   4.006  16.107  0.00  0.00    +0.000 OA
ATOM     13  C   UNL     1       1.596   4.232  18.307  0.00  0.00    +0.000 C 
BRANCH  13  14
ATOM     14  C   UNL     1       1.459   4.007  19.764  0.00  0.00    +0.000 C 
ATOM     15  F   UNL     1       0.529   3.053  20.035  0.00  0.00    +0.000 F 
ATOM     16  F   UNL     1       2.628   3.529  20.260  0.00  0.00    +0.000 F 
ATOM     17  F   UNL     1       1.131   5.113  20.459  0.00  0.00    +0.000 F 
ENDBRANCH  13  14
ENDBRANCH   5   7
BRANCH   1  18
ATOM     18  C   UNL     1       8.063   9.083  17.527  0.00  0.00    +0.000 C 
BRANCH  18  19
ATOM     19  C   UNL     1       8.515  10.006  18.665  0.00  0.00    +0.000 C 
BRANCH  19  25
ATOM     20  C   UNL     1       7.748  12.708  17.323  0.00  0.00    +0.000 C 
ATOM     21  N   UNL     1       9.081  12.243  17.587  0.00  0.00    +0.000 N 
ATOM     22  C   UNL     1      10.235  12.895  17.277  0.00  0.00    +0.000 A 
ATOM     23  N   UNL     1      11.247  12.184  17.647  0.00  0.00    +0.000 NA
ATOM     24  N   UNL     1      10.778  11.022  18.213  0.00  0.00    +0.000 NA
ATOM     25  C   UNL     1       9.462  11.056  18.175  0.00  0.00    +0.000 A 
ENDBRANCH  19  25
ENDBRANCH  18  19
ENDBRANCH   1  18
TORSDOF 5
ENDMDL
MODEL 4
REMARK VINA RESULT:      -8.3      1.084      1.693
REMARK  Name = 
REMARK  6 active torsions:
REMARK  status: ('A' for Active; 'I' for Inactive)
REMARK    1  A    between atoms: C_1  and  N_2
REMARK    2  A    between atoms: C_6  and  C_7
REMARK    3  A    between atoms: C_7  and  C_8
REMARK    4  A    between atoms: C_8  and  C_9
REMARK    5  A    between atoms: C_13  and  N_14
REMARK    6  A    between atoms: C_20  and  C_21
REMARK                            x       y       z     vdW  Elec       q    Type
REMARK                         _______ _______ _______ _____ _____    ______ ____
ROOT
ATOM      1  C   UNL     1       1.740   5.874  20.552  0.00  0.00    +0.000 A 
ATOM      2  C   UNL     1       1.288   4.552  20.609  0.00  0.00    +0.000 A 
ATOM      3  C   UNL     1       2.044   3.527  20.045  0.00  0.00    +0.000 A 
ATOM      4  C   UNL     1       3.233   3.813  19.369  0.00  0.00    +0.000 A 
ATOM      5  C   UNL     1       3.682   5.131  19.235  0.00  0.00    +0.000 A 
ATOM      6  C   UNL     1       2.949   6.143  19.882  0.00  0.00    +0.000 A 
ENDROOT
BRANCH   5   7
ATOM      7  N   UNL     1       4.764   5.464  18.378  0.00  0.00    +0.000 N 
ATOM      8  C   UNL     1       4.601   5.854  17.027  0.00  0.00    +0.000 C 
ATOM      9  C   UNL     1       6.010   6.073  16.626  0.00  0.00    +0.000 C 
ATOM     10  C   UNL     1       6.898   5.375  17.369  0.00  0.00    +0.000 C 
ATOM     11  C   UNL     1       6.114   5.297  18.621  0.00  0.00    +0.000 C 
ATOM     12  O   UNL     1       6.686   5.168  19.696  0.00  0.00    +0.000 OA
ATOM     13  C   UNL     1       6.928   5.276  15.909  0.00  0.00    +0.000 C 
BRANCH  13  14
ATOM     14  C   UNL     1       6.337   4.368  14.900  0.00  0.00    +0.000 C 
ATOM     15  F   UNL     1       5.211   4.897  14.351  0.00  0.00    +0.000 F 
ATOM     16  F   UNL     1       7.206   4.210  13.870  0.00  0.00    +0.000 F 
ATOM     17  F   UNL     1       6.030   3.147  15.378  0.00  0.00    +0.000 F 
ENDBRANCH  13  14
ENDBRANCH   5   7
BRANCH   1  18
ATOM     18  C   UNL     1       0.890   7.016  21.065  0.00  0.00    +0.000 C 
BRANCH  18  19
ATOM     19  C   UNL     1       1.526   8.404  20.928  0.00  0.00    +0.000 C 
BRANCH  19  25
ATOM     20  C   UNL     1       1.834   9.140  17.918  0.00  0.00    +0.000 C 
ATOM     21  N   UNL     1       0.821   9.631  18.810  0.00  0.00    +0.000 N 
ATOM     22  C   UNL     1      -0.165  10.516  18.496  0.00  0.00    +0.000 A 
ATOM     23  N   UNL     1      -0.891  10.745  19.539  0.00  0.00    +0.000 NA
ATOM     24  N   UNL     1      -0.389  10.008  20.587  0.00  0.00    +0.000 NA
ATOM     25  C   UNL     1       0.652   9.333  20.145  0.00  0.00    +0.000 A 
ENDBRANCH  19  25
ENDBRANCH  18  19
ENDBRANCH   1  18
TORSDOF 5
ENDMDL
MODEL 5
REMARK VINA RESULT:      -8.2      2.152      2.460
REMARK  Name = 
REMARK  6 active torsions:
REMARK  status: ('A' for Active; 'I' for Inactive)
REMARK    1  A    between atoms: C_1  and  N_2
REMARK    2  A    between atoms: C_6  and  C_7
REMARK    3  A    between atoms: C_7  and  C_8
REMARK    4  A    between atoms: C_8  and  C_9
REMARK    5  A    between atoms: C_13  and  N_14
REMARK    6  A    between atoms: C_20  and  C_21
REMARK                            x       y       z     vdW  Elec       q    Type
REMARK                         _______ _______ _______ _____ _____    ______ ____
ROOT
ATOM      1  C   UNL     1       1.776   5.242  20.529  0.00  0.00    +0.000 A 
ATOM      2  C   UNL     1       1.163   3.988  20.608  0.00  0.00    +0.000 A 
ATOM      3  C   UNL     1       1.825   2.854  20.142  0.00  0.00    +0.000 A 
ATOM      4  C   UNL     1       3.083   2.963  19.543  0.00  0.00    +0.000 A 
ATOM      5  C   UNL     1       3.696   4.210  19.387  0.00  0.00    +0.000 A 
ATOM      6  C   UNL     1       3.050   5.333  19.938  0.00  0.00    +0.000 A 
ENDROOT
BRANCH   5   7
ATOM      7  N   UNL     1       4.866   4.370  18.598  0.00  0.00    +0.000 N 
ATOM      8  C   UNL     1       6.103   4.824  19.115  0.00  0.00    +0.000 C 
ATOM      9  C   UNL     1       6.942   4.804  17.896  0.00  0.00    +0.000 C 
ATOM     10  C   UNL     1       6.233   4.913  16.750  0.00  0.00    +0.000 C 
ATOM     11  C   UNL     1       4.970   4.304  17.222  0.00  0.00    +0.000 C 
ATOM     12  O   UNL     1       4.209   3.773  16.424  0.00  0.00    +0.000 OA
ATOM     13  C   UNL     1       7.352   5.821  17.008  0.00  0.00    +0.000 C 
BRANCH  13  14
ATOM     14  C   UNL     1       7.502   7.169  17.601  0.00  0.00    +0.000 C 
ATOM     15  F   UNL     1       6.293   7.748  17.834  0.00  0.00    +0.000 F 
ATOM     16  F   UNL     1       8.096   7.064  18.816  0.00  0.00    +0.000 F 
ATOM     17  F   UNL     1       8.229   8.019  16.851  0.00  0.00    +0.000 F 
ENDBRANCH  13  14
ENDBRANCH   5   7
BRANCH   1  18
ATOM     18  C   UNL     1       1.039   6.500  20.932  0.00  0.00    +0.000 C 
BRANCH  18  19
ATOM     19  C   UNL     1       1.737   7.809  20.541  0.00  0.00    +0.000 C 
BRANCH  19  25
ATOM     20  C   UNL     1       0.075  10.077  19.205  0.00  0.00    +0.000 C 
ATOM     21  N   UNL     1       0.389   9.969  20.602  0.00  0.00    +0.000 N 
ATOM     22  C   UNL     1       0.029  10.850  21.576  0.00  0.00    +0.000 A 
ATOM     23  N   UNL     1       0.489  10.449  22.714  0.00  0.00    +0.000 NA
ATOM     24  N   UNL     1       1.179   9.277  22.515  0.00  0.00    +0.000 NA
ATOM     25  C   UNL     1       1.121   8.985  21.231  0.00  0.00    +0.000 A 
ENDBRANCH  19  25
ENDBRANCH  18  19
ENDBRANCH   1  18
TORSDOF 5
ENDMDL
MODEL 6
REMARK VINA RESULT:      -8.2      1.894      2.802
REMARK  Name = 
REMARK  6 active torsions:
REMARK  status: ('A' for Active; 'I' for Inactive)
REMARK    1  A    between atoms: C_1  and  N_2
REMARK    2  A    between atoms: C_6  and  C_7
REMARK    3  A    between atoms: C_7  and  C_8
REMARK    4  A    between atoms: C_8  and  C_9
REMARK    5  A    between atoms: C_13  and  N_14
REMARK    6  A    between atoms: C_20  and  C_21
REMARK                            x       y       z     vdW  Elec       q    Type
REMARK                         _______ _______ _______ _____ _____    ______ ____
ROOT
ATOM      1  C   UNL     1       1.581   8.331  20.057  0.00  0.00    +0.000 A 
ATOM      2  C   UNL     1       1.530   9.413  19.174  0.00  0.00    +0.000 A 
ATOM      3  C   UNL     1       2.026   9.285  17.878  0.00  0.00    +0.000 A 
ATOM      4  C   UNL     1       2.628   8.094  17.465  0.00  0.00    +0.000 A 
ATOM      5  C   UNL     1       2.757   7.014  18.343  0.00  0.00    +0.000 A 
ATOM      6  C   UNL     1       2.176   7.133  19.620  0.00  0.00    +0.000 A 
ENDROOT
BRANCH   5   7
ATOM      7  N   UNL     1       3.548   5.880  18.017  0.00  0.00    +0.000 N 
ATOM      8  C   UNL     1       4.951   5.930  17.838  0.00  0.00    +0.000 C 
ATOM      9  C   UNL     1       5.245   4.514  17.521  0.00  0.00    +0.000 C 
ATOM     10  C   UNL     1       4.190   3.846  17.001  0.00  0.00    +0.000 C 
ATOM     11  C   UNL     1       3.108   4.625  17.643  0.00  0.00    +0.000 C 
ATOM     12  O   UNL     1       2.014   4.110  17.836  0.00  0.00    +0.000 OA
ATOM     13  C   UNL     1       5.476   3.841  16.302  0.00  0.00    +0.000 C 
BRANCH  13  14
ATOM     14  C   UNL     1       6.098   4.652  15.230  0.00  0.00    +0.000 C 
ATOM     15  F   UNL     1       5.266   5.643  14.809  0.00  0.00    +0.000 F 
ATOM     16  F   UNL     1       7.197   5.280  15.719  0.00  0.00    +0.000 F 
ATOM     17  F   UNL     1       6.470   3.937  14.151  0.00  0.00    +0.000 F 
ENDBRANCH  13  14
ENDBRANCH   5   7
BRANCH   1  18
ATOM     18  C   UNL     1       1.145   8.475  21.499  0.00  0.00    +0.000 C 
BRANCH  18  19
ATOM     19  C   UNL     1      -0.344   8.787  21.693  0.00  0.00    +0.000 C 
BRANCH  19  25
ATOM     20  C   UNL     1      -1.255  11.080  19.792  0.00  0.00    +0.000 C 
ATOM     21  N   UNL     1      -0.966  11.207  21.193  0.00  0.00    +0.000 N 
ATOM     22  C   UNL     1      -1.022  12.354  21.923  0.00  0.00    +0.000 A 
ATOM     23  N   UNL     1      -0.688  12.107  23.146  0.00  0.00    +0.000 NA
ATOM     24  N   UNL     1      -0.392  10.768  23.253  0.00  0.00    +0.000 NA
ATOM     25  C   UNL     1      -0.559  10.221  22.066  0.00  0.00    +0.000 A 
ENDBRANCH  19  25
ENDBRANCH  18  19
ENDBRANCH   1  18
TORSDOF 5
ENDMDL
MODEL 7
REMARK VINA RESULT:      -8.2      4.517      8.485
REMARK  Name = 
REMARK  6 active torsions:
REMARK  status: ('A' for Active; 'I' for Inactive)
REMARK    1  A    between atoms: C_1  and  N_2
REMARK    2  A    between atoms: C_6  and  C_7
REMARK    3  A    between atoms: C_7  and  C_8
REMARK    4  A    between atoms: C_8  and  C_9
REMARK    5  A    between atoms: C_13  and  N_14
REMARK    6  A    between atoms: C_20  and  C_21
REMARK                            x       y       z     vdW  Elec       q    Type
REMARK                         _______ _______ _______ _____ _____    ______ ____
ROOT
ATOM      1  C   UNL     1       5.721   5.717  17.071  0.00  0.00    +0.000 A 
ATOM      2  C   UNL     1       5.533   7.047  16.683  0.00  0.00    +0.000 A 
ATOM      3  C   UNL     1       4.396   7.742  17.087  0.00  0.00    +0.000 A 
ATOM      4  C   UNL     1       3.405   7.104  17.839  0.00  0.00    +0.000 A 
ATOM      5  C   UNL     1       3.528   5.756  18.188  0.00  0.00    +0.000 A 
ATOM      6  C   UNL     1       4.721   5.094  17.842  0.00  0.00    +0.000 A 
ENDROOT
BRANCH   5   7
ATOM      7  N   UNL     1       2.448   5.035  18.762  0.00  0.00    +0.000 N 
ATOM      8  C   UNL     1       2.012   5.209  20.097  0.00  0.00    +0.000 C 
ATOM      9  C   UNL     1       0.897   4.237  20.159  0.00  0.00    +0.000 C 
ATOM     10  C   UNL     1       1.007   3.230  19.263  0.00  0.00    +0.000 C 
ATOM     11  C   UNL     1       1.777   3.952  18.225  0.00  0.00    +0.000 C 
ATOM     12  O   UNL     1       1.710   3.600  17.055  0.00  0.00    +0.000 OA
ATOM     13  C   UNL     1       0.804   2.929  20.680  0.00  0.00    +0.000 C 
BRANCH  13  14
ATOM     14  C   UNL     1       1.685   2.634  21.833  0.00  0.00    +0.000 C 
ATOM     15  F   UNL     1       2.204   3.772  22.367  0.00  0.00    +0.000 F 
ATOM     16  F   UNL     1       0.956   2.065  22.825  0.00  0.00    +0.000 F 
ATOM     17  F   UNL     1       2.709   1.810  21.541  0.00  0.00    +0.000 F 
ENDBRANCH  13  14
ENDBRANCH   5   7
BRANCH   1  18
ATOM     18  C   UNL     1       6.894   4.910  16.560  0.00  0.00    +0.000 C 
BRANCH  18  19
ATOM     19  C   UNL     1       6.586   4.022  15.348  0.00  0.00    +0.000 C 
BRANCH  19  25
ATOM     20  C   UNL     1       5.839   3.175  12.446  0.00  0.00    +0.000 C 
ATOM     21  N   UNL     1       6.757   4.217  12.814  0.00  0.00    +0.000 N 
ATOM     22  C   UNL     1       7.470   4.997  11.957  0.00  0.00    +0.000 A 
ATOM     23  N   UNL     1       8.204   5.821  12.629  0.00  0.00    +0.000 NA
ATOM     24  N   UNL     1       7.993   5.596  13.968  0.00  0.00    +0.000 NA
ATOM     25  C   UNL     1       7.115   4.620  14.082  0.00  0.00    +0.000 A 
ENDBRANCH  19  25
ENDBRANCH  18  19
ENDBRANCH   1  18
TORSDOF 5
ENDMDL
MODEL 8
REMARK VINA RESULT:      -8.1      4.781      7.346
REMARK  Name = 
REMARK  6 active torsions:
REMARK  status: ('A' for Active; 'I' for Inactive)
REMARK    1  A    between atoms: C_1  and  N_2
REMARK    2  A    between atoms: C_6  and  C_7
REMARK    3  A    between atoms: C_7  and  C_8
REMARK    4  A    between atoms: C_8  and  C_9
REMARK    5  A    between atoms: C_13  and  N_14
REMARK    6  A    between atoms: C_20  and  C_21
REMARK                            x       y       z     vdW  Elec       q    Type
REMARK                         _______ _______ _______ _____ _____    ______ ____
ROOT
ATOM      1  C   UNL     1       7.682   7.507  17.936  0.00  0.00    +0.000 A 
ATOM      2  C   UNL     1       8.388   6.869  18.960  0.00  0.00    +0.000 A 
ATOM      3  C   UNL     1       7.876   5.715  19.551  0.00  0.00    +0.000 A 
ATOM      4  C   UNL     1       6.630   5.214  19.165  0.00  0.00    +0.000 A 
ATOM      5  C   UNL     1       5.867   5.865  18.191  0.00  0.00    +0.000 A 
ATOM      6  C   UNL     1       6.436   6.980  17.547  0.00  0.00    +0.000 A 
ENDROOT
BRANCH   5   7
ATOM      7  N   UNL     1       4.518   5.500  17.937  0.00  0.00    +0.000 N 
ATOM      8  C   UNL     1       3.422   5.983  18.690  0.00  0.00    +0.000 C 
ATOM      9  C   UNL     1       2.294   5.300  18.016  0.00  0.00    +0.000 C 
ATOM     10  C   UNL     1       2.653   4.159  17.384  0.00  0.00    +0.000 C 
ATOM     11  C   UNL     1       4.057   4.515  17.084  0.00  0.00    +0.000 C 
ATOM     12  O   UNL     1       4.632   3.997  16.135  0.00  0.00    +0.000 OA
ATOM     13  C   UNL     1       1.548   4.148  18.344  0.00  0.00    +0.000 C 
BRANCH  13  14
ATOM     14  C   UNL     1       1.410   3.864  19.791  0.00  0.00    +0.000 C 
ATOM     15  F   UNL     1       2.601   3.509  20.345  0.00  0.00    +0.000 F 
ATOM     16  F   UNL     1       1.028   4.993  20.439  0.00  0.00    +0.000 F 
ATOM     17  F   UNL     1       0.517   2.896  20.074  0.00  0.00    +0.000 F 
ENDBRANCH  13  14
ENDBRANCH   5   7
BRANCH   1  18
ATOM     18  C   UNL     1       8.164   8.816  17.350  0.00  0.00    +0.000 C 
BRANCH  18  19
ATOM     19  C   UNL     1       8.045  10.023  18.288  0.00  0.00    +0.000 C 
BRANCH  19  25
ATOM     20  C   UNL     1       9.224  11.023  20.990  0.00  0.00    +0.000 C 
ATOM     21  N   UNL     1       9.856  11.121  19.705  0.00  0.00    +0.000 N 
ATOM     22  C   UNL     1      11.068  11.683  19.446  0.00  0.00    +0.000 A 
ATOM     23  N   UNL     1      11.321  11.608  18.182  0.00  0.00    +0.000 NA
ATOM     24  N   UNL     1      10.260  10.989  17.564  0.00  0.00    +0.000 NA
ATOM     25  C   UNL     1       9.369  10.694  18.488  0.00  0.00    +0.000 A 
ENDBRANCH  19  25
ENDBRANCH  18  19
ENDBRANCH   1  18
TORSDOF 5
ENDMDL
MODEL 9
REMARK VINA RESULT:      -8.1      2.488      3.097
REMARK  Name = 
REMARK  6 active torsions:
REMARK  status: ('A' for Active; 'I' for Inactive)
REMARK    1  A    between atoms: C_1  and  N_2
REMARK    2  A    between atoms: C_6  and  C_7
REMARK    3  A    between atoms: C_7  and  C_8
REMARK    4  A    between atoms: C_8  and  C_9
REMARK    5  A    between atoms: C_13  and  N_14
REMARK    6  A    between atoms: C_20  and  C_21
REMARK                            x       y       z     vdW  Elec       q    Type
REMARK                         _______ _______ _______ _____ _____    ______ ____
ROOT
ATOM      1  C   UNL     1       1.752   5.185  20.488  0.00  0.00    +0.000 A 
ATOM      2  C   UNL     1       1.188   3.914  20.637  0.00  0.00    +0.000 A 
ATOM      3  C   UNL     1       1.904   2.781  20.257  0.00  0.00    +0.000 A 
ATOM      4  C   UNL     1       3.168   2.904  19.674  0.00  0.00    +0.000 A 
ATOM      5  C   UNL     1       3.734   4.162  19.448  0.00  0.00    +0.000 A 
ATOM      6  C   UNL     1       3.033   5.290  19.914  0.00  0.00    +0.000 A 
ENDROOT
BRANCH   5   7
ATOM      7  N   UNL     1       4.911   4.319  18.671  0.00  0.00    +0.000 N 
ATOM      8  C   UNL     1       6.127   4.831  19.185  0.00  0.00    +0.000 C 
ATOM      9  C   UNL     1       6.986   4.779  17.980  0.00  0.00    +0.000 C 
ATOM     10  C   UNL     1       6.293   4.817  16.820  0.00  0.00    +0.000 C 
ATOM     11  C   UNL     1       5.040   4.195  17.300  0.00  0.00    +0.000 C 
ATOM     12  O   UNL     1       4.307   3.607  16.515  0.00  0.00    +0.000 OA
ATOM     13  C   UNL     1       7.382   5.767  17.053  0.00  0.00    +0.000 C 
BRANCH  13  14
ATOM     14  C   UNL     1       7.485   7.144  17.587  0.00  0.00    +0.000 C 
ATOM     15  F   UNL     1       6.258   7.701  17.768  0.00  0.00    +0.000 F 
ATOM     16  F   UNL     1       8.056   7.110  18.818  0.00  0.00    +0.000 F 
ATOM     17  F   UNL     1       8.208   7.976  16.814  0.00  0.00    +0.000 F 
ENDBRANCH  13  14
ENDBRANCH   5   7
BRANCH   1  18
ATOM     18  C   UNL     1       0.957   6.435  20.795  0.00  0.00    +0.000 C 
BRANCH  18  19
ATOM     19  C   UNL     1       1.782   7.727  20.843  0.00  0.00    +0.000 C 
BRANCH  19  25
ATOM     20  C   UNL     1      -0.186  10.109  20.455  0.00  0.00    +0.000 C 
ATOM     21  N   UNL     1       0.718   9.589  19.468  0.00  0.00    +0.000 N 
ATOM     22  C   UNL     1       0.854  10.036  18.189  0.00  0.00    +0.000 A 
ATOM     23  N   UNL     1       1.748   9.334  17.577  0.00  0.00    +0.000 NA
ATOM     24  N   UNL     1       2.227   8.385  18.449  0.00  0.00    +0.000 NA
ATOM     25  C   UNL     1       1.601   8.538  19.598  0.00  0.00    +0.000 A 
ENDBRANCH  19  25
ENDBRANCH  18  19
ENDBRANCH   1  18
TORSDOF 5
ENDMDL
