MODEL 1
REMARK VINA RESULT:      -8.2      0.000      0.000
REMARK  Name = 
REMARK  7 active torsions:
REMARK  status: ('A' for Active; 'I' for Inactive)
REMARK    1  A    between atoms: C_1  and  N_2
REMARK    2  A    between atoms: C_6  and  C_7
REMARK    3  A    between atoms: C_7  and  C_8
REMARK    4  A    between atoms: C_8  and  C_9
REMARK    5  A    between atoms: C_13  and  N_14
REMARK    6  A    between atoms: C_17  and  C_18
REMARK    7  A    between atoms: C_18  and  C_19
REMARK                            x       y       z     vdW  Elec       q    Type
REMARK                         _______ _______ _______ _____ _____    ______ ____
ROOT
ATOM      1  C   UNL     1       1.689   8.316  19.760  0.00  0.00    +0.000 A 
ATOM      2  C   UNL     1       2.029   8.789  18.477  0.00  0.00    +0.000 A 
ATOM      3  C   UNL     1       2.468   7.934  17.473  0.00  0.00    +0.000 A 
ATOM      4  C   UNL     1       2.677   6.591  17.759  0.00  0.00    +0.000 A 
ATOM      5  C   UNL     1       2.599   6.147  19.085  0.00  0.00    +0.000 A 
ATOM      6  C   UNL     1       1.986   6.968  20.036  0.00  0.00    +0.000 A 
ENDROOT
BRANCH   5   7
ATOM      7  N   UNL     1       3.516   5.121  19.568  0.00  0.00    +0.000 N 
ATOM      8  C   UNL     1       4.900   5.650  19.534  0.00  0.00    +0.000 C 
ATOM      9  C   UNL     1       5.305   5.337  18.122  0.00  0.00    +0.000 A 
ATOM     10  C   UNL     1       5.882   6.144  17.144  0.00  0.00    +0.000 A 
ATOM     11  C   UNL     1       5.829   5.657  15.823  0.00  0.00    +0.000 A 
ATOM     12  C   UNL     1       5.207   4.435  15.514  0.00  0.00    +0.000 A 
ATOM     13  F   UNL     1       5.084   4.081  14.228  0.00  0.00    +0.000 F 
ATOM     14  C   UNL     1       4.604   3.659  16.486  0.00  0.00    +0.000 A 
ATOM     15  C   UNL     1       4.642   4.149  17.776  0.00  0.00    +0.000 A 
ATOM     16  C   UNL     1       3.571   3.940  18.792  0.00  0.00    +0.000 C 
ATOM     17  O   UNL     1       2.773   3.017  18.762  0.00  0.00    +0.000 OA
BRANCH  10  18
ATOM     18  C   UNL     1       6.313   7.570  17.406  0.00  0.00    +0.000 C 
BRANCH  18  19
ATOM     19  C   UNL     1       7.798   7.734  17.688  0.00  0.00    +0.000 C 
ATOM     20  F   UNL     1       8.201   6.751  18.540  0.00  0.00    +0.000 F 
ENDBRANCH  18  19
ENDBRANCH  10  18
ENDBRANCH   5   7
BRANCH   1  21
ATOM     21  C   UNL     1       1.007   9.277  20.840  0.00  0.00    +0.000 C 
ATOM     22  C   UNL     1      -0.361   8.837  21.429  0.00  0.00    +0.000 C 
ATOM     23  O   UNL     1       0.139   8.857  22.778  0.00  0.00    +0.000 OA
ATOM     24  C   UNL     1       1.478   9.142  22.316  0.00  0.00    +0.000 C 
BRANCH  21  25
ATOM     25  C   UNL     1       0.932  10.709  20.267  0.00  0.00    +0.000 C 
BRANCH  25  31
ATOM     26  C   UNL     1      -1.024  12.556  21.945  0.00  0.00    +0.000 C 
ATOM     27  N   UNL     1      -1.257  11.987  20.646  0.00  0.00    +0.000 N 
ATOM     28  C   UNL     1      -2.376  12.193  19.892  0.00  0.00    +0.000 A 
ATOM     29  N   UNL     1      -2.293  11.495  18.787  0.00  0.00    +0.000 NA
ATOM     30  N   UNL     1      -1.085  10.842  18.796  0.00  0.00    +0.000 NA
ATOM     31  C   UNL     1      -0.448  11.156  19.907  0.00  0.00    +0.000 A 
ENDBRANCH  25  31
ENDBRANCH  21  25
ENDBRANCH   1  21
TORSDOF 6
ENDMDL
MODEL 2
REMARK VINA RESULT:      -8.1      5.365      8.461
REMARK  Name = 
REMARK  7 active torsions:
REMARK  status: ('A' for Active; 'I' for Inactive)
REMARK    1  A    between atoms: C_1  and  N_2
REMARK    2  A    between atoms: C_6  and  C_7
REMARK    3  A    between atoms: C_7  and  C_8
REMARK    4  A    between atoms: C_8  and  C_9
REMARK    5  A    between atoms: C_13  and  N_14
REMARK    6  A    between atoms: C_17  and  C_18
REMARK    7  A    between atoms: C_18  and  C_19
REMARK                            x       y       z     vdW  Elec       q    Type
REMARK                         _______ _______ _______ _____ _____    ______ ____
ROOT
ATOM      1  C   UNL     1      -3.952  11.460  17.969  0.00  0.00    +0.000 A 
ATOM      2  C   UNL     1      -3.855  10.671  16.805  0.00  0.00    +0.000 A 
ATOM      3  C   UNL     1      -2.714   9.935  16.511  0.00  0.00    +0.000 A 
ATOM      4  C   UNL     1      -1.595  10.048  17.327  0.00  0.00    +0.000 A 
ATOM      5  C   UNL     1      -1.573  11.019  18.336  0.00  0.00    +0.000 A 
ATOM      6  C   UNL     1      -2.776  11.613  18.728  0.00  0.00    +0.000 A 
ENDROOT
BRANCH   5   7
ATOM      7  N   UNL     1      -0.337  11.734  18.636  0.00  0.00    +0.000 N 
ATOM      8  C   UNL     1       0.555  10.853  19.425  0.00  0.00    +0.000 C 
ATOM      9  C   UNL     1       0.073  11.115  20.823  0.00  0.00    +0.000 A 
ATOM     10  C   UNL     1      -0.288  10.232  21.839  0.00  0.00    +0.000 A 
ATOM     11  C   UNL     1      -1.017  10.780  22.913  0.00  0.00    +0.000 A 
ATOM     12  C   UNL     1      -1.376  12.139  22.939  0.00  0.00    +0.000 A 
ATOM     13  F   UNL     1      -2.170  12.576  23.927  0.00  0.00    +0.000 F 
ATOM     14  C   UNL     1      -1.046  13.000  21.909  0.00  0.00    +0.000 A 
ATOM     15  C   UNL     1      -0.349  12.453  20.851  0.00  0.00    +0.000 A 
ATOM     16  C   UNL     1      -0.483  12.893  19.433  0.00  0.00    +0.000 C 
ATOM     17  O   UNL     1      -0.877  13.998  19.095  0.00  0.00    +0.000 OA
BRANCH  10  18
ATOM     18  C   UNL     1      -0.149   8.731  21.708  0.00  0.00    +0.000 C 
BRANCH  18  19
ATOM     19  C   UNL     1       1.270   8.253  21.444  0.00  0.00    +0.000 C 
ATOM     20  F   UNL     1       1.228   6.981  20.962  0.00  0.00    +0.000 F 
ENDBRANCH  18  19
ENDBRANCH  10  18
ENDBRANCH   5   7
BRANCH   1  21
ATOM     21  C   UNL     1      -5.333  12.146  18.388  0.00  0.00    +0.000 C 
ATOM     22  C   UNL     1      -6.103  12.935  17.293  0.00  0.00    +0.000 C 
ATOM     23  O   UNL     1      -7.282  12.123  17.445  0.00  0.00    +0.000 OA
ATOM     24  C   UNL     1      -6.607  11.253  18.380  0.00  0.00    +0.000 C 
BRANCH  21  25
ATOM     25  C   UNL     1      -5.106  13.013  19.645  0.00  0.00    +0.000 C 
BRANCH  25  31
ATOM     26  C   UNL     1      -7.857  14.515  20.121  0.00  0.00    +0.000 C 
ATOM     27  N   UNL     1      -7.304  13.435  20.893  0.00  0.00    +0.000 N 
ATOM     28  C   UNL     1      -7.915  12.845  21.961  0.00  0.00    +0.000 A 
ATOM     29  N   UNL     1      -7.126  11.931  22.467  0.00  0.00    +0.000 NA
ATOM     30  N   UNL     1      -5.986  11.895  21.701  0.00  0.00    +0.000 NA
ATOM     31  C   UNL     1      -6.102  12.787  20.737  0.00  0.00    +0.000 A 
ENDBRANCH  25  31
ENDBRANCH  21  25
ENDBRANCH   1  21
TORSDOF 6
ENDMDL
MODEL 3
REMARK VINA RESULT:      -8.1      3.539      8.305
REMARK  Name = 
REMARK  7 active torsions:
REMARK  status: ('A' for Active; 'I' for Inactive)
REMARK    1  A    between atoms: C_1  and  N_2
REMARK    2  A    between atoms: C_6  and  C_7
REMARK    3  A    between atoms: C_7  and  C_8
REMARK    4  A    between atoms: C_8  and  C_9
REMARK    5  A    between atoms: C_13  and  N_14
REMARK    6  A    between atoms: C_17  and  C_18
REMARK    7  A    between atoms: C_18  and  C_19
REMARK                            x       y       z     vdW  Elec       q    Type
REMARK                         _______ _______ _______ _____ _____    ______ ____
ROOT
ATOM      1  C   UNL     1       2.481   7.282  18.769  0.00  0.00    +0.000 A 
ATOM      2  C   UNL     1       2.480   8.178  17.681  0.00  0.00    +0.000 A 
ATOM      3  C   UNL     1       2.074   9.500  17.820  0.00  0.00    +0.000 A 
ATOM      4  C   UNL     1       1.560   9.936  19.035  0.00  0.00    +0.000 A 
ATOM      5  C   UNL     1       1.305   9.005  20.050  0.00  0.00    +0.000 A 
ATOM      6  C   UNL     1       1.881   7.734  19.960  0.00  0.00    +0.000 A 
ENDROOT
BRANCH   5   7
ATOM      7  N   UNL     1       0.134   9.157  20.905  0.00  0.00    +0.000 N 
ATOM      8  C   UNL     1      -1.091   9.033  20.079  0.00  0.00    +0.000 C 
ATOM      9  C   UNL     1      -1.269  10.444  19.596  0.00  0.00    +0.000 A 
ATOM     10  C   UNL     1      -1.481  10.944  18.313  0.00  0.00    +0.000 A 
ATOM     11  C   UNL     1      -1.270  12.326  18.139  0.00  0.00    +0.000 A 
ATOM     12  C   UNL     1      -0.846  13.144  19.201  0.00  0.00    +0.000 A 
ATOM     13  F   UNL     1      -0.548  14.426  18.947  0.00  0.00    +0.000 F 
ATOM     14  C   UNL     1      -0.602  12.633  20.461  0.00  0.00    +0.000 A 
ATOM     15  C   UNL     1      -0.792  11.275  20.622  0.00  0.00    +0.000 A 
ATOM     16  C   UNL     1       0.003  10.413  21.542  0.00  0.00    +0.000 C 
ATOM     17  O   UNL     1       0.601  10.828  22.522  0.00  0.00    +0.000 OA
BRANCH  10  18
ATOM     18  C   UNL     1      -1.675  10.052  17.107  0.00  0.00    +0.000 C 
BRANCH  18  19
ATOM     19  C   UNL     1      -3.128   9.798  16.741  0.00  0.00    +0.000 C 
ATOM     20  F   UNL     1      -3.777   9.290  17.824  0.00  0.00    +0.000 F 
ENDBRANCH  18  19
ENDBRANCH  10  18
ENDBRANCH   5   7
BRANCH   1  21
ATOM     21  C   UNL     1       3.127   5.826  18.639  0.00  0.00    +0.000 C 
ATOM     22  C   UNL     1       3.956   5.522  17.360  0.00  0.00    +0.000 C 
ATOM     23  O   UNL     1       5.133   5.197  18.121  0.00  0.00    +0.000 OA
ATOM     24  C   UNL     1       4.486   5.580  19.354  0.00  0.00    +0.000 C 
BRANCH  21  25
ATOM     25  C   UNL     1       2.029   4.764  18.858  0.00  0.00    +0.000 C 
BRANCH  25  31
ATOM     26  C   UNL     1       3.480   1.947  18.962  0.00  0.00    +0.000 C 
ATOM     27  N   UNL     1       2.917   2.682  20.061  0.00  0.00    +0.000 N 
ATOM     28  C   UNL     1       2.954   2.287  21.367  0.00  0.00    +0.000 A 
ATOM     29  N   UNL     1       2.311   3.156  22.106  0.00  0.00    +0.000 NA
ATOM     30  N   UNL     1       1.867   4.158  21.279  0.00  0.00    +0.000 NA
ATOM     31  C   UNL     1       2.251   3.885  20.047  0.00  0.00    +0.000 A 
ENDBRANCH  25  31
ENDBRANCH  21  25
ENDBRANCH   1  21
TORSDOF 6
ENDMDL
MODEL 4
REMARK VINA RESULT:      -8.0      3.150      7.955
REMARK  Name = 
REMARK  7 active torsions:
REMARK  status: ('A' for Active; 'I' for Inactive)
REMARK    1  A    between atoms: C_1  and  N_2
REMARK    2  A    between atoms: C_6  and  C_7
REMARK    3  A    between atoms: C_7  and  C_8
REMARK    4  A    between atoms: C_8  and  C_9
REMARK    5  A    between atoms: C_13  and  N_14
REMARK    6  A    between atoms: C_17  and  C_18
REMARK    7  A    between atoms: C_18  and  C_19
REMARK                            x       y       z     vdW  Elec       q    Type
REMARK                         _______ _______ _______ _____ _____    ______ ____
ROOT
ATOM      1  C   UNL     1       2.328   5.868  18.853  0.00  0.00    +0.000 A 
ATOM      2  C   UNL     1       2.318   6.726  17.735  0.00  0.00    +0.000 A 
ATOM      3  C   UNL     1       2.228   8.106  17.871  0.00  0.00    +0.000 A 
ATOM      4  C   UNL     1       2.042   8.661  19.130  0.00  0.00    +0.000 A 
ATOM      5  C   UNL     1       1.787   7.822  20.223  0.00  0.00    +0.000 A 
ATOM      6  C   UNL     1       2.060   6.457  20.104  0.00  0.00    +0.000 A 
ENDROOT
BRANCH   5   7
ATOM      7  N   UNL     1       0.846   8.235  21.258  0.00  0.00    +0.000 N 
ATOM      8  C   UNL     1      -0.463   8.539  20.632  0.00  0.00    +0.000 C 
ATOM      9  C   UNL     1      -0.279   9.976  20.236  0.00  0.00    +0.000 A 
ATOM     10  C   UNL     1      -0.511  10.620  19.022  0.00  0.00    +0.000 A 
ATOM     11  C   UNL     1       0.076  11.891  18.868  0.00  0.00    +0.000 A 
ATOM     12  C   UNL     1       0.870  12.462  19.879  0.00  0.00    +0.000 A 
ATOM     13  F   UNL     1       1.497  13.619  19.629  0.00  0.00    +0.000 F 
ATOM     14  C   UNL     1       1.125  11.800  21.065  0.00  0.00    +0.000 A 
ATOM     15  C   UNL     1       0.563  10.547  21.203  0.00  0.00    +0.000 A 
ATOM     16  C   UNL     1       1.186   9.419  21.953  0.00  0.00    +0.000 C 
ATOM     17  O   UNL     1       2.012   9.562  22.841  0.00  0.00    +0.000 OA
BRANCH  10  18
ATOM     18  C   UNL     1      -1.128   9.923  17.830  0.00  0.00    +0.000 C 
BRANCH  18  19
ATOM     19  C   UNL     1      -2.647   9.979  17.788  0.00  0.00    +0.000 C 
ATOM     20  F   UNL     1      -3.082   9.402  16.634  0.00  0.00    +0.000 F 
ENDBRANCH  18  19
ENDBRANCH  10  18
ENDBRANCH   5   7
BRANCH   1  21
ATOM     21  C   UNL     1       2.624   4.305  18.692  0.00  0.00    +0.000 C 
ATOM     22  C   UNL     1       2.758   3.464  19.991  0.00  0.00    +0.000 C 
ATOM     23  O   UNL     1       1.694   2.576  19.604  0.00  0.00    +0.000 OA
ATOM     24  C   UNL     1       1.408   3.371  18.432  0.00  0.00    +0.000 C 
BRANCH  21  25
ATOM     25  C   UNL     1       3.850   4.114  17.775  0.00  0.00    +0.000 C 
BRANCH  25  31
ATOM     26  C   UNL     1       5.635   6.410  16.511  0.00  0.00    +0.000 C 
ATOM     27  N   UNL     1       5.848   5.720  17.754  0.00  0.00    +0.000 N 
ATOM     28  C   UNL     1       6.863   5.980  18.628  0.00  0.00    +0.000 A 
ATOM     29  N   UNL     1       6.799   5.144  19.634  0.00  0.00    +0.000 NA
ATOM     30  N   UNL     1       5.706   4.337  19.436  0.00  0.00    +0.000 NA
ATOM     31  C   UNL     1       5.117   4.698  18.313  0.00  0.00    +0.000 A 
ENDBRANCH  25  31
ENDBRANCH  21  25
ENDBRANCH   1  21
TORSDOF 6
ENDMDL
MODEL 5
REMARK VINA RESULT:      -8.0      1.346      1.786
REMARK  Name = 
REMARK  7 active torsions:
REMARK  status: ('A' for Active; 'I' for Inactive)
REMARK    1  A    between atoms: C_1  and  N_2
REMARK    2  A    between atoms: C_6  and  C_7
REMARK    3  A    between atoms: C_7  and  C_8
REMARK    4  A    between atoms: C_8  and  C_9
REMARK    5  A    between atoms: C_13  and  N_14
REMARK    6  A    between atoms: C_17  and  C_18
REMARK    7  A    between atoms: C_18  and  C_19
REMARK                            x       y       z     vdW  Elec       q    Type
REMARK                         _______ _______ _______ _____ _____    ______ ____
ROOT
ATOM      1  C   UNL     1       1.608   8.315  19.695  0.00  0.00    +0.000 A 
ATOM      2  C   UNL     1       2.020   8.830  18.449  0.00  0.00    +0.000 A 
ATOM      3  C   UNL     1       2.548   8.012  17.457  0.00  0.00    +0.000 A 
ATOM      4  C   UNL     1       2.773   6.667  17.724  0.00  0.00    +0.000 A 
ATOM      5  C   UNL     1       2.619   6.188  19.031  0.00  0.00    +0.000 A 
ATOM      6  C   UNL     1       1.922   6.969  19.958  0.00  0.00    +0.000 A 
ENDROOT
BRANCH   5   7
ATOM      7  N   UNL     1       3.528   5.173  19.550  0.00  0.00    +0.000 N 
ATOM      8  C   UNL     1       4.914   5.698  19.515  0.00  0.00    +0.000 C 
ATOM      9  C   UNL     1       5.331   5.345  18.116  0.00  0.00    +0.000 A 
ATOM     10  C   UNL     1       5.919   6.124  17.121  0.00  0.00    +0.000 A 
ATOM     11  C   UNL     1       5.877   5.601  15.813  0.00  0.00    +0.000 A 
ATOM     12  C   UNL     1       5.254   4.372  15.532  0.00  0.00    +0.000 A 
ATOM     13  F   UNL     1       5.142   3.984  14.255  0.00  0.00    +0.000 F 
ATOM     14  C   UNL     1       4.641   3.625  16.520  0.00  0.00    +0.000 A 
ATOM     15  C   UNL     1       4.668   4.150  17.796  0.00  0.00    +0.000 A 
ATOM     16  C   UNL     1       3.588   3.971  18.807  0.00  0.00    +0.000 C 
ATOM     17  O   UNL     1       2.787   3.050  18.796  0.00  0.00    +0.000 OA
BRANCH  10  18
ATOM     18  C   UNL     1       6.352   7.555  17.349  0.00  0.00    +0.000 C 
BRANCH  18  19
ATOM     19  C   UNL     1       7.823   7.718  17.696  0.00  0.00    +0.000 C 
ATOM     20  F   UNL     1       8.085   9.035  17.919  0.00  0.00    +0.000 F 
ENDBRANCH  18  19
ENDBRANCH  10  18
ENDBRANCH   5   7
BRANCH   1  21
ATOM     21  C   UNL     1       0.830   9.232  20.749  0.00  0.00    +0.000 C 
ATOM     22  C   UNL     1      -0.243   8.546  21.640  0.00  0.00    +0.000 C 
ATOM     23  O   UNL     1       0.416   8.947  22.855  0.00  0.00    +0.000 OA
ATOM     24  C   UNL     1       1.525   9.500  22.114  0.00  0.00    +0.000 C 
BRANCH  21  25
ATOM     25  C   UNL     1       0.246  10.459  20.018  0.00  0.00    +0.000 C 
BRANCH  25  31
ATOM     26  C   UNL     1       2.264  12.374  18.498  0.00  0.00    +0.000 C 
ATOM     27  N   UNL     1       1.646  12.592  19.777  0.00  0.00    +0.000 N 
ATOM     28  C   UNL     1       1.807  13.710  20.543  0.00  0.00    +0.000 A 
ATOM     29  N   UNL     1       1.149  13.571  21.666  0.00  0.00    +0.000 NA
ATOM     30  N   UNL     1       0.517  12.352  21.629  0.00  0.00    +0.000 NA
ATOM     31  C   UNL     1       0.797  11.770  20.480  0.00  0.00    +0.000 A 
ENDBRANCH  25  31
ENDBRANCH  21  25
ENDBRANCH   1  21
TORSDOF 6
ENDMDL
MODEL 6
REMARK VINA RESULT:      -8.0      0.531      1.083
REMARK  Name = 
REMARK  7 active torsions:
REMARK  status: ('A' for Active; 'I' for Inactive)
REMARK    1  A    between atoms: C_1  and  N_2
REMARK    2  A    between atoms: C_6  and  C_7
REMARK    3  A    between atoms: C_7  and  C_8
REMARK    4  A    between atoms: C_8  and  C_9
REMARK    5  A    between atoms: C_13  and  N_14
REMARK    6  A    between atoms: C_17  and  C_18
REMARK    7  A    between atoms: C_18  and  C_19
REMARK                            x       y       z     vdW  Elec       q    Type
REMARK                         _______ _______ _______ _____ _____    ______ ____
ROOT
ATOM      1  C   UNL     1       1.694   8.311  19.762  0.00  0.00    +0.000 A 
ATOM      2  C   UNL     1       2.016   8.769  18.468  0.00  0.00    +0.000 A 
ATOM      3  C   UNL     1       2.440   7.902  17.468  0.00  0.00    +0.000 A 
ATOM      4  C   UNL     1       2.653   6.562  17.766  0.00  0.00    +0.000 A 
ATOM      5  C   UNL     1       2.594   6.134  19.098  0.00  0.00    +0.000 A 
ATOM      6  C   UNL     1       1.995   6.966  20.049  0.00  0.00    +0.000 A 
ENDROOT
BRANCH   5   7
ATOM      7  N   UNL     1       3.518   5.113  19.580  0.00  0.00    +0.000 N 
ATOM      8  C   UNL     1       4.899   5.650  19.543  0.00  0.00    +0.000 C 
ATOM      9  C   UNL     1       5.303   5.339  18.131  0.00  0.00    +0.000 A 
ATOM     10  C   UNL     1       5.873   6.149  17.151  0.00  0.00    +0.000 A 
ATOM     11  C   UNL     1       5.821   5.661  15.830  0.00  0.00    +0.000 A 
ATOM     12  C   UNL     1       5.205   4.435  15.523  0.00  0.00    +0.000 A 
ATOM     13  F   UNL     1       5.081   4.080  14.237  0.00  0.00    +0.000 F 
ATOM     14  C   UNL     1       4.609   3.656  16.497  0.00  0.00    +0.000 A 
ATOM     15  C   UNL     1       4.646   4.147  17.786  0.00  0.00    +0.000 A 
ATOM     16  C   UNL     1       3.579   3.932  18.804  0.00  0.00    +0.000 C 
ATOM     17  O   UNL     1       2.785   3.005  18.777  0.00  0.00    +0.000 OA
BRANCH  10  18
ATOM     18  C   UNL     1       6.297   7.577  17.412  0.00  0.00    +0.000 C 
BRANCH  18  19
ATOM     19  C   UNL     1       7.787   7.755  17.653  0.00  0.00    +0.000 C 
ATOM     20  F   UNL     1       8.205   6.829  18.559  0.00  0.00    +0.000 F 
ENDBRANCH  18  19
ENDBRANCH  10  18
ENDBRANCH   5   7
BRANCH   1  21
ATOM     21  C   UNL     1       1.028   9.285  20.840  0.00  0.00    +0.000 C 
ATOM     22  C   UNL     1      -0.365   8.886  21.402  0.00  0.00    +0.000 C 
ATOM     23  O   UNL     1       0.114   8.876  22.759  0.00  0.00    +0.000 OA
ATOM     24  C   UNL     1       1.469   9.119  22.322  0.00  0.00    +0.000 C 
BRANCH  21  25
ATOM     25  C   UNL     1       1.012  10.723  20.281  0.00  0.00    +0.000 C 
BRANCH  25  31
ATOM     26  C   UNL     1      -1.496  11.011  18.362  0.00  0.00    +0.000 C 
ATOM     27  N   UNL     1      -1.343  11.542  19.689  0.00  0.00    +0.000 N 
ATOM     28  C   UNL     1      -2.300  12.243  20.366  0.00  0.00    +0.000 A 
ATOM     29  N   UNL     1      -1.826  12.623  21.526  0.00  0.00    +0.000 NA
ATOM     30  N   UNL     1      -0.545  12.139  21.631  0.00  0.00    +0.000 NA
ATOM     31  C   UNL     1      -0.260  11.467  20.532  0.00  0.00    +0.000 A 
ENDBRANCH  25  31
ENDBRANCH  21  25
ENDBRANCH   1  21
TORSDOF 6
ENDMDL
MODEL 7
REMARK VINA RESULT:      -7.9      1.966      2.946
REMARK  Name = 
REMARK  7 active torsions:
REMARK  status: ('A' for Active; 'I' for Inactive)
REMARK    1  A    between atoms: C_1  and  N_2
REMARK    2  A    between atoms: C_6  and  C_7
REMARK    3  A    between atoms: C_7  and  C_8
REMARK    4  A    between atoms: C_8  and  C_9
REMARK    5  A    between atoms: C_13  and  N_14
REMARK    6  A    between atoms: C_17  and  C_18
REMARK    7  A    between atoms: C_18  and  C_19
REMARK                            x       y       z     vdW  Elec       q    Type
REMARK                         _______ _______ _______ _____ _____    ______ ____
ROOT
ATOM      1  C   UNL     1       1.524   8.937  19.267  0.00  0.00    +0.000 A 
ATOM      2  C   UNL     1       2.142   9.231  18.035  0.00  0.00    +0.000 A 
ATOM      3  C   UNL     1       2.853   8.272  17.325  0.00  0.00    +0.000 A 
ATOM      4  C   UNL     1       3.053   7.014  17.879  0.00  0.00    +0.000 A 
ATOM      5  C   UNL     1       2.677   6.779  19.208  0.00  0.00    +0.000 A 
ATOM      6  C   UNL     1       1.812   7.681  19.835  0.00  0.00    +0.000 A 
ENDROOT
BRANCH   5   7
ATOM      7  N   UNL     1       3.499   5.928  20.061  0.00  0.00    +0.000 N 
ATOM      8  C   UNL     1       4.515   5.241  19.228  0.00  0.00    +0.000 C 
ATOM      9  C   UNL     1       3.754   4.031  18.766  0.00  0.00    +0.000 A 
ATOM     10  C   UNL     1       3.585   3.498  17.490  0.00  0.00    +0.000 A 
ATOM     11  C   UNL     1       2.545   2.560  17.337  0.00  0.00    +0.000 A 
ATOM     12  C   UNL     1       1.712   2.205  18.413  0.00  0.00    +0.000 A 
ATOM     13  F   UNL     1       0.668   1.400  18.180  0.00  0.00    +0.000 F 
ATOM     14  C   UNL     1       1.863   2.767  19.667  0.00  0.00    +0.000 A 
ATOM     15  C   UNL     1       2.872   3.699  19.806  0.00  0.00    +0.000 A 
ATOM     16  C   UNL     1       2.814   4.878  20.716  0.00  0.00    +0.000 C 
ATOM     17  O   UNL     1       2.100   4.944  21.705  0.00  0.00    +0.000 OA
BRANCH  10  18
ATOM     18  C   UNL     1       4.284   4.055  16.269  0.00  0.00    +0.000 C 
BRANCH  18  19
ATOM     19  C   UNL     1       5.771   3.745  16.201  0.00  0.00    +0.000 C 
ATOM     20  F   UNL     1       6.099   3.417  14.921  0.00  0.00    +0.000 F 
ENDBRANCH  18  19
ENDBRANCH  10  18
ENDBRANCH   5   7
BRANCH   1  21
ATOM     21  C   UNL     1       0.554   9.990  19.977  0.00  0.00    +0.000 C 
ATOM     22  C   UNL     1      -0.638   9.426  20.799  0.00  0.00    +0.000 C 
ATOM     23  O   UNL     1      -0.207  10.092  22.001  0.00  0.00    +0.000 OA
ATOM     24  C   UNL     1       0.998  10.557  21.355  0.00  0.00    +0.000 C 
BRANCH  21  25
ATOM     25  C   UNL     1       0.072  11.018  18.931  0.00  0.00    +0.000 C 
BRANCH  25  31
ATOM     26  C   UNL     1      -2.749  12.292  19.621  0.00  0.00    +0.000 C 
ATOM     27  N   UNL     1      -2.457  11.298  18.624  0.00  0.00    +0.000 N 
ATOM     28  C   UNL     1      -3.373  10.760  17.766  0.00  0.00    +0.000 A 
ATOM     29  N   UNL     1      -2.793   9.853  17.021  0.00  0.00    +0.000 NA
ATOM     30  N   UNL     1      -1.466   9.811  17.371  0.00  0.00    +0.000 NA
ATOM     31  C   UNL     1      -1.257  10.700  18.323  0.00  0.00    +0.000 A 
ENDBRANCH  25  31
ENDBRANCH  21  25
ENDBRANCH   1  21
TORSDOF 6
ENDMDL
MODEL 8
REMARK VINA RESULT:      -7.8      3.261      7.971
REMARK  Name = 
REMARK  7 active torsions:
REMARK  status: ('A' for Active; 'I' for Inactive)
REMARK    1  A    between atoms: C_1  and  N_2
REMARK    2  A    between atoms: C_6  and  C_7
REMARK    3  A    between atoms: C_7  and  C_8
REMARK    4  A    between atoms: C_8  and  C_9
REMARK    5  A    between atoms: C_13  and  N_14
REMARK    6  A    between atoms: C_17  and  C_18
REMARK    7  A    between atoms: C_18  and  C_19
REMARK                            x       y       z     vdW  Elec       q    Type
REMARK                         _______ _______ _______ _____ _____    ______ ____
ROOT
ATOM      1  C   UNL     1       2.130   5.549  19.207  0.00  0.00    +0.000 A 
ATOM      2  C   UNL     1       2.236   6.338  18.043  0.00  0.00    +0.000 A 
ATOM      3  C   UNL     1       2.265   7.727  18.100  0.00  0.00    +0.000 A 
ATOM      4  C   UNL     1       2.085   8.368  19.319  0.00  0.00    +0.000 A 
ATOM      5  C   UNL     1       1.716   7.620  20.444  0.00  0.00    +0.000 A 
ATOM      6  C   UNL     1       1.871   6.231  20.411  0.00  0.00    +0.000 A 
ENDROOT
BRANCH   5   7
ATOM      7  N   UNL     1       0.780   8.173  21.416  0.00  0.00    +0.000 N 
ATOM      8  C   UNL     1      -0.490   8.509  20.730  0.00  0.00    +0.000 C 
ATOM      9  C   UNL     1      -0.202   9.896  20.230  0.00  0.00    +0.000 A 
ATOM     10  C   UNL     1      -0.361  10.455  18.963  0.00  0.00    +0.000 A 
ATOM     11  C   UNL     1       0.312  11.670  18.729  0.00  0.00    +0.000 A 
ATOM     12  C   UNL     1       1.117  12.267  19.715  0.00  0.00    +0.000 A 
ATOM     13  F   UNL     1       1.825  13.358  19.395  0.00  0.00    +0.000 F 
ATOM     14  C   UNL     1       1.299  11.686  20.956  0.00  0.00    +0.000 A 
ATOM     15  C   UNL     1       0.652  10.486  21.174  0.00  0.00    +0.000 A 
ATOM     16  C   UNL     1       1.181   9.384  22.027  0.00  0.00    +0.000 C 
ATOM     17  O   UNL     1       1.992   9.543  22.925  0.00  0.00    +0.000 OA
BRANCH  10  18
ATOM     18  C   UNL     1      -0.994   9.707  17.810  0.00  0.00    +0.000 C 
BRANCH  18  19
ATOM     19  C   UNL     1      -2.404  10.161  17.467  0.00  0.00    +0.000 C 
ATOM     20  F   UNL     1      -3.266   9.129  17.680  0.00  0.00    +0.000 F 
ENDBRANCH  18  19
ENDBRANCH  10  18
ENDBRANCH   5   7
BRANCH   1  21
ATOM     21  C   UNL     1       2.290   3.960  19.144  0.00  0.00    +0.000 C 
ATOM     22  C   UNL     1       1.366   3.110  20.059  0.00  0.00    +0.000 C 
ATOM     23  O   UNL     1       0.818   2.385  18.943  0.00  0.00    +0.000 OA
ATOM     24  C   UNL     1       1.541   3.211  18.005  0.00  0.00    +0.000 C 
BRANCH  21  25
ATOM     25  C   UNL     1       3.774   3.593  19.353  0.00  0.00    +0.000 C 
BRANCH  25  31
ATOM     26  C   UNL     1       6.351   5.439  19.316  0.00  0.00    +0.000 C 
ATOM     27  N   UNL     1       5.790   4.697  18.221  0.00  0.00    +0.000 N 
ATOM     28  C   UNL     1       6.319   4.639  16.964  0.00  0.00    +0.000 A 
ATOM     29  N   UNL     1       5.542   3.919  16.194  0.00  0.00    +0.000 NA
ATOM     30  N   UNL     1       4.498   3.468  16.963  0.00  0.00    +0.000 NA
ATOM     31  C   UNL     1       4.658   3.917  18.192  0.00  0.00    +0.000 A 
ENDBRANCH  25  31
ENDBRANCH  21  25
ENDBRANCH   1  21
TORSDOF 6
ENDMDL
MODEL 9
REMARK VINA RESULT:      -7.8      1.142      1.395
REMARK  Name = 
REMARK  7 active torsions:
REMARK  status: ('A' for Active; 'I' for Inactive)
REMARK    1  A    between atoms: C_1  and  N_2
REMARK    2  A    between atoms: C_6  and  C_7
REMARK    3  A    between atoms: C_7  and  C_8
REMARK    4  A    between atoms: C_8  and  C_9
REMARK    5  A    between atoms: C_13  and  N_14
REMARK    6  A    between atoms: C_17  and  C_18
REMARK    7  A    between atoms: C_18  and  C_19
REMARK                            x       y       z     vdW  Elec       q    Type
REMARK                         _______ _______ _______ _____ _____    ______ ____
ROOT
ATOM      1  C   UNL     1       1.676   8.298  19.656  0.00  0.00    +0.000 A 
ATOM      2  C   UNL     1       2.198   8.883  18.485  0.00  0.00    +0.000 A 
ATOM      3  C   UNL     1       2.805   8.122  17.494  0.00  0.00    +0.000 A 
ATOM      4  C   UNL     1       2.999   6.761  17.695  0.00  0.00    +0.000 A 
ATOM      5  C   UNL     1       2.730   6.205  18.952  0.00  0.00    +0.000 A 
ATOM      6  C   UNL     1       1.960   6.934  19.862  0.00  0.00    +0.000 A 
ENDROOT
BRANCH   5   7
ATOM      7  N   UNL     1       3.586   5.150  19.483  0.00  0.00    +0.000 N 
ATOM      8  C   UNL     1       4.993   5.618  19.481  0.00  0.00    +0.000 C 
ATOM      9  C   UNL     1       5.425   5.257  18.089  0.00  0.00    +0.000 A 
ATOM     10  C   UNL     1       6.065   6.017  17.112  0.00  0.00    +0.000 A 
ATOM     11  C   UNL     1       6.030   5.504  15.800  0.00  0.00    +0.000 A 
ATOM     12  C   UNL     1       5.364   4.303  15.498  0.00  0.00    +0.000 A 
ATOM     13  F   UNL     1       5.264   3.927  14.216  0.00  0.00    +0.000 F 
ATOM     14  C   UNL     1       4.700   3.575  16.467  0.00  0.00    +0.000 A 
ATOM     15  C   UNL     1       4.721   4.092  17.747  0.00  0.00    +0.000 A 
ATOM     16  C   UNL     1       3.613   3.951  18.734  0.00  0.00    +0.000 C 
ATOM     17  O   UNL     1       2.776   3.064  18.699  0.00  0.00    +0.000 OA
BRANCH  10  18
ATOM     18  C   UNL     1       6.552   7.428  17.358  0.00  0.00    +0.000 C 
BRANCH  18  19
ATOM     19  C   UNL     1       7.916   7.514  18.023  0.00  0.00    +0.000 C 
ATOM     20  F   UNL     1       8.367   8.796  17.949  0.00  0.00    +0.000 F 
ENDBRANCH  18  19
ENDBRANCH  10  18
ENDBRANCH   5   7
BRANCH   1  21
ATOM     21  C   UNL     1       0.815   9.156  20.694  0.00  0.00    +0.000 C 
ATOM     22  C   UNL     1      -0.208   8.392  21.580  0.00  0.00    +0.000 C 
ATOM     23  O   UNL     1       0.403   8.855  22.798  0.00  0.00    +0.000 OA
ATOM     24  C   UNL     1       1.472   9.491  22.063  0.00  0.00    +0.000 C 
BRANCH  21  25
ATOM     25  C   UNL     1       0.140  10.325  19.946  0.00  0.00    +0.000 C 
BRANCH  25  31
ATOM     26  C   UNL     1      -1.185  12.174  22.155  0.00  0.00    +0.000 C 
ATOM     27  N   UNL     1       0.000  12.441  21.386  0.00  0.00    +0.000 N 
ATOM     28  C   UNL     1       0.785  13.549  21.519  0.00  0.00    +0.000 A 
ATOM     29  N   UNL     1       1.755  13.507  20.640  0.00  0.00    +0.000 NA
ATOM     30  N   UNL     1       1.626  12.336  19.934  0.00  0.00    +0.000 NA
ATOM     31  C   UNL     1       0.581  11.681  20.399  0.00  0.00    +0.000 A 
ENDBRANCH  25  31
ENDBRANCH  21  25
ENDBRANCH   1  21
TORSDOF 6
ENDMDL
