MODEL 1
REMARK VINA RESULT:      -9.1      0.000      0.000
REMARK  Name = 
REMARK  5 active torsions:
REMARK  status: ('A' for Active; 'I' for Inactive)
REMARK    1  A    between atoms: C_2  and  C_24
REMARK    2  A    between atoms: N_3  and  C_4
REMARK    3  A    between atoms: C_7  and  N_8
REMARK    4  A    between atoms: N_8  and  S_9
REMARK    5  A    between atoms: S_9  and  C_12
REMARK                            x       y       z     vdW  Elec       q    Type
REMARK                         _______ _______ _______ _____ _____    ______ ____
ROOT
ATOM      1  C   UNL     1       8.004   7.052  18.531  0.00  0.00    +0.000 A 
ATOM      2  C   UNL     1       7.388   7.057  17.278  0.00  0.00    +0.000 A 
ATOM      3  C   UNL     1       6.519   6.031  16.891  0.00  0.00    +0.000 A 
ATOM      4  C   UNL     1       6.245   4.978  17.757  0.00  0.00    +0.000 A 
ATOM      5  C   UNL     1       6.870   4.951  19.004  0.00  0.00    +0.000 A 
ATOM      6  C   UNL     1       7.762   5.970  19.382  0.00  0.00    +0.000 A 
ENDROOT
BRANCH   1   9
ATOM      7  O   UNL     1       7.790   9.869  17.904  0.00  0.00    +0.000 OA
ATOM      8  C   UNL     1       8.720   9.435  18.578  0.00  0.00    +0.000 C 
ATOM      9  N   UNL     1       8.854   8.100  18.964  0.00  0.00    +0.000 N 
ATOM     10  H   UNL     1       9.499   7.874  19.711  0.00  0.00    +0.000 HD
BRANCH   8  11
ATOM     11  C   UNL     1       9.816  10.379  19.102  0.00  0.00    +0.000 C 
ATOM     12  C   UNL     1       9.406  11.138  20.388  0.00  0.00    +0.000 C 
ATOM     13  C   UNL     1      10.471  12.150  20.823  0.00  0.00    +0.000 C 
ATOM     14  C   UNL     1      10.805  13.127  19.705  0.00  0.00    +0.000 C 
ATOM     15  C   UNL     1      11.246  12.386  18.450  0.00  0.00    +0.000 C 
ATOM     16  C   UNL     1      10.206  11.368  17.999  0.00  0.00    +0.000 C 
ENDBRANCH   8  11
ENDBRANCH   1   9
BRANCH   4  17
ATOM     17  N   UNL     1       5.342   3.928  17.408  0.00  0.00    +0.000 N 
ATOM     18  H   UNL     1       5.667   3.138  16.852  0.00  0.00    +0.000 HD
BRANCH  17  19
ATOM     19  S   UNL     1       3.939   3.679  18.324  0.00  0.00    +0.000 S 
ATOM     20  O   UNL     1       2.985   2.957  17.490  0.00  0.00    +0.000 OA
ATOM     21  O   UNL     1       4.311   3.188  19.618  0.00  0.00    +0.000 OA
BRANCH  19  22
ATOM     22  C   UNL     1       3.282   5.317  18.507  0.00  0.00    +0.000 A 
ATOM     23  C   UNL     1       3.348   6.243  17.463  0.00  0.00    +0.000 A 
ATOM     24  C   UNL     1       2.806   7.521  17.652  0.00  0.00    +0.000 A 
ATOM     25  C   UNL     1       2.202   7.858  18.867  0.00  0.00    +0.000 A 
ATOM     26  C   UNL     1       2.200   6.942  19.909  0.00  0.00    +0.000 A 
ATOM     27  C   UNL     1       2.738   5.672  19.738  0.00  0.00    +0.000 A 
ATOM     28  O   UNL     1       1.745   7.215  21.160  0.00  0.00    +0.000 OA
ATOM     29  C   UNL     1       0.801   8.269  21.188  0.00  0.00    +0.000 C 
ATOM     30  C   UNL     1       0.996   9.399  20.181  0.00  0.00    +0.000 C 
ATOM     31  O   UNL     1       1.653   9.101  18.954  0.00  0.00    +0.000 OA
ENDBRANCH  19  22
ENDBRANCH  17  19
ENDBRANCH   4  17
TORSDOF 5
ENDMDL
MODEL 2
REMARK VINA RESULT:      -9.1      0.772      1.689
REMARK  Name = 
REMARK  5 active torsions:
REMARK  status: ('A' for Active; 'I' for Inactive)
REMARK    1  A    between atoms: C_2  and  C_24
REMARK    2  A    between atoms: N_3  and  C_4
REMARK    3  A    between atoms: C_7  and  N_8
REMARK    4  A    between atoms: N_8  and  S_9
REMARK    5  A    between atoms: S_9  and  C_12
REMARK                            x       y       z     vdW  Elec       q    Type
REMARK                         _______ _______ _______ _____ _____    ______ ____
ROOT
ATOM      1  C   UNL     1       7.651   7.054  18.340  0.00  0.00    +0.000 A 
ATOM      2  C   UNL     1       7.440   5.852  19.019  0.00  0.00    +0.000 A 
ATOM      3  C   UNL     1       6.527   4.902  18.547  0.00  0.00    +0.000 A 
ATOM      4  C   UNL     1       5.808   5.136  17.380  0.00  0.00    +0.000 A 
ATOM      5  C   UNL     1       5.996   6.343  16.704  0.00  0.00    +0.000 A 
ATOM      6  C   UNL     1       6.896   7.307  17.193  0.00  0.00    +0.000 A 
ENDROOT
BRANCH   1   9
ATOM      7  O   UNL     1       7.652   9.900  17.813  0.00  0.00    +0.000 OA
ATOM      8  C   UNL     1       8.566   9.367  18.434  0.00  0.00    +0.000 C 
ATOM      9  N   UNL     1       8.601   8.013  18.772  0.00  0.00    +0.000 N 
ATOM     10  H   UNL     1       9.252   7.708  19.486  0.00  0.00    +0.000 HD
BRANCH   8  11
ATOM     11  C   UNL     1       9.756  10.197  18.945  0.00  0.00    +0.000 C 
ATOM     12  C   UNL     1       9.456  10.951  20.264  0.00  0.00    +0.000 C 
ATOM     13  C   UNL     1      10.618  11.855  20.688  0.00  0.00    +0.000 C 
ATOM     14  C   UNL     1      10.999  12.832  19.585  0.00  0.00    +0.000 C 
ATOM     15  C   UNL     1      11.333  12.093  18.297  0.00  0.00    +0.000 C 
ATOM     16  C   UNL     1      10.194  11.181  17.856  0.00  0.00    +0.000 C 
ENDBRANCH   8  11
ENDBRANCH   1   9
BRANCH   4  17
ATOM     17  N   UNL     1       4.889   4.179  16.854  0.00  0.00    +0.000 N 
ATOM     18  H   UNL     1       5.140   3.623  16.037  0.00  0.00    +0.000 HD
BRANCH  17  19
ATOM     19  S   UNL     1       3.659   3.557  17.838  0.00  0.00    +0.000 S 
ATOM     20  O   UNL     1       2.601   3.056  16.966  0.00  0.00    +0.000 OA
ATOM     21  O   UNL     1       4.246   2.722  18.843  0.00  0.00    +0.000 OA
BRANCH  19  22
ATOM     22  C   UNL     1       2.996   5.005  18.620  0.00  0.00    +0.000 A 
ATOM     23  C   UNL     1       2.757   5.038  19.995  0.00  0.00    +0.000 A 
ATOM     24  C   UNL     1       2.242   6.209  20.568  0.00  0.00    +0.000 A 
ATOM     25  C   UNL     1       1.980   7.328  19.772  0.00  0.00    +0.000 A 
ATOM     26  C   UNL     1       2.170   7.252  18.400  0.00  0.00    +0.000 A 
ATOM     27  C   UNL     1       2.676   6.096  17.816  0.00  0.00    +0.000 A 
ATOM     28  O   UNL     1       1.835   8.241  17.530  0.00  0.00    +0.000 OA
ATOM     29  C   UNL     1       1.794   9.520  18.136  0.00  0.00    +0.000 C 
ATOM     30  C   UNL     1       1.324   9.584  19.586  0.00  0.00    +0.000 C 
ATOM     31  O   UNL     1       1.531   8.443  20.412  0.00  0.00    +0.000 OA
ENDBRANCH  19  22
ENDBRANCH  17  19
ENDBRANCH   4  17
TORSDOF 5
ENDMDL
MODEL 3
REMARK VINA RESULT:      -8.7      4.309      7.557
REMARK  Name = 
REMARK  5 active torsions:
REMARK  status: ('A' for Active; 'I' for Inactive)
REMARK    1  A    between atoms: C_2  and  C_24
REMARK    2  A    between atoms: N_3  and  C_4
REMARK    3  A    between atoms: C_7  and  N_8
REMARK    4  A    between atoms: N_8  and  S_9
REMARK    5  A    between atoms: S_9  and  C_12
REMARK                            x       y       z     vdW  Elec       q    Type
REMARK                         _______ _______ _______ _____ _____    ______ ____
ROOT
ATOM      1  C   UNL     1       1.714   7.652  20.170  0.00  0.00    +0.000 A 
ATOM      2  C   UNL     1       1.415   6.387  20.682  0.00  0.00    +0.000 A 
ATOM      3  C   UNL     1       1.717   5.224  19.965  0.00  0.00    +0.000 A 
ATOM      4  C   UNL     1       2.329   5.304  18.719  0.00  0.00    +0.000 A 
ATOM      5  C   UNL     1       2.614   6.563  18.189  0.00  0.00    +0.000 A 
ATOM      6  C   UNL     1       2.288   7.732  18.900  0.00  0.00    +0.000 A 
ENDROOT
BRANCH   1   9
ATOM      7  O   UNL     1      -0.278   9.672  19.600  0.00  0.00    +0.000 OA
ATOM      8  C   UNL     1       0.513   9.802  20.529  0.00  0.00    +0.000 C 
ATOM      9  N   UNL     1       1.459   8.843  20.894  0.00  0.00    +0.000 N 
ATOM     10  H   UNL     1       1.895   8.914  21.806  0.00  0.00    +0.000 HD
BRANCH   8  11
ATOM     11  C   UNL     1       0.480  11.057  21.418  0.00  0.00    +0.000 C 
ATOM     12  C   UNL     1      -0.908  11.321  22.053  0.00  0.00    +0.000 C 
ATOM     13  C   UNL     1      -0.940  12.634  22.841  0.00  0.00    +0.000 C 
ATOM     14  C   UNL     1      -0.508  13.814  21.981  0.00  0.00    +0.000 C 
ATOM     15  C   UNL     1       0.873  13.576  21.387  0.00  0.00    +0.000 C 
ATOM     16  C   UNL     1       0.934  12.271  20.602  0.00  0.00    +0.000 C 
ENDBRANCH   8  11
ENDBRANCH   1   9
BRANCH   4  17
ATOM     17  N   UNL     1       2.677   4.138  17.971  0.00  0.00    +0.000 N 
ATOM     18  H   UNL     1       2.262   3.976  17.055  0.00  0.00    +0.000 HD
BRANCH  17  19
ATOM     19  S   UNL     1       4.127   3.325  18.297  0.00  0.00    +0.000 S 
ATOM     20  O   UNL     1       4.611   3.780  19.596  0.00  0.00    +0.000 OA
ATOM     21  O   UNL     1       3.949   1.931  18.021  0.00  0.00    +0.000 OA
BRANCH  19  22
ATOM     22  C   UNL     1       5.246   4.002  17.099  0.00  0.00    +0.000 A 
ATOM     23  C   UNL     1       6.276   4.865  17.478  0.00  0.00    +0.000 A 
ATOM     24  C   UNL     1       7.140   5.366  16.496  0.00  0.00    +0.000 A 
ATOM     25  C   UNL     1       6.976   4.999  15.158  0.00  0.00    +0.000 A 
ATOM     26  C   UNL     1       5.911   4.187  14.796  0.00  0.00    +0.000 A 
ATOM     27  C   UNL     1       5.042   3.686  15.758  0.00  0.00    +0.000 A 
ATOM     28  O   UNL     1       5.598   3.871  13.511  0.00  0.00    +0.000 OA
ATOM     29  C   UNL     1       6.704   3.962  12.634  0.00  0.00    +0.000 C 
ATOM     30  C   UNL     1       7.731   5.053  12.925  0.00  0.00    +0.000 C 
ATOM     31  O   UNL     1       7.888   5.486  14.272  0.00  0.00    +0.000 OA
ENDBRANCH  19  22
ENDBRANCH  17  19
ENDBRANCH   4  17
TORSDOF 5
ENDMDL
MODEL 4
REMARK VINA RESULT:      -8.6      0.935      2.034
REMARK  Name = 
REMARK  5 active torsions:
REMARK  status: ('A' for Active; 'I' for Inactive)
REMARK    1  A    between atoms: C_2  and  C_24
REMARK    2  A    between atoms: N_3  and  C_4
REMARK    3  A    between atoms: C_7  and  N_8
REMARK    4  A    between atoms: N_8  and  S_9
REMARK    5  A    between atoms: S_9  and  C_12
REMARK                            x       y       z     vdW  Elec       q    Type
REMARK                         _______ _______ _______ _____ _____    ______ ____
ROOT
ATOM      1  C   UNL     1       8.002   7.625  18.406  0.00  0.00    +0.000 A 
ATOM      2  C   UNL     1       8.051   6.459  19.172  0.00  0.00    +0.000 A 
ATOM      3  C   UNL     1       7.298   5.331  18.826  0.00  0.00    +0.000 A 
ATOM      4  C   UNL     1       6.482   5.348  17.701  0.00  0.00    +0.000 A 
ATOM      5  C   UNL     1       6.409   6.515  16.938  0.00  0.00    +0.000 A 
ATOM      6  C   UNL     1       7.148   7.656  17.301  0.00  0.00    +0.000 A 
ENDROOT
BRANCH   1   9
ATOM      7  O   UNL     1       7.524  10.363  17.600  0.00  0.00    +0.000 OA
ATOM      8  C   UNL     1       8.524  10.054  18.240  0.00  0.00    +0.000 C 
ATOM      9  N   UNL     1       8.788   8.765  18.709  0.00  0.00    +0.000 N 
ATOM     10  H   UNL     1       9.492   8.645  19.427  0.00  0.00    +0.000 HD
BRANCH   8  11
ATOM     11  C   UNL     1       9.569  11.114  18.626  0.00  0.00    +0.000 C 
ATOM     12  C   UNL     1      10.815  11.109  17.706  0.00  0.00    +0.000 C 
ATOM     13  C   UNL     1      11.885  12.097  18.180  0.00  0.00    +0.000 C 
ATOM     14  C   UNL     1      12.283  11.841  19.627  0.00  0.00    +0.000 C 
ATOM     15  C   UNL     1      11.067  11.884  20.540  0.00  0.00    +0.000 C 
ATOM     16  C   UNL     1       9.983  10.912  20.086  0.00  0.00    +0.000 C 
ENDBRANCH   8  11
ENDBRANCH   1   9
BRANCH   4  17
ATOM     17  N   UNL     1       5.721   4.208  17.301  0.00  0.00    +0.000 N 
ATOM     18  H   UNL     1       6.060   3.601  16.556  0.00  0.00    +0.000 HD
BRANCH  17  19
ATOM     19  S   UNL     1       4.587   3.533  18.363  0.00  0.00    +0.000 S 
ATOM     20  O   UNL     1       3.679   2.703  17.578  0.00  0.00    +0.000 OA
ATOM     21  O   UNL     1       5.276   3.002  19.502  0.00  0.00    +0.000 OA
BRANCH  19  22
ATOM     22  C   UNL     1       3.634   4.937  18.881  0.00  0.00    +0.000 A 
ATOM     23  C   UNL     1       3.119   5.022  20.177  0.00  0.00    +0.000 A 
ATOM     24  C   UNL     1       2.380   6.155  20.541  0.00  0.00    +0.000 A 
ATOM     25  C   UNL     1       2.170   7.187  19.622  0.00  0.00    +0.000 A 
ATOM     26  C   UNL     1       2.642   7.054  18.323  0.00  0.00    +0.000 A 
ATOM     27  C   UNL     1       3.372   5.934  17.945  0.00  0.00    +0.000 A 
ATOM     28  O   UNL     1       2.389   7.945  17.328  0.00  0.00    +0.000 OA
ATOM     29  C   UNL     1       2.094   9.243  17.809  0.00  0.00    +0.000 C 
ATOM     30  C   UNL     1       1.337   9.336  19.130  0.00  0.00    +0.000 C 
ATOM     31  O   UNL     1       1.488   8.278  20.069  0.00  0.00    +0.000 OA
ENDBRANCH  19  22
ENDBRANCH  17  19
ENDBRANCH   4  17
TORSDOF 5
ENDMDL
MODEL 5
REMARK VINA RESULT:      -8.6      5.364      8.620
REMARK  Name = 
REMARK  5 active torsions:
REMARK  status: ('A' for Active; 'I' for Inactive)
REMARK    1  A    between atoms: C_2  and  C_24
REMARK    2  A    between atoms: N_3  and  C_4
REMARK    3  A    between atoms: C_7  and  N_8
REMARK    4  A    between atoms: N_8  and  S_9
REMARK    5  A    between atoms: S_9  and  C_12
REMARK                            x       y       z     vdW  Elec       q    Type
REMARK                         _______ _______ _______ _____ _____    ______ ____
ROOT
ATOM      1  C   UNL     1       2.188   8.358  18.625  0.00  0.00    +0.000 A 
ATOM      2  C   UNL     1       1.970   7.982  19.952  0.00  0.00    +0.000 A 
ATOM      3  C   UNL     1       0.989   8.604  20.732  0.00  0.00    +0.000 A 
ATOM      4  C   UNL     1       0.201   9.616  20.195  0.00  0.00    +0.000 A 
ATOM      5  C   UNL     1       0.423  10.015  18.876  0.00  0.00    +0.000 A 
ATOM      6  C   UNL     1       1.426   9.405  18.101  0.00  0.00    +0.000 A 
ENDROOT
BRANCH   1   9
ATOM      7  O   UNL     1       2.715   5.519  18.419  0.00  0.00    +0.000 OA
ATOM      8  C   UNL     1       3.380   6.338  17.792  0.00  0.00    +0.000 C 
ATOM      9  N   UNL     1       3.144   7.714  17.801  0.00  0.00    +0.000 N 
ATOM     10  H   UNL     1       3.569   8.283  17.079  0.00  0.00    +0.000 HD
BRANCH   8  11
ATOM     11  C   UNL     1       4.533   5.880  16.882  0.00  0.00    +0.000 C 
ATOM     12  C   UNL     1       4.587   4.344  16.690  0.00  0.00    +0.000 C 
ATOM     13  C   UNL     1       5.807   3.910  15.872  0.00  0.00    +0.000 C 
ATOM     14  C   UNL     1       7.104   4.422  16.483  0.00  0.00    +0.000 C 
ATOM     15  C   UNL     1       7.070   5.936  16.638  0.00  0.00    +0.000 C 
ATOM     16  C   UNL     1       5.861   6.395  17.444  0.00  0.00    +0.000 C 
ENDBRANCH   8  11
ENDBRANCH   1   9
BRANCH   4  17
ATOM     17  N   UNL     1      -0.828  10.255  20.951  0.00  0.00    +0.000 N 
ATOM     18  H   UNL     1      -1.755   9.836  21.011  0.00  0.00    +0.000 HD
BRANCH  17  19
ATOM     19  S   UNL     1      -0.421  11.359  22.170  0.00  0.00    +0.000 S 
ATOM     20  O   UNL     1      -0.311  10.619  23.423  0.00  0.00    +0.000 OA
ATOM     21  O   UNL     1       0.649  12.190  21.705  0.00  0.00    +0.000 OA
BRANCH  19  22
ATOM     22  C   UNL     1      -1.885  12.351  22.321  0.00  0.00    +0.000 A 
ATOM     23  C   UNL     1      -2.056  13.507  21.555  0.00  0.00    +0.000 A 
ATOM     24  C   UNL     1      -3.233  14.252  21.703  0.00  0.00    +0.000 A 
ATOM     25  C   UNL     1      -4.222  13.838  22.599  0.00  0.00    +0.000 A 
ATOM     26  C   UNL     1      -4.005  12.719  23.391  0.00  0.00    +0.000 A 
ATOM     27  C   UNL     1      -2.840  11.973  23.260  0.00  0.00    +0.000 A 
ATOM     28  O   UNL     1      -4.851  12.306  24.371  0.00  0.00    +0.000 OA
ATOM     29  C   UNL     1      -6.182  12.744  24.174  0.00  0.00    +0.000 C 
ATOM     30  C   UNL     1      -6.372  14.113  23.526  0.00  0.00    +0.000 C 
ATOM     31  O   UNL     1      -5.359  14.587  22.646  0.00  0.00    +0.000 OA
ENDBRANCH  19  22
ENDBRANCH  17  19
ENDBRANCH   4  17
TORSDOF 5
ENDMDL
MODEL 6
REMARK VINA RESULT:      -8.6      5.178      8.431
REMARK  Name = 
REMARK  5 active torsions:
REMARK  status: ('A' for Active; 'I' for Inactive)
REMARK    1  A    between atoms: C_2  and  C_24
REMARK    2  A    between atoms: N_3  and  C_4
REMARK    3  A    between atoms: C_7  and  N_8
REMARK    4  A    between atoms: N_8  and  S_9
REMARK    5  A    between atoms: S_9  and  C_12
REMARK                            x       y       z     vdW  Elec       q    Type
REMARK                         _______ _______ _______ _____ _____    ______ ____
ROOT
ATOM      1  C   UNL     1       2.454   7.936  18.804  0.00  0.00    +0.000 A 
ATOM      2  C   UNL     1       1.799   8.959  18.115  0.00  0.00    +0.000 A 
ATOM      3  C   UNL     1       0.776   9.701  18.716  0.00  0.00    +0.000 A 
ATOM      4  C   UNL     1       0.390   9.435  20.025  0.00  0.00    +0.000 A 
ATOM      5  C   UNL     1       1.023   8.401  20.717  0.00  0.00    +0.000 A 
ATOM      6  C   UNL     1       2.034   7.641  20.103  0.00  0.00    +0.000 A 
ENDROOT
BRANCH   1   9
ATOM      7  O   UNL     1       2.435   5.169  17.956  0.00  0.00    +0.000 OA
ATOM      8  C   UNL     1       3.456   5.846  17.896  0.00  0.00    +0.000 C 
ATOM      9  N   UNL     1       3.522   7.199  18.234  0.00  0.00    +0.000 N 
ATOM     10  H   UNL     1       4.323   7.738  17.927  0.00  0.00    +0.000 HD
BRANCH   8  11
ATOM     11  C   UNL     1       4.771   5.240  17.378  0.00  0.00    +0.000 C 
ATOM     12  C   UNL     1       5.849   6.303  17.050  0.00  0.00    +0.000 C 
ATOM     13  C   UNL     1       7.104   5.679  16.433  0.00  0.00    +0.000 C 
ATOM     14  C   UNL     1       6.770   4.853  15.198  0.00  0.00    +0.000 C 
ATOM     15  C   UNL     1       5.740   3.781  15.525  0.00  0.00    +0.000 C 
ATOM     16  C   UNL     1       4.482   4.375  16.147  0.00  0.00    +0.000 C 
ENDBRANCH   8  11
ENDBRANCH   1   9
BRANCH   4  17
ATOM     17  N   UNL     1      -0.631  10.189  20.680  0.00  0.00    +0.000 N 
ATOM     18  H   UNL     1      -1.598   9.871  20.654  0.00  0.00    +0.000 HD
BRANCH  17  19
ATOM     19  S   UNL     1      -0.222  11.259  21.928  0.00  0.00    +0.000 S 
ATOM     20  O   UNL     1      -0.093  10.483  23.156  0.00  0.00    +0.000 OA
ATOM     21  O   UNL     1       0.835  12.114  21.478  0.00  0.00    +0.000 OA
BRANCH  19  22
ATOM     22  C   UNL     1      -1.693  12.232  22.122  0.00  0.00    +0.000 A 
ATOM     23  C   UNL     1      -1.946  13.332  21.300  0.00  0.00    +0.000 A 
ATOM     24  C   UNL     1      -3.126  14.064  21.486  0.00  0.00    +0.000 A 
ATOM     25  C   UNL     1      -4.039  13.690  22.477  0.00  0.00    +0.000 A 
ATOM     26  C   UNL     1      -3.739  12.630  23.320  0.00  0.00    +0.000 A 
ATOM     27  C   UNL     1      -2.570  11.898  23.151  0.00  0.00    +0.000 A 
ATOM     28  O   UNL     1      -4.502  12.265  24.384  0.00  0.00    +0.000 OA
ATOM     29  C   UNL     1      -5.854  12.665  24.258  0.00  0.00    +0.000 C 
ATOM     30  C   UNL     1      -6.122  13.984  23.540  0.00  0.00    +0.000 C 
ATOM     31  O   UNL     1      -5.186  14.420  22.560  0.00  0.00    +0.000 OA
ENDBRANCH  19  22
ENDBRANCH  17  19
ENDBRANCH   4  17
TORSDOF 5
ENDMDL
MODEL 7
REMARK VINA RESULT:      -8.5      4.139      7.456
REMARK  Name = 
REMARK  5 active torsions:
REMARK  status: ('A' for Active; 'I' for Inactive)
REMARK    1  A    between atoms: C_2  and  C_24
REMARK    2  A    between atoms: N_3  and  C_4
REMARK    3  A    between atoms: C_7  and  N_8
REMARK    4  A    between atoms: N_8  and  S_9
REMARK    5  A    between atoms: S_9  and  C_12
REMARK                            x       y       z     vdW  Elec       q    Type
REMARK                         _______ _______ _______ _____ _____    ______ ____
ROOT
ATOM      1  C   UNL     1       1.625   8.805  19.403  0.00  0.00    +0.000 A 
ATOM      2  C   UNL     1       2.168   8.507  18.151  0.00  0.00    +0.000 A 
ATOM      3  C   UNL     1       2.598   7.214  17.835  0.00  0.00    +0.000 A 
ATOM      4  C   UNL     1       2.488   6.188  18.768  0.00  0.00    +0.000 A 
ATOM      5  C   UNL     1       1.965   6.478  20.029  0.00  0.00    +0.000 A 
ATOM      6  C   UNL     1       1.556   7.784  20.353  0.00  0.00    +0.000 A 
ENDROOT
BRANCH   1   9
ATOM      7  O   UNL     1      -0.840  10.044  18.528  0.00  0.00    +0.000 OA
ATOM      8  C   UNL     1      -0.036  10.651  19.229  0.00  0.00    +0.000 C 
ATOM      9  N   UNL     1       1.142  10.096  19.732  0.00  0.00    +0.000 N 
ATOM     10  H   UNL     1       1.616  10.571  20.491  0.00  0.00    +0.000 HD
BRANCH   8  11
ATOM     11  C   UNL     1      -0.308  12.103  19.657  0.00  0.00    +0.000 C 
ATOM     12  C   UNL     1       0.044  13.140  18.562  0.00  0.00    +0.000 C 
ATOM     13  C   UNL     1      -0.131  14.580  19.055  0.00  0.00    +0.000 C 
ATOM     14  C   UNL     1       0.674  14.841  20.321  0.00  0.00    +0.000 C 
ATOM     15  C   UNL     1       0.303  13.848  21.413  0.00  0.00    +0.000 C 
ATOM     16  C   UNL     1       0.462  12.406  20.946  0.00  0.00    +0.000 C 
ENDBRANCH   8  11
ENDBRANCH   1   9
BRANCH   4  17
ATOM     17  N   UNL     1       2.890   4.850  18.472  0.00  0.00    +0.000 N 
ATOM     18  H   UNL     1       2.427   4.330  17.729  0.00  0.00    +0.000 HD
BRANCH  17  19
ATOM     19  S   UNL     1       4.431   4.311  18.922  0.00  0.00    +0.000 S 
ATOM     20  O   UNL     1       4.918   5.187  19.983  0.00  0.00    +0.000 OA
ATOM     21  O   UNL     1       4.392   2.889  19.096  0.00  0.00    +0.000 OA
BRANCH  19  22
ATOM     22  C   UNL     1       5.420   4.680  17.496  0.00  0.00    +0.000 A 
ATOM     23  C   UNL     1       6.529   5.525  17.585  0.00  0.00    +0.000 A 
ATOM     24  C   UNL     1       7.284   5.779  16.433  0.00  0.00    +0.000 A 
ATOM     25  C   UNL     1       6.934   5.187  15.215  0.00  0.00    +0.000 A 
ATOM     26  C   UNL     1       5.795   4.398  15.139  0.00  0.00    +0.000 A 
ATOM     27  C   UNL     1       5.033   4.142  16.272  0.00  0.00    +0.000 A 
ATOM     28  O   UNL     1       5.308   3.877  13.982  0.00  0.00    +0.000 OA
ATOM     29  C   UNL     1       6.297   3.732  12.981  0.00  0.00    +0.000 C 
ATOM     30  C   UNL     1       7.402   4.784  12.940  0.00  0.00    +0.000 C 
ATOM     31  O   UNL     1       7.749   5.442  14.154  0.00  0.00    +0.000 OA
ENDBRANCH  19  22
ENDBRANCH  17  19
ENDBRANCH   4  17
TORSDOF 5
ENDMDL
MODEL 8
REMARK VINA RESULT:      -8.4      1.241      2.094
REMARK  Name = 
REMARK  5 active torsions:
REMARK  status: ('A' for Active; 'I' for Inactive)
REMARK    1  A    between atoms: C_2  and  C_24
REMARK    2  A    between atoms: N_3  and  C_4
REMARK    3  A    between atoms: C_7  and  N_8
REMARK    4  A    between atoms: N_8  and  S_9
REMARK    5  A    between atoms: S_9  and  C_12
REMARK                            x       y       z     vdW  Elec       q    Type
REMARK                         _______ _______ _______ _____ _____    ______ ____
ROOT
ATOM      1  C   UNL     1       7.822   7.821  17.840  0.00  0.00    +0.000 A 
ATOM      2  C   UNL     1       8.238   6.998  18.888  0.00  0.00    +0.000 A 
ATOM      3  C   UNL     1       7.618   5.769  19.137  0.00  0.00    +0.000 A 
ATOM      4  C   UNL     1       6.568   5.336  18.335  0.00  0.00    +0.000 A 
ATOM      5  C   UNL     1       6.130   6.158  17.296  0.00  0.00    +0.000 A 
ATOM      6  C   UNL     1       6.738   7.405  17.063  0.00  0.00    +0.000 A 
ENDROOT
BRANCH   1   9
ATOM      7  O   UNL     1       9.033   9.680  19.698  0.00  0.00    +0.000 OA
ATOM      8  C   UNL     1       8.979   9.925  18.496  0.00  0.00    +0.000 C 
ATOM      9  N   UNL     1       8.461   9.050  17.539  0.00  0.00    +0.000 N 
ATOM     10  H   UNL     1       8.676   9.216  16.564  0.00  0.00    +0.000 HD
BRANCH   8  11
ATOM     11  C   UNL     1       9.544  11.242  17.937  0.00  0.00    +0.000 C 
ATOM     12  C   UNL     1      11.023  11.487  18.326  0.00  0.00    +0.000 C 
ATOM     13  C   UNL     1      11.524  12.854  17.851  0.00  0.00    +0.000 C 
ATOM     14  C   UNL     1      10.639  13.984  18.360  0.00  0.00    +0.000 C 
ATOM     15  C   UNL     1       9.190  13.766  17.946  0.00  0.00    +0.000 C 
ATOM     16  C   UNL     1       8.669  12.409  18.402  0.00  0.00    +0.000 C 
ENDBRANCH   8  11
ENDBRANCH   1   9
BRANCH   4  17
ATOM     17  N   UNL     1       5.929   4.075  18.541  0.00  0.00    +0.000 N 
ATOM     18  H   UNL     1       6.246   3.457  19.286  0.00  0.00    +0.000 HD
BRANCH  17  19
ATOM     19  S   UNL     1       4.355   3.820  17.969  0.00  0.00    +0.000 S 
ATOM     20  O   UNL     1       4.351   4.099  16.537  0.00  0.00    +0.000 OA
ATOM     21  O   UNL     1       3.872   2.573  18.482  0.00  0.00    +0.000 OA
BRANCH  19  22
ATOM     22  C   UNL     1       3.435   5.137  18.722  0.00  0.00    +0.000 A 
ATOM     23  C   UNL     1       3.066   5.083  20.068  0.00  0.00    +0.000 A 
ATOM     24  C   UNL     1       2.347   6.152  20.620  0.00  0.00    +0.000 A 
ATOM     25  C   UNL     1       2.013   7.258  19.833  0.00  0.00    +0.000 A 
ATOM     26  C   UNL     1       2.339   7.263  18.484  0.00  0.00    +0.000 A 
ATOM     27  C   UNL     1       3.047   6.208  17.921  0.00  0.00    +0.000 A 
ATOM     28  O   UNL     1       1.956   8.234  17.613  0.00  0.00    +0.000 OA
ATOM     29  C   UNL     1       1.688   9.471  18.247  0.00  0.00    +0.000 C 
ATOM     30  C   UNL     1       1.081   9.415  19.646  0.00  0.00    +0.000 C 
ATOM     31  O   UNL     1       1.360   8.278  20.456  0.00  0.00    +0.000 OA
ENDBRANCH  19  22
ENDBRANCH  17  19
ENDBRANCH   4  17
TORSDOF 5
ENDMDL
MODEL 9
REMARK VINA RESULT:      -8.4      4.120      7.957
REMARK  Name = 
REMARK  5 active torsions:
REMARK  status: ('A' for Active; 'I' for Inactive)
REMARK    1  A    between atoms: C_2  and  C_24
REMARK    2  A    between atoms: N_3  and  C_4
REMARK    3  A    between atoms: C_7  and  N_8
REMARK    4  A    between atoms: N_8  and  S_9
REMARK    5  A    between atoms: S_9  and  C_12
REMARK                            x       y       z     vdW  Elec       q    Type
REMARK                         _______ _______ _______ _____ _____    ______ ____
ROOT
ATOM      1  C   UNL     1       1.399   8.365  20.111  0.00  0.00    +0.000 A 
ATOM      2  C   UNL     1       1.318   7.188  20.859  0.00  0.00    +0.000 A 
ATOM      3  C   UNL     1       1.839   5.983  20.376  0.00  0.00    +0.000 A 
ATOM      4  C   UNL     1       2.459   5.933  19.132  0.00  0.00    +0.000 A 
ATOM      5  C   UNL     1       2.530   7.099  18.367  0.00  0.00    +0.000 A 
ATOM      6  C   UNL     1       1.983   8.303  18.844  0.00  0.00    +0.000 A 
ENDROOT
BRANCH   1   9
ATOM      7  O   UNL     1      -0.801   9.932  19.072  0.00  0.00    +0.000 OA
ATOM      8  C   UNL     1      -0.119  10.334  20.010  0.00  0.00    +0.000 C 
ATOM      9  N   UNL     1       0.918   9.606  20.596  0.00  0.00    +0.000 N 
ATOM     10  H   UNL     1       1.260   9.895  21.505  0.00  0.00    +0.000 HD
BRANCH   8  11
ATOM     11  C   UNL     1      -0.405  11.700  20.659  0.00  0.00    +0.000 C 
ATOM     12  C   UNL     1      -0.517  11.632  22.202  0.00  0.00    +0.000 C 
ATOM     13  C   UNL     1      -0.911  12.982  22.810  0.00  0.00    +0.000 C 
ATOM     14  C   UNL     1      -2.199  13.517  22.200  0.00  0.00    +0.000 C 
ATOM     15  C   UNL     1      -2.080  13.621  20.686  0.00  0.00    +0.000 C 
ATOM     16  C   UNL     1      -1.682  12.292  20.056  0.00  0.00    +0.000 C 
ENDBRANCH   8  11
ENDBRANCH   1   9
BRANCH   4  17
ATOM     17  N   UNL     1       3.029   4.728  18.618  0.00  0.00    +0.000 N 
ATOM     18  H   UNL     1       2.652   4.305  17.772  0.00  0.00    +0.000 HD
BRANCH  17  19
ATOM     19  S   UNL     1       4.611   4.295  19.037  0.00  0.00    +0.000 S 
ATOM     20  O   UNL     1       5.076   5.231  20.055  0.00  0.00    +0.000 OA
ATOM     21  O   UNL     1       4.663   2.880  19.255  0.00  0.00    +0.000 OA
BRANCH  19  22
ATOM     22  C   UNL     1       5.535   4.675  17.570  0.00  0.00    +0.000 A 
ATOM     23  C   UNL     1       6.634   5.536  17.612  0.00  0.00    +0.000 A 
ATOM     24  C   UNL     1       7.337   5.798  16.429  0.00  0.00    +0.000 A 
ATOM     25  C   UNL     1       6.946   5.200  15.228  0.00  0.00    +0.000 A 
ATOM     26  C   UNL     1       5.816   4.395  15.199  0.00  0.00    +0.000 A 
ATOM     27  C   UNL     1       5.104   4.130  16.364  0.00  0.00    +0.000 A 
ATOM     28  O   UNL     1       5.288   3.866  14.064  0.00  0.00    +0.000 OA
ATOM     29  C   UNL     1       6.236   3.732  13.023  0.00  0.00    +0.000 C 
ATOM     30  C   UNL     1       7.324   4.800  12.936  0.00  0.00    +0.000 C 
ATOM     31  O   UNL     1       7.712   5.464  14.133  0.00  0.00    +0.000 OA
ENDBRANCH  19  22
ENDBRANCH  17  19
ENDBRANCH   4  17
TORSDOF 5
ENDMDL
