MODEL 1
REMARK VINA RESULT:      -8.4      0.000      0.000
REMARK  Name = 
REMARK  7 active torsions:
REMARK  status: ('A' for Active; 'I' for Inactive)
REMARK    1  A    between atoms: C_1  and  N_2
REMARK    2  A    between atoms: N_2  and  C_3
REMARK    3  A    between atoms: C_3  and  C_4
REMARK    4  A    between atoms: C_7  and  C_8
REMARK    5  A    between atoms: N_10  and  C_11
REMARK    6  A    between atoms: C_16  and  C_18
REMARK    7  A    between atoms: C_18  and  C_19
REMARK                            x       y       z     vdW  Elec       q    Type
REMARK                         _______ _______ _______ _____ _____    ______ ____
ROOT
ATOM      1  C   UNL     1       2.293   4.514  18.508  0.00  0.00    +0.000 C 
ATOM      2  N   UNL     1       3.370   5.107  17.733  0.00  0.00    +0.000 N 
ATOM      3  C   UNL     1       4.254   4.194  17.134  0.00  0.00    +0.000 C 
ATOM      4  O   UNL     1       4.028   2.974  17.228  0.00  0.00    +0.000 OA
ENDROOT
BRANCH   3   5
ATOM      5  C   UNL     1       5.507   4.717  16.318  0.00  0.00    +0.000 C 
ATOM      6  C   UNL     1       5.114   5.412  14.955  0.00  0.00    +0.000 C 
ATOM      7  C   UNL     1       6.292   4.689  14.290  0.00  0.00    +0.000 C 
ATOM      8  C   UNL     1       6.213   3.642  15.409  0.00  0.00    +0.000 C 
BRANCH   5   9
ATOM      9  C   UNL     1       6.395   5.621  17.341  0.00  0.00    +0.000 A 
ATOM     10  C   UNL     1       6.844   5.101  18.580  0.00  0.00    +0.000 A 
ATOM     11  C   UNL     1       7.776   5.760  19.384  0.00  0.00    +0.000 A 
ATOM     12  C   UNL     1       8.270   7.000  18.989  0.00  0.00    +0.000 A 
ATOM     13  C   UNL     1       7.782   7.574  17.827  0.00  0.00    +0.000 A 
ATOM     14  F   UNL     1       8.255   8.764  17.436  0.00  0.00    +0.000 F 
ATOM     15  C   UNL     1       6.848   6.917  17.026  0.00  0.00    +0.000 A 
ENDBRANCH   5   9
ENDBRANCH   3   5
BRANCH   2  16
ATOM     16  C   UNL     1       3.410   6.558  17.496  0.00  0.00    +0.000 C 
BRANCH  16  17
ATOM     17  C   UNL     1       2.527   7.431  18.366  0.00  0.00    +0.000 A 
ATOM     18  C   UNL     1       2.403   7.197  19.742  0.00  0.00    +0.000 A 
ATOM     19  C   UNL     1       1.678   8.058  20.566  0.00  0.00    +0.000 A 
ATOM     20  C   UNL     1       1.079   9.200  20.033  0.00  0.00    +0.000 A 
ATOM     21  C   UNL     1       1.189   9.448  18.659  0.00  0.00    +0.000 A 
ATOM     22  C   UNL     1       1.899   8.566  17.830  0.00  0.00    +0.000 A 
BRANCH  20  23
ATOM     23  C   UNL     1       0.388  10.203  20.899  0.00  0.00    +0.000 C 
ATOM     24  O   UNL     1       0.648  10.257  22.091  0.00  0.00    +0.000 OA
ATOM     25  N   UNL     1      -0.526  11.033  20.263  0.00  0.00    +0.000 N 
ATOM     26  H   UNL     1      -0.650  10.965  19.262  0.00  0.00    +0.000 HD
BRANCH  25  27
ATOM     27  C   UNL     1      -1.304  12.005  20.964  0.00  0.00    +0.000 C 
ATOM     28  C   UNL     1      -1.812  13.223  20.236  0.00  0.00    +0.000 C 
ATOM     29  C   UNL     1      -0.756  13.370  21.290  0.00  0.00    +0.000 C 
ENDBRANCH  25  27
ENDBRANCH  20  23
ENDBRANCH  16  17
ENDBRANCH   2  16
TORSDOF 6
ENDMDL
MODEL 2
REMARK VINA RESULT:      -8.3      3.638      6.904
REMARK  Name = 
REMARK  7 active torsions:
REMARK  status: ('A' for Active; 'I' for Inactive)
REMARK    1  A    between atoms: C_1  and  N_2
REMARK    2  A    between atoms: N_2  and  C_3
REMARK    3  A    between atoms: C_3  and  C_4
REMARK    4  A    between atoms: C_7  and  C_8
REMARK    5  A    between atoms: N_10  and  C_11
REMARK    6  A    between atoms: C_16  and  C_18
REMARK    7  A    between atoms: C_18  and  C_19
REMARK                            x       y       z     vdW  Elec       q    Type
REMARK                         _______ _______ _______ _____ _____    ______ ____
ROOT
ATOM      1  C   UNL     1       5.700   4.103  15.676  0.00  0.00    +0.000 C 
ATOM      2  N   UNL     1       5.239   4.232  17.049  0.00  0.00    +0.000 N 
ATOM      3  C   UNL     1       3.903   3.862  17.272  0.00  0.00    +0.000 C 
ATOM      4  O   UNL     1       3.237   3.385  16.336  0.00  0.00    +0.000 OA
ENDROOT
BRANCH   3   5
ATOM      5  C   UNL     1       3.263   4.020  18.713  0.00  0.00    +0.000 C 
ATOM      6  C   UNL     1       4.132   3.358  19.853  0.00  0.00    +0.000 C 
ATOM      7  C   UNL     1       2.837   2.820  20.476  0.00  0.00    +0.000 C 
ATOM      8  C   UNL     1       2.185   2.936  19.092  0.00  0.00    +0.000 C 
BRANCH   5   9
ATOM      9  C   UNL     1       2.925   5.601  18.911  0.00  0.00    +0.000 A 
ATOM     10  C   UNL     1       2.986   6.506  17.823  0.00  0.00    +0.000 A 
ATOM     11  C   UNL     1       2.503   7.815  17.900  0.00  0.00    +0.000 A 
ATOM     12  C   UNL     1       1.970   8.281  19.098  0.00  0.00    +0.000 A 
ATOM     13  C   UNL     1       1.980   7.447  20.204  0.00  0.00    +0.000 A 
ATOM     14  F   UNL     1       1.464   7.885  21.360  0.00  0.00    +0.000 F 
ATOM     15  C   UNL     1       2.465   6.142  20.127  0.00  0.00    +0.000 A 
ENDBRANCH   5   9
ENDBRANCH   3   5
BRANCH   2  16
ATOM     16  C   UNL     1       6.179   4.588  18.123  0.00  0.00    +0.000 C 
BRANCH  16  17
ATOM     17  C   UNL     1       6.854   5.943  18.040  0.00  0.00    +0.000 A 
ATOM     18  C   UNL     1       6.356   6.952  17.204  0.00  0.00    +0.000 A 
ATOM     19  C   UNL     1       6.906   8.234  17.201  0.00  0.00    +0.000 A 
ATOM     20  C   UNL     1       7.957   8.548  18.063  0.00  0.00    +0.000 A 
ATOM     21  C   UNL     1       8.470   7.551  18.903  0.00  0.00    +0.000 A 
ATOM     22  C   UNL     1       7.930   6.257  18.885  0.00  0.00    +0.000 A 
BRANCH  20  23
ATOM     23  C   UNL     1       8.500   9.937  18.168  0.00  0.00    +0.000 C 
ATOM     24  O   UNL     1       8.082  10.810  17.424  0.00  0.00    +0.000 OA
ATOM     25  N   UNL     1       9.469  10.141  19.142  0.00  0.00    +0.000 N 
ATOM     26  H   UNL     1       9.727   9.382  19.757  0.00  0.00    +0.000 HD
BRANCH  25  27
ATOM     27  C   UNL     1      10.121  11.399  19.330  0.00  0.00    +0.000 C 
ATOM     28  C   UNL     1      11.589  11.437  19.670  0.00  0.00    +0.000 C 
ATOM     29  C   UNL     1      10.575  11.858  20.691  0.00  0.00    +0.000 C 
ENDBRANCH  25  27
ENDBRANCH  20  23
ENDBRANCH  16  17
ENDBRANCH   2  16
TORSDOF 6
ENDMDL
MODEL 3
REMARK VINA RESULT:      -8.2      1.532      3.060
REMARK  Name = 
REMARK  7 active torsions:
REMARK  status: ('A' for Active; 'I' for Inactive)
REMARK    1  A    between atoms: C_1  and  N_2
REMARK    2  A    between atoms: N_2  and  C_3
REMARK    3  A    between atoms: C_3  and  C_4
REMARK    4  A    between atoms: C_7  and  C_8
REMARK    5  A    between atoms: N_10  and  C_11
REMARK    6  A    between atoms: C_16  and  C_18
REMARK    7  A    between atoms: C_18  and  C_19
REMARK                            x       y       z     vdW  Elec       q    Type
REMARK                         _______ _______ _______ _____ _____    ______ ____
ROOT
ATOM      1  C   UNL     1       3.274   4.281  19.565  0.00  0.00    +0.000 C 
ATOM      2  N   UNL     1       3.999   5.125  18.629  0.00  0.00    +0.000 N 
ATOM      3  C   UNL     1       5.367   4.836  18.494  0.00  0.00    +0.000 C 
ATOM      4  O   UNL     1       5.847   3.860  19.099  0.00  0.00    +0.000 OA
ENDROOT
BRANCH   3   5
ATOM      5  C   UNL     1       6.280   5.726  17.555  0.00  0.00    +0.000 C 
ATOM      6  C   UNL     1       7.674   6.084  18.203  0.00  0.00    +0.000 C 
ATOM      7  C   UNL     1       7.520   7.510  17.658  0.00  0.00    +0.000 C 
ATOM      8  C   UNL     1       6.005   7.276  17.622  0.00  0.00    +0.000 C 
BRANCH   5   9
ATOM      9  C   UNL     1       6.345   4.979  16.109  0.00  0.00    +0.000 A 
ATOM     10  C   UNL     1       5.408   3.974  15.760  0.00  0.00    +0.000 A 
ATOM     11  C   UNL     1       5.297   3.462  14.465  0.00  0.00    +0.000 A 
ATOM     12  C   UNL     1       6.156   3.917  13.469  0.00  0.00    +0.000 A 
ATOM     13  C   UNL     1       7.141   4.832  13.803  0.00  0.00    +0.000 A 
ATOM     14  F   UNL     1       7.969   5.279  12.850  0.00  0.00    +0.000 F 
ATOM     15  C   UNL     1       7.254   5.340  15.096  0.00  0.00    +0.000 A 
ENDBRANCH   5   9
ENDBRANCH   3   5
BRANCH   2  16
ATOM     16  C   UNL     1       3.284   6.102  17.794  0.00  0.00    +0.000 C 
BRANCH  16  17
ATOM     17  C   UNL     1       2.654   7.290  18.493  0.00  0.00    +0.000 A 
ATOM     18  C   UNL     1       2.329   8.458  17.790  0.00  0.00    +0.000 A 
ATOM     19  C   UNL     1       1.653   9.514  18.403  0.00  0.00    +0.000 A 
ATOM     20  C   UNL     1       1.259   9.414  19.737  0.00  0.00    +0.000 A 
ATOM     21  C   UNL     1       1.579   8.255  20.457  0.00  0.00    +0.000 A 
ATOM     22  C   UNL     1       2.279   7.206  19.843  0.00  0.00    +0.000 A 
BRANCH  20  23
ATOM     23  C   UNL     1       0.439  10.475  20.397  0.00  0.00    +0.000 C 
ATOM     24  O   UNL     1       0.864  11.038  21.394  0.00  0.00    +0.000 OA
ATOM     25  N   UNL     1      -0.785  10.758  19.805  0.00  0.00    +0.000 N 
ATOM     26  H   UNL     1      -1.046  10.288  18.948  0.00  0.00    +0.000 HD
BRANCH  25  27
ATOM     27  C   UNL     1      -1.704  11.709  20.347  0.00  0.00    +0.000 C 
ATOM     28  C   UNL     1      -2.786  12.287  19.471  0.00  0.00    +0.000 C 
ATOM     29  C   UNL     1      -1.665  13.161  19.948  0.00  0.00    +0.000 C 
ENDBRANCH  25  27
ENDBRANCH  20  23
ENDBRANCH  16  17
ENDBRANCH   2  16
TORSDOF 6
ENDMDL
MODEL 4
REMARK VINA RESULT:      -8.1      1.664      2.995
REMARK  Name = 
REMARK  7 active torsions:
REMARK  status: ('A' for Active; 'I' for Inactive)
REMARK    1  A    between atoms: C_1  and  N_2
REMARK    2  A    between atoms: N_2  and  C_3
REMARK    3  A    between atoms: C_3  and  C_4
REMARK    4  A    between atoms: C_7  and  C_8
REMARK    5  A    between atoms: N_10  and  C_11
REMARK    6  A    between atoms: C_16  and  C_18
REMARK    7  A    between atoms: C_18  and  C_19
REMARK                            x       y       z     vdW  Elec       q    Type
REMARK                         _______ _______ _______ _____ _____    ______ ____
ROOT
ATOM      1  C   UNL     1       3.445   4.281  19.664  0.00  0.00    +0.000 C 
ATOM      2  N   UNL     1       4.107   5.124  18.682  0.00  0.00    +0.000 N 
ATOM      3  C   UNL     1       5.496   4.945  18.573  0.00  0.00    +0.000 C 
ATOM      4  O   UNL     1       6.050   4.052  19.240  0.00  0.00    +0.000 OA
ENDROOT
BRANCH   3   5
ATOM      5  C   UNL     1       6.341   5.850  17.586  0.00  0.00    +0.000 C 
ATOM      6  C   UNL     1       7.730   6.297  18.190  0.00  0.00    +0.000 C 
ATOM      7  C   UNL     1       7.492   7.696  17.607  0.00  0.00    +0.000 C 
ATOM      8  C   UNL     1       5.989   7.386  17.615  0.00  0.00    +0.000 C 
BRANCH   5   9
ATOM      9  C   UNL     1       6.411   5.063  16.162  0.00  0.00    +0.000 A 
ATOM     10  C   UNL     1       5.497   4.026  15.851  0.00  0.00    +0.000 A 
ATOM     11  C   UNL     1       5.385   3.474  14.573  0.00  0.00    +0.000 A 
ATOM     12  C   UNL     1       6.224   3.921  13.556  0.00  0.00    +0.000 A 
ATOM     13  C   UNL     1       7.189   4.869  13.853  0.00  0.00    +0.000 A 
ATOM     14  F   UNL     1       7.996   5.309  12.880  0.00  0.00    +0.000 F 
ATOM     15  C   UNL     1       7.301   5.417  15.130  0.00  0.00    +0.000 A 
ENDBRANCH   5   9
ENDBRANCH   3   5
BRANCH   2  16
ATOM     16  C   UNL     1       3.321   5.984  17.783  0.00  0.00    +0.000 C 
BRANCH  16  17
ATOM     17  C   UNL     1       2.530   7.113  18.413  0.00  0.00    +0.000 A 
ATOM     18  C   UNL     1       2.226   7.113  19.781  0.00  0.00    +0.000 A 
ATOM     19  C   UNL     1       1.592   8.197  20.389  0.00  0.00    +0.000 A 
ATOM     20  C   UNL     1       1.270   9.329  19.640  0.00  0.00    +0.000 A 
ATOM     21  C   UNL     1       1.562   9.346  18.270  0.00  0.00    +0.000 A 
ATOM     22  C   UNL     1       2.178   8.244  17.660  0.00  0.00    +0.000 A 
BRANCH  20  23
ATOM     23  C   UNL     1       0.691  10.552  20.275  0.00  0.00    +0.000 C 
ATOM     24  O   UNL     1      -0.004  10.447  21.273  0.00  0.00    +0.000 OA
ATOM     25  N   UNL     1       1.001  11.761  19.665  0.00  0.00    +0.000 N 
ATOM     26  H   UNL     1       1.627  11.775  18.871  0.00  0.00    +0.000 HD
BRANCH  25  27
ATOM     27  C   UNL     1       0.480  13.012  20.121  0.00  0.00    +0.000 C 
ATOM     28  C   UNL     1      -0.726  13.611  19.446  0.00  0.00    +0.000 C 
ATOM     29  C   UNL     1       0.614  14.269  19.303  0.00  0.00    +0.000 C 
ENDBRANCH  25  27
ENDBRANCH  20  23
ENDBRANCH  16  17
ENDBRANCH   2  16
TORSDOF 6
ENDMDL
MODEL 5
REMARK VINA RESULT:      -7.9      1.302      1.685
REMARK  Name = 
REMARK  7 active torsions:
REMARK  status: ('A' for Active; 'I' for Inactive)
REMARK    1  A    between atoms: C_1  and  N_2
REMARK    2  A    between atoms: N_2  and  C_3
REMARK    3  A    between atoms: C_3  and  C_4
REMARK    4  A    between atoms: C_7  and  C_8
REMARK    5  A    between atoms: N_10  and  C_11
REMARK    6  A    between atoms: C_16  and  C_18
REMARK    7  A    between atoms: C_18  and  C_19
REMARK                            x       y       z     vdW  Elec       q    Type
REMARK                         _______ _______ _______ _____ _____    ______ ____
ROOT
ATOM      1  C   UNL     1       2.511   4.878  18.855  0.00  0.00    +0.000 C 
ATOM      2  N   UNL     1       3.534   5.322  17.923  0.00  0.00    +0.000 N 
ATOM      3  C   UNL     1       4.299   4.301  17.337  0.00  0.00    +0.000 C 
ATOM      4  O   UNL     1       4.017   3.113  17.578  0.00  0.00    +0.000 OA
ENDROOT
BRANCH   3   5
ATOM      5  C   UNL     1       5.489   4.660  16.355  0.00  0.00    +0.000 C 
ATOM      6  C   UNL     1       5.004   5.361  15.025  0.00  0.00    +0.000 C 
ATOM      7  C   UNL     1       6.004   4.495  14.248  0.00  0.00    +0.000 C 
ATOM      8  C   UNL     1       5.955   3.491  15.408  0.00  0.00    +0.000 C 
BRANCH   5   9
ATOM      9  C   UNL     1       6.592   5.484  17.226  0.00  0.00    +0.000 A 
ATOM     10  C   UNL     1       7.023   6.774  16.832  0.00  0.00    +0.000 A 
ATOM     11  C   UNL     1       7.799   7.596  17.653  0.00  0.00    +0.000 A 
ATOM     12  C   UNL     1       8.207   7.132  18.900  0.00  0.00    +0.000 A 
ATOM     13  C   UNL     1       7.876   5.841  19.274  0.00  0.00    +0.000 A 
ATOM     14  F   UNL     1       8.260   5.388  20.475  0.00  0.00    +0.000 F 
ATOM     15  C   UNL     1       7.105   5.020  18.453  0.00  0.00    +0.000 A 
ENDBRANCH   5   9
ENDBRANCH   3   5
BRANCH   2  16
ATOM     16  C   UNL     1       3.629   6.739  17.537  0.00  0.00    +0.000 C 
BRANCH  16  17
ATOM     17  C   UNL     1       2.654   7.704  18.180  0.00  0.00    +0.000 A 
ATOM     18  C   UNL     1       2.356   7.634  19.548  0.00  0.00    +0.000 A 
ATOM     19  C   UNL     1       1.544   8.583  20.168  0.00  0.00    +0.000 A 
ATOM     20  C   UNL     1       1.028   9.651  19.434  0.00  0.00    +0.000 A 
ATOM     21  C   UNL     1       1.311   9.736  18.064  0.00  0.00    +0.000 A 
ATOM     22  C   UNL     1       2.109   8.766  17.440  0.00  0.00    +0.000 A 
BRANCH  20  23
ATOM     23  C   UNL     1       0.245  10.747  20.083  0.00  0.00    +0.000 C 
ATOM     24  O   UNL     1      -0.199  11.660  19.404  0.00  0.00    +0.000 OA
ATOM     25  N   UNL     1       0.069  10.640  21.456  0.00  0.00    +0.000 N 
ATOM     26  H   UNL     1       0.421   9.826  21.943  0.00  0.00    +0.000 HD
BRANCH  25  27
ATOM     27  C   UNL     1      -0.610  11.633  22.227  0.00  0.00    +0.000 C 
ATOM     28  C   UNL     1      -1.611  11.213  23.273  0.00  0.00    +0.000 C 
ATOM     29  C   UNL     1      -2.077  11.917  22.034  0.00  0.00    +0.000 C 
ENDBRANCH  25  27
ENDBRANCH  20  23
ENDBRANCH  16  17
ENDBRANCH   2  16
TORSDOF 6
ENDMDL
MODEL 6
REMARK VINA RESULT:      -7.8      3.468      6.683
REMARK  Name = 
REMARK  7 active torsions:
REMARK  status: ('A' for Active; 'I' for Inactive)
REMARK    1  A    between atoms: C_1  and  N_2
REMARK    2  A    between atoms: N_2  and  C_3
REMARK    3  A    between atoms: C_3  and  C_4
REMARK    4  A    between atoms: C_7  and  C_8
REMARK    5  A    between atoms: N_10  and  C_11
REMARK    6  A    between atoms: C_16  and  C_18
REMARK    7  A    between atoms: C_18  and  C_19
REMARK                            x       y       z     vdW  Elec       q    Type
REMARK                         _______ _______ _______ _____ _____    ______ ____
ROOT
ATOM      1  C   UNL     1       5.357   4.279  15.513  0.00  0.00    +0.000 C 
ATOM      2  N   UNL     1       5.059   4.277  16.936  0.00  0.00    +0.000 N 
ATOM      3  C   UNL     1       3.757   3.878  17.278  0.00  0.00    +0.000 C 
ATOM      4  O   UNL     1       2.984   3.486  16.385  0.00  0.00    +0.000 OA
ENDROOT
BRANCH   3   5
ATOM      5  C   UNL     1       3.290   3.897  18.791  0.00  0.00    +0.000 C 
ATOM      6  C   UNL     1       4.410   3.409  19.792  0.00  0.00    +0.000 C 
ATOM      7  C   UNL     1       3.335   2.623  20.554  0.00  0.00    +0.000 C 
ATOM      8  C   UNL     1       2.500   2.620  19.267  0.00  0.00    +0.000 C 
BRANCH   5   9
ATOM      9  C   UNL     1       2.681   5.379  19.082  0.00  0.00    +0.000 A 
ATOM     10  C   UNL     1       2.010   5.672  20.294  0.00  0.00    +0.000 A 
ATOM     11  C   UNL     1       1.662   6.971  20.672  0.00  0.00    +0.000 A 
ATOM     12  C   UNL     1       1.944   8.034  19.818  0.00  0.00    +0.000 A 
ATOM     13  C   UNL     1       2.518   7.767  18.586  0.00  0.00    +0.000 A 
ATOM     14  F   UNL     1       2.798   8.783  17.761  0.00  0.00    +0.000 F 
ATOM     15  C   UNL     1       2.862   6.470  18.209  0.00  0.00    +0.000 A 
ENDBRANCH   5   9
ENDBRANCH   3   5
BRANCH   2  16
ATOM     16  C   UNL     1       6.120   4.538  17.922  0.00  0.00    +0.000 C 
BRANCH  16  17
ATOM     17  C   UNL     1       6.796   5.893  17.877  0.00  0.00    +0.000 A 
ATOM     18  C   UNL     1       6.331   6.910  17.032  0.00  0.00    +0.000 A 
ATOM     19  C   UNL     1       6.880   8.192  17.061  0.00  0.00    +0.000 A 
ATOM     20  C   UNL     1       7.898   8.498  17.965  0.00  0.00    +0.000 A 
ATOM     21  C   UNL     1       8.379   7.493  18.815  0.00  0.00    +0.000 A 
ATOM     22  C   UNL     1       7.839   6.199  18.765  0.00  0.00    +0.000 A 
BRANCH  20  23
ATOM     23  C   UNL     1       8.436   9.885  18.104  0.00  0.00    +0.000 C 
ATOM     24  O   UNL     1       7.984  10.784  17.411  0.00  0.00    +0.000 OA
ATOM     25  N   UNL     1       9.441  10.059  19.047  0.00  0.00    +0.000 N 
ATOM     26  H   UNL     1       9.727   9.278  19.622  0.00  0.00    +0.000 HD
BRANCH  25  27
ATOM     27  C   UNL     1      10.092  11.313  19.259  0.00  0.00    +0.000 C 
ATOM     28  C   UNL     1      10.928  11.523  20.495  0.00  0.00    +0.000 C 
ATOM     29  C   UNL     1       9.638  12.269  20.331  0.00  0.00    +0.000 C 
ENDBRANCH  25  27
ENDBRANCH  20  23
ENDBRANCH  16  17
ENDBRANCH   2  16
TORSDOF 6
ENDMDL
MODEL 7
REMARK VINA RESULT:      -7.8      3.766      9.701
REMARK  Name = 
REMARK  7 active torsions:
REMARK  status: ('A' for Active; 'I' for Inactive)
REMARK    1  A    between atoms: C_1  and  N_2
REMARK    2  A    between atoms: N_2  and  C_3
REMARK    3  A    between atoms: C_3  and  C_4
REMARK    4  A    between atoms: C_7  and  C_8
REMARK    5  A    between atoms: N_10  and  C_11
REMARK    6  A    between atoms: C_16  and  C_18
REMARK    7  A    between atoms: C_18  and  C_19
REMARK                            x       y       z     vdW  Elec       q    Type
REMARK                         _______ _______ _______ _____ _____    ______ ____
ROOT
ATOM      1  C   UNL     1       1.470  12.466  19.566  0.00  0.00    +0.000 C 
ATOM      2  N   UNL     1       0.242  11.704  19.405  0.00  0.00    +0.000 N 
ATOM      3  C   UNL     1      -0.711  12.273  18.545  0.00  0.00    +0.000 C 
ATOM      4  O   UNL     1      -0.431  13.317  17.929  0.00  0.00    +0.000 OA
ENDROOT
BRANCH   3   5
ATOM      5  C   UNL     1      -2.117  11.572  18.339  0.00  0.00    +0.000 C 
ATOM      6  C   UNL     1      -2.017   9.998  18.247  0.00  0.00    +0.000 C 
ATOM      7  C   UNL     1      -3.036  10.038  17.101  0.00  0.00    +0.000 C 
ATOM      8  C   UNL     1      -2.616  11.491  16.847  0.00  0.00    +0.000 C 
BRANCH   5   9
ATOM      9  C   UNL     1      -3.110  12.150  19.493  0.00  0.00    +0.000 A 
ATOM     10  C   UNL     1      -4.511  12.207  19.294  0.00  0.00    +0.000 A 
ATOM     11  C   UNL     1      -5.411  12.493  20.325  0.00  0.00    +0.000 A 
ATOM     12  C   UNL     1      -4.928  12.774  21.599  0.00  0.00    +0.000 A 
ATOM     13  C   UNL     1      -3.558  12.815  21.802  0.00  0.00    +0.000 A 
ATOM     14  F   UNL     1      -3.085  13.079  23.026  0.00  0.00    +0.000 F 
ATOM     15  C   UNL     1      -2.661  12.533  20.772  0.00  0.00    +0.000 A 
ENDBRANCH   5   9
ENDBRANCH   3   5
BRANCH   2  16
ATOM     16  C   UNL     1       0.109  10.366  20.002  0.00  0.00    +0.000 C 
BRANCH  16  17
ATOM     17  C   UNL     1       1.054   9.286  19.513  0.00  0.00    +0.000 A 
ATOM     18  C   UNL     1       1.464   8.243  20.355  0.00  0.00    +0.000 A 
ATOM     19  C   UNL     1       2.247   7.190  19.883  0.00  0.00    +0.000 A 
ATOM     20  C   UNL     1       2.618   7.139  18.539  0.00  0.00    +0.000 A 
ATOM     21  C   UNL     1       2.221   8.174  17.684  0.00  0.00    +0.000 A 
ATOM     22  C   UNL     1       1.453   9.244  18.168  0.00  0.00    +0.000 A 
BRANCH  20  23
ATOM     23  C   UNL     1       3.362   5.973  17.973  0.00  0.00    +0.000 C 
ATOM     24  O   UNL     1       4.316   6.163  17.235  0.00  0.00    +0.000 OA
ATOM     25  N   UNL     1       2.902   4.716  18.344  0.00  0.00    +0.000 N 
ATOM     26  H   UNL     1       2.139   4.638  19.002  0.00  0.00    +0.000 HD
BRANCH  25  27
ATOM     27  C   UNL     1       3.475   3.506  17.845  0.00  0.00    +0.000 C 
ATOM     28  C   UNL     1       2.607   2.288  17.661  0.00  0.00    +0.000 C 
ATOM     29  C   UNL     1       3.663   2.298  18.725  0.00  0.00    +0.000 C 
ENDBRANCH  25  27
ENDBRANCH  20  23
ENDBRANCH  16  17
ENDBRANCH   2  16
TORSDOF 6
ENDMDL
MODEL 8
REMARK VINA RESULT:      -7.7      3.891      9.422
REMARK  Name = 
REMARK  7 active torsions:
REMARK  status: ('A' for Active; 'I' for Inactive)
REMARK    1  A    between atoms: C_1  and  N_2
REMARK    2  A    between atoms: N_2  and  C_3
REMARK    3  A    between atoms: C_3  and  C_4
REMARK    4  A    between atoms: C_7  and  C_8
REMARK    5  A    between atoms: N_10  and  C_11
REMARK    6  A    between atoms: C_16  and  C_18
REMARK    7  A    between atoms: C_18  and  C_19
REMARK                            x       y       z     vdW  Elec       q    Type
REMARK                         _______ _______ _______ _____ _____    ______ ____
ROOT
ATOM      1  C   UNL     1      -0.404   9.865  22.747  0.00  0.00    +0.000 C 
ATOM      2  N   UNL     1      -0.252  10.722  21.582  0.00  0.00    +0.000 N 
ATOM      3  C   UNL     1      -1.306  11.621  21.355  0.00  0.00    +0.000 C 
ATOM      4  O   UNL     1      -2.238  11.689  22.176  0.00  0.00    +0.000 OA
ENDROOT
BRANCH   3   5
ATOM      5  C   UNL     1      -1.289  12.562  20.081  0.00  0.00    +0.000 C 
ATOM      6  C   UNL     1       0.144  13.141  19.757  0.00  0.00    +0.000 C 
ATOM      7  C   UNL     1      -0.511  14.496  19.461  0.00  0.00    +0.000 C 
ATOM      8  C   UNL     1      -1.686  14.063  20.347  0.00  0.00    +0.000 C 
BRANCH   5   9
ATOM      9  C   UNL     1      -2.006  11.738  18.872  0.00  0.00    +0.000 A 
ATOM     10  C   UNL     1      -1.260  10.887  18.020  0.00  0.00    +0.000 A 
ATOM     11  C   UNL     1      -1.860  10.007  17.116  0.00  0.00    +0.000 A 
ATOM     12  C   UNL     1      -3.247   9.976  17.005  0.00  0.00    +0.000 A 
ATOM     13  C   UNL     1      -3.998  10.860  17.761  0.00  0.00    +0.000 A 
ATOM     14  F   UNL     1      -5.334  10.833  17.665  0.00  0.00    +0.000 F 
ATOM     15  C   UNL     1      -3.399  11.741  18.661  0.00  0.00    +0.000 A 
ENDBRANCH   5   9
ENDBRANCH   3   5
BRANCH   2  16
ATOM     16  C   UNL     1       1.000  10.717  20.810  0.00  0.00    +0.000 C 
BRANCH  16  17
ATOM     17  C   UNL     1       1.344   9.454  20.045  0.00  0.00    +0.000 A 
ATOM     18  C   UNL     1       1.600   9.486  18.667  0.00  0.00    +0.000 A 
ATOM     19  C   UNL     1       2.020   8.349  17.977  0.00  0.00    +0.000 A 
ATOM     20  C   UNL     1       2.224   7.150  18.659  0.00  0.00    +0.000 A 
ATOM     21  C   UNL     1       1.969   7.098  20.036  0.00  0.00    +0.000 A 
ATOM     22  C   UNL     1       1.524   8.238  20.722  0.00  0.00    +0.000 A 
BRANCH  20  23
ATOM     23  C   UNL     1       2.777   5.941  17.977  0.00  0.00    +0.000 C 
ATOM     24  O   UNL     1       3.849   6.009  17.397  0.00  0.00    +0.000 OA
ATOM     25  N   UNL     1       2.008   4.787  18.060  0.00  0.00    +0.000 N 
ATOM     26  H   UNL     1       1.156   4.793  18.604  0.00  0.00    +0.000 HD
BRANCH  25  27
ATOM     27  C   UNL     1       2.376   3.566  17.416  0.00  0.00    +0.000 C 
ATOM     28  C   UNL     1       2.127   2.250  18.107  0.00  0.00    +0.000 C 
ATOM     29  C   UNL     1       3.532   2.732  17.904  0.00  0.00    +0.000 C 
ENDBRANCH  25  27
ENDBRANCH  20  23
ENDBRANCH  16  17
ENDBRANCH   2  16
TORSDOF 6
ENDMDL
MODEL 9
REMARK VINA RESULT:      -7.7      3.465      9.712
REMARK  Name = 
REMARK  7 active torsions:
REMARK  status: ('A' for Active; 'I' for Inactive)
REMARK    1  A    between atoms: C_1  and  N_2
REMARK    2  A    between atoms: N_2  and  C_3
REMARK    3  A    between atoms: C_3  and  C_4
REMARK    4  A    between atoms: C_7  and  C_8
REMARK    5  A    between atoms: N_10  and  C_11
REMARK    6  A    between atoms: C_16  and  C_18
REMARK    7  A    between atoms: C_18  and  C_19
REMARK                            x       y       z     vdW  Elec       q    Type
REMARK                         _______ _______ _______ _____ _____    ______ ____
ROOT
ATOM      1  C   UNL     1       1.462  12.546  19.677  0.00  0.00    +0.000 C 
ATOM      2  N   UNL     1       0.261  11.751  19.479  0.00  0.00    +0.000 N 
ATOM      3  C   UNL     1      -0.688  12.302  18.603  0.00  0.00    +0.000 C 
ATOM      4  O   UNL     1      -0.424  13.361  18.006  0.00  0.00    +0.000 OA
ENDROOT
BRANCH   3   5
ATOM      5  C   UNL     1      -2.067  11.564  18.355  0.00  0.00    +0.000 C 
ATOM      6  C   UNL     1      -1.928   9.992  18.300  0.00  0.00    +0.000 C 
ATOM      7  C   UNL     1      -2.900   9.984  17.114  0.00  0.00    +0.000 C 
ATOM      8  C   UNL     1      -2.503  11.442  16.847  0.00  0.00    +0.000 C 
BRANCH   5   9
ATOM      9  C   UNL     1      -3.119  12.141  19.457  0.00  0.00    +0.000 A 
ATOM     10  C   UNL     1      -4.511  12.172  19.196  0.00  0.00    +0.000 A 
ATOM     11  C   UNL     1      -5.460  12.457  20.182  0.00  0.00    +0.000 A 
ATOM     12  C   UNL     1      -5.038  12.763  21.472  0.00  0.00    +0.000 A 
ATOM     13  C   UNL     1      -3.680  12.828  21.734  0.00  0.00    +0.000 A 
ATOM     14  F   UNL     1      -3.266  13.116  22.975  0.00  0.00    +0.000 F 
ATOM     15  C   UNL     1      -2.734  12.547  20.749  0.00  0.00    +0.000 A 
ENDBRANCH   5   9
ENDBRANCH   3   5
BRANCH   2  16
ATOM     16  C   UNL     1       0.153  10.402  20.057  0.00  0.00    +0.000 C 
BRANCH  16  17
ATOM     17  C   UNL     1       1.100   9.341  19.534  0.00  0.00    +0.000 A 
ATOM     18  C   UNL     1       1.469   8.243  20.324  0.00  0.00    +0.000 A 
ATOM     19  C   UNL     1       2.254   7.209  19.815  0.00  0.00    +0.000 A 
ATOM     20  C   UNL     1       2.669   7.233  18.483  0.00  0.00    +0.000 A 
ATOM     21  C   UNL     1       2.313   8.325  17.679  0.00  0.00    +0.000 A 
ATOM     22  C   UNL     1       1.544   9.374  18.203  0.00  0.00    +0.000 A 
BRANCH  20  23
ATOM     23  C   UNL     1       3.417   6.094  17.871  0.00  0.00    +0.000 C 
ATOM     24  O   UNL     1       2.835   5.050  17.621  0.00  0.00    +0.000 OA
ATOM     25  N   UNL     1       4.765   6.314  17.617  0.00  0.00    +0.000 N 
ATOM     26  H   UNL     1       5.165   7.224  17.802  0.00  0.00    +0.000 HD
BRANCH  25  27
ATOM     27  C   UNL     1       5.625   5.305  17.084  0.00  0.00    +0.000 C 
ATOM     28  C   UNL     1       6.929   5.698  16.438  0.00  0.00    +0.000 C 
ATOM     29  C   UNL     1       5.820   5.137  15.599  0.00  0.00    +0.000 C 
ENDBRANCH  25  27
ENDBRANCH  20  23
ENDBRANCH  16  17
ENDBRANCH   2  16
TORSDOF 6
ENDMDL
