MODEL 1
REMARK VINA RESULT:      -9.0      0.000      0.000
REMARK  Name = 
REMARK  6 active torsions:
REMARK  status: ('A' for Active; 'I' for Inactive)
REMARK    1  A    between atoms: C_1  and  C_2
REMARK    2  A    between atoms: C_4  and  O_5
REMARK    3  A    between atoms: O_5  and  C_6
REMARK    4  A    between atoms: C_10  and  O_11
REMARK    5  A    between atoms: O_11  and  C_12
REMARK    6  A    between atoms: C_20  and  C_21
REMARK                            x       y       z     vdW  Elec       q    Type
REMARK                         _______ _______ _______ _____ _____    ______ ____
ROOT
ATOM      1  O   UNL     1       5.543   3.808  19.062  0.00  0.00    +0.000 OA
ENDROOT
BRANCH   1   5
ATOM      2  C   UNL     1       8.050   7.860  18.005  0.00  0.00    +0.000 C 
ATOM      3  C   UNL     1       7.340   6.593  17.639  0.00  0.00    +0.000 A 
ATOM      4  C   UNL     1       6.730   5.802  18.592  0.00  0.00    +0.000 A 
ATOM      5  C   UNL     1       6.118   4.663  18.120  0.00  0.00    +0.000 A 
ATOM      6  N   UNL     1       6.055   4.344  16.815  0.00  0.00    +0.000 NA
ATOM      7  C   UNL     1       6.709   5.143  15.963  0.00  0.00    +0.000 A 
ATOM      8  N   UNL     1       7.357   6.263  16.330  0.00  0.00    +0.000 NA
BRANCH   7   9
ATOM      9  C   UNL     1       6.757   4.738  14.554  0.00  0.00    +0.000 A 
ATOM     10  C   UNL     1       5.890   3.772  14.017  0.00  0.00    +0.000 A 
ATOM     11  C   UNL     1       5.956   3.424  12.668  0.00  0.00    +0.000 A 
ATOM     12  C   UNL     1       6.903   4.049  11.878  0.00  0.00    +0.000 A 
ATOM     13  N   UNL     1       7.773   4.967  12.342  0.00  0.00    +0.000 NA
ATOM     14  C   UNL     1       7.678   5.284  13.661  0.00  0.00    +0.000 A 
ENDBRANCH   7   9
ENDBRANCH   1   5
BRANCH   1  15
ATOM     15  C   UNL     1       4.185   3.935  19.297  0.00  0.00    +0.000 A 
ATOM     16  C   UNL     1       3.276   2.894  19.074  0.00  0.00    +0.000 A 
ATOM     17  C   UNL     1       1.912   3.103  19.239  0.00  0.00    +0.000 A 
ATOM     18  C   UNL     1       1.453   4.328  19.707  0.00  0.00    +0.000 A 
ATOM     19  C   UNL     1       2.363   5.325  20.080  0.00  0.00    +0.000 A 
ATOM     20  C   UNL     1       3.731   5.144  19.836  0.00  0.00    +0.000 A 
BRANCH  19  21
ATOM     21  O   UNL     1       1.966   6.529  20.625  0.00  0.00    +0.000 OA
BRANCH  21  22
ATOM     22  C   UNL     1       1.837   7.618  19.766  0.00  0.00    +0.000 A 
ATOM     23  C   UNL     1       1.182   8.746  20.241  0.00  0.00    +0.000 A 
ATOM     24  N   UNL     1       1.036   9.877  19.499  0.00  0.00    +0.000 NA
ATOM     25  C   UNL     1       1.570   9.820  18.256  0.00  0.00    +0.000 A 
ATOM     26  C   UNL     1       2.201   8.688  17.771  0.00  0.00    +0.000 A 
ATOM     27  N   UNL     1       2.334   7.560  18.505  0.00  0.00    +0.000 NA
ENDBRANCH  21  22
ENDBRANCH  19  21
ENDBRANCH   1  15
TORSDOF 5
ENDMDL
MODEL 2
REMARK VINA RESULT:      -8.7      0.748      1.314
REMARK  Name = 
REMARK  6 active torsions:
REMARK  status: ('A' for Active; 'I' for Inactive)
REMARK    1  A    between atoms: C_1  and  C_2
REMARK    2  A    between atoms: C_4  and  O_5
REMARK    3  A    between atoms: O_5  and  C_6
REMARK    4  A    between atoms: C_10  and  O_11
REMARK    5  A    between atoms: O_11  and  C_12
REMARK    6  A    between atoms: C_20  and  C_21
REMARK                            x       y       z     vdW  Elec       q    Type
REMARK                         _______ _______ _______ _____ _____    ______ ____
ROOT
ATOM      1  O   UNL     1       5.367   3.640  18.994  0.00  0.00    +0.000 OA
ENDROOT
BRANCH   1   5
ATOM      2  C   UNL     1       8.073   7.630  18.235  0.00  0.00    +0.000 C 
ATOM      3  C   UNL     1       7.327   6.414  17.780  0.00  0.00    +0.000 A 
ATOM      4  C   UNL     1       6.650   5.603  18.668  0.00  0.00    +0.000 A 
ATOM      5  C   UNL     1       6.012   4.515  18.117  0.00  0.00    +0.000 A 
ATOM      6  N   UNL     1       5.986   4.264  16.797  0.00  0.00    +0.000 NA
ATOM      7  C   UNL     1       6.703   5.076  16.011  0.00  0.00    +0.000 A 
ATOM      8  N   UNL     1       7.381   6.149  16.456  0.00  0.00    +0.000 NA
BRANCH   7   9
ATOM      9  C   UNL     1       6.789   4.739  14.585  0.00  0.00    +0.000 A 
ATOM     10  C   UNL     1       7.669   5.393  13.707  0.00  0.00    +0.000 A 
ATOM     11  C   UNL     1       7.732   5.034  12.361  0.00  0.00    +0.000 A 
ATOM     12  C   UNL     1       6.900   4.024  11.914  0.00  0.00    +0.000 A 
ATOM     13  N   UNL     1       6.023   3.376  12.706  0.00  0.00    +0.000 NA
ATOM     14  C   UNL     1       5.990   3.750  14.013  0.00  0.00    +0.000 A 
ENDBRANCH   7   9
ENDBRANCH   1   5
BRANCH   1  15
ATOM     15  C   UNL     1       4.036   3.886  19.280  0.00  0.00    +0.000 A 
ATOM     16  C   UNL     1       3.032   2.928  19.100  0.00  0.00    +0.000 A 
ATOM     17  C   UNL     1       1.699   3.256  19.316  0.00  0.00    +0.000 A 
ATOM     18  C   UNL     1       1.368   4.518  19.793  0.00  0.00    +0.000 A 
ATOM     19  C   UNL     1       2.375   5.432  20.124  0.00  0.00    +0.000 A 
ATOM     20  C   UNL     1       3.711   5.132  19.828  0.00  0.00    +0.000 A 
BRANCH  19  21
ATOM     21  O   UNL     1       2.106   6.669  20.676  0.00  0.00    +0.000 OA
BRANCH  21  22
ATOM     22  C   UNL     1       1.901   7.737  19.806  0.00  0.00    +0.000 A 
ATOM     23  C   UNL     1       2.468   7.662  18.541  0.00  0.00    +0.000 A 
ATOM     24  N   UNL     1       2.297   8.631  17.602  0.00  0.00    +0.000 NA
ATOM     25  C   UNL     1       1.539   9.682  17.994  0.00  0.00    +0.000 A 
ATOM     26  C   UNL     1       0.995   9.772  19.263  0.00  0.00    +0.000 A 
ATOM     27  N   UNL     1       1.176   8.813  20.199  0.00  0.00    +0.000 NA
ENDBRANCH  21  22
ENDBRANCH  19  21
ENDBRANCH   1  15
TORSDOF 5
ENDMDL
MODEL 3
REMARK VINA RESULT:      -8.3      1.679      7.441
REMARK  Name = 
REMARK  6 active torsions:
REMARK  status: ('A' for Active; 'I' for Inactive)
REMARK    1  A    between atoms: C_1  and  C_2
REMARK    2  A    between atoms: C_4  and  O_5
REMARK    3  A    between atoms: O_5  and  C_6
REMARK    4  A    between atoms: C_10  and  O_11
REMARK    5  A    between atoms: O_11  and  C_12
REMARK    6  A    between atoms: C_20  and  C_21
REMARK                            x       y       z     vdW  Elec       q    Type
REMARK                         _______ _______ _______ _____ _____    ______ ____
ROOT
ATOM      1  O   UNL     1       5.386   3.830  19.372  0.00  0.00    +0.000 OA
ENDROOT
BRANCH   1   5
ATOM      2  C   UNL     1       1.288   2.585  21.713  0.00  0.00    +0.000 C 
ATOM      3  C   UNL     1       2.164   3.545  20.967  0.00  0.00    +0.000 A 
ATOM      4  C   UNL     1       3.402   3.172  20.484  0.00  0.00    +0.000 A 
ATOM      5  C   UNL     1       4.105   4.153  19.822  0.00  0.00    +0.000 A 
ATOM      6  N   UNL     1       3.619   5.387  19.598  0.00  0.00    +0.000 NA
ATOM      7  C   UNL     1       2.429   5.678  20.137  0.00  0.00    +0.000 A 
ATOM      8  N   UNL     1       1.678   4.797  20.822  0.00  0.00    +0.000 NA
BRANCH   7   9
ATOM      9  C   UNL     1       1.945   7.058  20.010  0.00  0.00    +0.000 A 
ATOM     10  C   UNL     1       1.236   7.705  21.035  0.00  0.00    +0.000 A 
ATOM     11  C   UNL     1       0.806   9.023  20.884  0.00  0.00    +0.000 A 
ATOM     12  C   UNL     1       1.089   9.670  19.695  0.00  0.00    +0.000 A 
ATOM     13  N   UNL     1       1.748   9.093  18.671  0.00  0.00    +0.000 NA
ATOM     14  C   UNL     1       2.155   7.809  18.855  0.00  0.00    +0.000 A 
ENDBRANCH   7   9
ENDBRANCH   1   5
BRANCH   1  15
ATOM     15  C   UNL     1       6.058   4.776  18.620  0.00  0.00    +0.000 A 
ATOM     16  C   UNL     1       7.197   5.445  19.084  0.00  0.00    +0.000 A 
ATOM     17  C   UNL     1       7.781   6.452  18.325  0.00  0.00    +0.000 A 
ATOM     18  C   UNL     1       7.281   6.741  17.061  0.00  0.00    +0.000 A 
ATOM     19  C   UNL     1       6.240   5.974  16.523  0.00  0.00    +0.000 A 
ATOM     20  C   UNL     1       5.599   5.017  17.320  0.00  0.00    +0.000 A 
BRANCH  19  21
ATOM     21  O   UNL     1       5.758   6.166  15.244  0.00  0.00    +0.000 OA
BRANCH  21  22
ATOM     22  C   UNL     1       6.220   5.315  14.243  0.00  0.00    +0.000 A 
ATOM     23  C   UNL     1       5.408   4.257  13.862  0.00  0.00    +0.000 A 
ATOM     24  N   UNL     1       5.746   3.391  12.870  0.00  0.00    +0.000 NA
ATOM     25  C   UNL     1       6.942   3.632  12.282  0.00  0.00    +0.000 A 
ATOM     26  C   UNL     1       7.766   4.671  12.676  0.00  0.00    +0.000 A 
ATOM     27  N   UNL     1       7.433   5.523  13.672  0.00  0.00    +0.000 NA
ENDBRANCH  21  22
ENDBRANCH  19  21
ENDBRANCH   1  15
TORSDOF 5
ENDMDL
MODEL 4
REMARK VINA RESULT:      -8.1      2.983      8.356
REMARK  Name = 
REMARK  6 active torsions:
REMARK  status: ('A' for Active; 'I' for Inactive)
REMARK    1  A    between atoms: C_1  and  C_2
REMARK    2  A    between atoms: C_4  and  O_5
REMARK    3  A    between atoms: O_5  and  C_6
REMARK    4  A    between atoms: C_10  and  O_11
REMARK    5  A    between atoms: O_11  and  C_12
REMARK    6  A    between atoms: C_20  and  C_21
REMARK                            x       y       z     vdW  Elec       q    Type
REMARK                         _______ _______ _______ _____ _____    ______ ____
ROOT
ATOM      1  O   UNL     1       2.104   9.065  19.489  0.00  0.00    +0.000 OA
ENDROOT
BRANCH   1   5
ATOM      2  C   UNL     1      -0.742  11.743  22.413  0.00  0.00    +0.000 C 
ATOM      3  C   UNL     1      -0.437  11.026  21.133  0.00  0.00    +0.000 A 
ATOM      4  C   UNL     1       0.743  10.332  20.953  0.00  0.00    +0.000 A 
ATOM      5  C   UNL     1       0.897   9.724  19.728  0.00  0.00    +0.000 A 
ATOM      6  N   UNL     1      -0.046   9.741  18.770  0.00  0.00    +0.000 NA
ATOM      7  C   UNL     1      -1.142  10.471  19.011  0.00  0.00    +0.000 A 
ATOM      8  N   UNL     1      -1.374  11.122  20.165  0.00  0.00    +0.000 NA
BRANCH   7   9
ATOM      9  C   UNL     1      -2.121  10.604  17.925  0.00  0.00    +0.000 A 
ATOM     10  C   UNL     1      -2.048   9.843  16.747  0.00  0.00    +0.000 A 
ATOM     11  C   UNL     1      -3.006   9.985  15.745  0.00  0.00    +0.000 A 
ATOM     12  C   UNL     1      -4.023  10.902  15.939  0.00  0.00    +0.000 A 
ATOM     13  N   UNL     1      -4.132  11.672  17.038  0.00  0.00    +0.000 NA
ATOM     14  C   UNL     1      -3.182  11.504  17.997  0.00  0.00    +0.000 A 
ENDBRANCH   7   9
ENDBRANCH   1   5
BRANCH   1  15
ATOM     15  C   UNL     1       2.105   7.683  19.565  0.00  0.00    +0.000 A 
ATOM     16  C   UNL     1       1.523   6.981  20.628  0.00  0.00    +0.000 A 
ATOM     17  C   UNL     1       1.633   5.598  20.701  0.00  0.00    +0.000 A 
ATOM     18  C   UNL     1       2.252   4.899  19.673  0.00  0.00    +0.000 A 
ATOM     19  C   UNL     1       2.701   5.576  18.532  0.00  0.00    +0.000 A 
ATOM     20  C   UNL     1       2.665   6.976  18.496  0.00  0.00    +0.000 A 
BRANCH  19  21
ATOM     21  O   UNL     1       3.251   4.923  17.447  0.00  0.00    +0.000 OA
BRANCH  21  22
ATOM     22  C   UNL     1       4.638   4.926  17.323  0.00  0.00    +0.000 A 
ATOM     23  C   UNL     1       5.389   4.527  18.419  0.00  0.00    +0.000 A 
ATOM     24  N   UNL     1       6.747   4.456  18.393  0.00  0.00    +0.000 NA
ATOM     25  C   UNL     1       7.316   4.813  17.217  0.00  0.00    +0.000 A 
ATOM     26  C   UNL     1       6.572   5.236  16.130  0.00  0.00    +0.000 A 
ATOM     27  N   UNL     1       5.222   5.318  16.163  0.00  0.00    +0.000 NA
ENDBRANCH  21  22
ENDBRANCH  19  21
ENDBRANCH   1  15
TORSDOF 5
ENDMDL
MODEL 5
REMARK VINA RESULT:      -8.1      2.626      5.041
REMARK  Name = 
REMARK  6 active torsions:
REMARK  status: ('A' for Active; 'I' for Inactive)
REMARK    1  A    between atoms: C_1  and  C_2
REMARK    2  A    between atoms: C_4  and  O_5
REMARK    3  A    between atoms: O_5  and  C_6
REMARK    4  A    between atoms: C_10  and  O_11
REMARK    5  A    between atoms: O_11  and  C_12
REMARK    6  A    between atoms: C_20  and  C_21
REMARK                            x       y       z     vdW  Elec       q    Type
REMARK                         _______ _______ _______ _____ _____    ______ ____
ROOT
ATOM      1  O   UNL     1       2.438   6.860  20.391  0.00  0.00    +0.000 OA
ENDROOT
BRANCH   1   5
ATOM      2  C   UNL     1       0.968   2.488  18.795  0.00  0.00    +0.000 C 
ATOM      3  C   UNL     1       1.925   3.640  18.850  0.00  0.00    +0.000 A 
ATOM      4  C   UNL     1       1.704   4.728  19.670  0.00  0.00    +0.000 A 
ATOM      5  C   UNL     1       2.659   5.718  19.620  0.00  0.00    +0.000 A 
ATOM      6  N   UNL     1       3.773   5.633  18.871  0.00  0.00    +0.000 NA
ATOM      7  C   UNL     1       3.888   4.564  18.074  0.00  0.00    +0.000 A 
ATOM      8  N   UNL     1       2.997   3.557  18.033  0.00  0.00    +0.000 NA
BRANCH   7   9
ATOM      9  C   UNL     1       5.033   4.521  17.158  0.00  0.00    +0.000 A 
ATOM     10  C   UNL     1       4.889   4.287  15.780  0.00  0.00    +0.000 A 
ATOM     11  C   UNL     1       6.001   4.268  14.939  0.00  0.00    +0.000 A 
ATOM     12  C   UNL     1       7.247   4.477  15.499  0.00  0.00    +0.000 A 
ATOM     13  N   UNL     1       7.448   4.687  16.815  0.00  0.00    +0.000 NA
ATOM     14  C   UNL     1       6.341   4.702  17.605  0.00  0.00    +0.000 A 
ENDBRANCH   7   9
ENDBRANCH   1   5
BRANCH   1  15
ATOM     15  C   UNL     1       1.891   7.963  19.759  0.00  0.00    +0.000 A 
ATOM     16  C   UNL     1       2.123   8.259  18.411  0.00  0.00    +0.000 A 
ATOM     17  C   UNL     1       1.625   9.428  17.850  0.00  0.00    +0.000 A 
ATOM     18  C   UNL     1       0.822  10.270  18.610  0.00  0.00    +0.000 A 
ATOM     19  C   UNL     1       0.456   9.907  19.912  0.00  0.00    +0.000 A 
ATOM     20  C   UNL     1       1.025   8.772  20.503  0.00  0.00    +0.000 A 
BRANCH  19  21
ATOM     21  O   UNL     1      -0.403  10.666  20.682  0.00  0.00    +0.000 OA
BRANCH  21  22
ATOM     22  C   UNL     1      -0.182  12.040  20.737  0.00  0.00    +0.000 A 
ATOM     23  C   UNL     1      -1.142  12.876  20.185  0.00  0.00    +0.000 A 
ATOM     24  N   UNL     1      -1.044  14.232  20.220  0.00  0.00    +0.000 NA
ATOM     25  C   UNL     1       0.068  14.710  20.828  0.00  0.00    +0.000 A 
ATOM     26  C   UNL     1       1.039  13.879  21.357  0.00  0.00    +0.000 A 
ATOM     27  N   UNL     1       0.945  12.531  21.310  0.00  0.00    +0.000 NA
ENDBRANCH  21  22
ENDBRANCH  19  21
ENDBRANCH   1  15
TORSDOF 5
ENDMDL
MODEL 6
REMARK VINA RESULT:      -8.1      1.182      1.618
REMARK  Name = 
REMARK  6 active torsions:
REMARK  status: ('A' for Active; 'I' for Inactive)
REMARK    1  A    between atoms: C_1  and  C_2
REMARK    2  A    between atoms: C_4  and  O_5
REMARK    3  A    between atoms: O_5  and  C_6
REMARK    4  A    between atoms: C_10  and  O_11
REMARK    5  A    between atoms: O_11  and  C_12
REMARK    6  A    between atoms: C_20  and  C_21
REMARK                            x       y       z     vdW  Elec       q    Type
REMARK                         _______ _______ _______ _____ _____    ______ ____
ROOT
ATOM      1  O   UNL     1       5.032   3.968  19.031  0.00  0.00    +0.000 OA
ENDROOT
BRANCH   1   5
ATOM      2  C   UNL     1       8.123   7.649  18.187  0.00  0.00    +0.000 C 
ATOM      3  C   UNL     1       7.277   6.489  17.761  0.00  0.00    +0.000 A 
ATOM      4  C   UNL     1       6.504   5.785  18.663  0.00  0.00    +0.000 A 
ATOM      5  C   UNL     1       5.779   4.739  18.139  0.00  0.00    +0.000 A 
ATOM      6  N   UNL     1       5.762   4.434  16.829  0.00  0.00    +0.000 NA
ATOM      7  C   UNL     1       6.572   5.140  16.031  0.00  0.00    +0.000 A 
ATOM      8  N   UNL     1       7.338   6.162  16.452  0.00  0.00    +0.000 NA
BRANCH   7   9
ATOM      9  C   UNL     1       6.661   4.734  14.624  0.00  0.00    +0.000 A 
ATOM     10  C   UNL     1       5.794   3.785  14.057  0.00  0.00    +0.000 A 
ATOM     11  C   UNL     1       5.899   3.437  12.711  0.00  0.00    +0.000 A 
ATOM     12  C   UNL     1       6.884   4.044  11.954  0.00  0.00    +0.000 A 
ATOM     13  N   UNL     1       7.755   4.945  12.448  0.00  0.00    +0.000 NA
ATOM     14  C   UNL     1       7.622   5.263  13.764  0.00  0.00    +0.000 A 
ENDBRANCH   7   9
ENDBRANCH   1   5
BRANCH   1  15
ATOM     15  C   UNL     1       3.867   4.518  19.534  0.00  0.00    +0.000 A 
ATOM     16  C   UNL     1       3.001   3.817  20.382  0.00  0.00    +0.000 A 
ATOM     17  C   UNL     1       1.798   4.384  20.785  0.00  0.00    +0.000 A 
ATOM     18  C   UNL     1       1.489   5.686  20.410  0.00  0.00    +0.000 A 
ATOM     19  C   UNL     1       2.416   6.450  19.691  0.00  0.00    +0.000 A 
ATOM     20  C   UNL     1       3.591   5.852  19.216  0.00  0.00    +0.000 A 
BRANCH  19  21
ATOM     21  O   UNL     1       2.195   7.773  19.362  0.00  0.00    +0.000 OA
BRANCH  21  22
ATOM     22  C   UNL     1       1.466   8.550  20.258  0.00  0.00    +0.000 A 
ATOM     23  C   UNL     1       0.591   9.494  19.738  0.00  0.00    +0.000 A 
ATOM     24  N   UNL     1      -0.196  10.277  20.523  0.00  0.00    +0.000 NA
ATOM     25  C   UNL     1      -0.058  10.076  21.855  0.00  0.00    +0.000 A 
ATOM     26  C   UNL     1       0.832   9.154  22.378  0.00  0.00    +0.000 A 
ATOM     27  N   UNL     1       1.623   8.385  21.596  0.00  0.00    +0.000 NA
ENDBRANCH  21  22
ENDBRANCH  19  21
ENDBRANCH   1  15
TORSDOF 5
ENDMDL
MODEL 7
REMARK VINA RESULT:      -8.1      0.959      1.312
REMARK  Name = 
REMARK  6 active torsions:
REMARK  status: ('A' for Active; 'I' for Inactive)
REMARK    1  A    between atoms: C_1  and  C_2
REMARK    2  A    between atoms: C_4  and  O_5
REMARK    3  A    between atoms: O_5  and  C_6
REMARK    4  A    between atoms: C_10  and  O_11
REMARK    5  A    between atoms: O_11  and  C_12
REMARK    6  A    between atoms: C_20  and  C_21
REMARK                            x       y       z     vdW  Elec       q    Type
REMARK                         _______ _______ _______ _____ _____    ______ ____
ROOT
ATOM      1  O   UNL     1       4.239   2.908  18.376  0.00  0.00    +0.000 OA
ENDROOT
BRANCH   1   5
ATOM      2  C   UNL     1       7.861   6.119  18.999  0.00  0.00    +0.000 C 
ATOM      3  C   UNL     1       6.959   5.265  18.160  0.00  0.00    +0.000 A 
ATOM      4  C   UNL     1       5.966   4.490  18.722  0.00  0.00    +0.000 A 
ATOM      5  C   UNL     1       5.213   3.750  17.838  0.00  0.00    +0.000 A 
ATOM      6  N   UNL     1       5.377   3.801  16.505  0.00  0.00    +0.000 NA
ATOM      7  C   UNL     1       6.391   4.546  16.046  0.00  0.00    +0.000 A 
ATOM      8  N   UNL     1       7.197   5.284  16.831  0.00  0.00    +0.000 NA
BRANCH   7   9
ATOM      9  C   UNL     1       6.662   4.510  14.605  0.00  0.00    +0.000 A 
ATOM     10  C   UNL     1       6.013   3.616  13.738  0.00  0.00    +0.000 A 
ATOM     11  C   UNL     1       6.286   3.622  12.371  0.00  0.00    +0.000 A 
ATOM     12  C   UNL     1       7.218   4.526  11.894  0.00  0.00    +0.000 A 
ATOM     13  N   UNL     1       7.885   5.392  12.681  0.00  0.00    +0.000 NA
ATOM     14  C   UNL     1       7.592   5.360  14.008  0.00  0.00    +0.000 A 
ENDBRANCH   7   9
ENDBRANCH   1   5
BRANCH   1  15
ATOM     15  C   UNL     1       3.166   3.499  19.019  0.00  0.00    +0.000 A 
ATOM     16  C   UNL     1       1.973   2.817  19.288  0.00  0.00    +0.000 A 
ATOM     17  C   UNL     1       0.893   3.484  19.854  0.00  0.00    +0.000 A 
ATOM     18  C   UNL     1       1.025   4.815  20.231  0.00  0.00    +0.000 A 
ATOM     19  C   UNL     1       2.260   5.463  20.109  0.00  0.00    +0.000 A 
ATOM     20  C   UNL     1       3.322   4.817  19.463  0.00  0.00    +0.000 A 
BRANCH  19  21
ATOM     21  O   UNL     1       2.468   6.757  20.541  0.00  0.00    +0.000 OA
BRANCH  21  22
ATOM     22  C   UNL     1       2.046   7.793  19.711  0.00  0.00    +0.000 A 
ATOM     23  C   UNL     1       2.504   7.804  18.401  0.00  0.00    +0.000 A 
ATOM     24  N   UNL     1       2.124   8.747  17.497  0.00  0.00    +0.000 NA
ATOM     25  C   UNL     1       1.269   9.683  17.972  0.00  0.00    +0.000 A 
ATOM     26  C   UNL     1       0.830   9.690  19.285  0.00  0.00    +0.000 A 
ATOM     27  N   UNL     1       1.220   8.759  20.184  0.00  0.00    +0.000 NA
ENDBRANCH  21  22
ENDBRANCH  19  21
ENDBRANCH   1  15
TORSDOF 5
ENDMDL
MODEL 8
REMARK VINA RESULT:      -8.1      5.126      8.548
REMARK  Name = 
REMARK  6 active torsions:
REMARK  status: ('A' for Active; 'I' for Inactive)
REMARK    1  A    between atoms: C_1  and  C_2
REMARK    2  A    between atoms: C_4  and  O_5
REMARK    3  A    between atoms: O_5  and  C_6
REMARK    4  A    between atoms: C_10  and  O_11
REMARK    5  A    between atoms: O_11  and  C_12
REMARK    6  A    between atoms: C_20  and  C_21
REMARK                            x       y       z     vdW  Elec       q    Type
REMARK                         _______ _______ _______ _____ _____    ______ ____
ROOT
ATOM      1  O   UNL     1      -0.374  11.380  18.690  0.00  0.00    +0.000 OA
ENDROOT
BRANCH   1   5
ATOM      2  C   UNL     1      -0.015   9.411  23.141  0.00  0.00    +0.000 C 
ATOM      3  C   UNL     1       0.311   9.485  21.681  0.00  0.00    +0.000 A 
ATOM      4  C   UNL     1      -0.202  10.479  20.872  0.00  0.00    +0.000 A 
ATOM      5  C   UNL     1       0.173  10.426  19.549  0.00  0.00    +0.000 A 
ATOM      6  N   UNL     1       1.026   9.509  19.059  0.00  0.00    +0.000 NA
ATOM      7  C   UNL     1       1.442   8.556  19.902  0.00  0.00    +0.000 A 
ATOM      8  N   UNL     1       1.112   8.507  21.205  0.00  0.00    +0.000 NA
BRANCH   7   9
ATOM      9  C   UNL     1       2.270   7.476  19.351  0.00  0.00    +0.000 A 
ATOM     10  C   UNL     1       2.933   7.589  18.117  0.00  0.00    +0.000 A 
ATOM     11  C   UNL     1       3.723   6.548  17.634  0.00  0.00    +0.000 A 
ATOM     12  C   UNL     1       3.828   5.399  18.396  0.00  0.00    +0.000 A 
ATOM     13  N   UNL     1       3.200   5.227  19.576  0.00  0.00    +0.000 NA
ATOM     14  C   UNL     1       2.441   6.265  20.018  0.00  0.00    +0.000 A 
ENDBRANCH   7   9
ENDBRANCH   1   5
BRANCH   1  15
ATOM     15  C   UNL     1      -1.568  11.069  18.065  0.00  0.00    +0.000 A 
ATOM     16  C   UNL     1      -1.679  10.065  17.095  0.00  0.00    +0.000 A 
ATOM     17  C   UNL     1      -2.882   9.856  16.433  0.00  0.00    +0.000 A 
ATOM     18  C   UNL     1      -4.005  10.592  16.791  0.00  0.00    +0.000 A 
ATOM     19  C   UNL     1      -3.945  11.489  17.864  0.00  0.00    +0.000 A 
ATOM     20  C   UNL     1      -2.714  11.760  18.476  0.00  0.00    +0.000 A 
BRANCH  19  21
ATOM     21  O   UNL     1      -5.048  12.186  18.314  0.00  0.00    +0.000 OA
BRANCH  21  22
ATOM     22  C   UNL     1      -5.908  11.539  19.198  0.00  0.00    +0.000 A 
ATOM     23  C   UNL     1      -6.071  12.085  20.464  0.00  0.00    +0.000 A 
ATOM     24  N   UNL     1      -6.915  11.555  21.389  0.00  0.00    +0.000 NA
ATOM     25  C   UNL     1      -7.581  10.446  20.989  0.00  0.00    +0.000 A 
ATOM     26  C   UNL     1      -7.401   9.885  19.737  0.00  0.00    +0.000 A 
ATOM     27  N   UNL     1      -6.552  10.406  18.823  0.00  0.00    +0.000 NA
ENDBRANCH  21  22
ENDBRANCH  19  21
ENDBRANCH   1  15
TORSDOF 5
ENDMDL
MODEL 9
REMARK VINA RESULT:      -8.0      2.339      7.761
REMARK  Name = 
REMARK  6 active torsions:
REMARK  status: ('A' for Active; 'I' for Inactive)
REMARK    1  A    between atoms: C_1  and  C_2
REMARK    2  A    between atoms: C_4  and  O_5
REMARK    3  A    between atoms: O_5  and  C_6
REMARK    4  A    between atoms: C_10  and  O_11
REMARK    5  A    between atoms: O_11  and  C_12
REMARK    6  A    between atoms: C_20  and  C_21
REMARK                            x       y       z     vdW  Elec       q    Type
REMARK                         _______ _______ _______ _____ _____    ______ ____
ROOT
ATOM      1  O   UNL     1       1.828   5.315  21.014  0.00  0.00    +0.000 OA
ENDROOT
BRANCH   1   5
ATOM      2  C   UNL     1       2.723   8.536  17.457  0.00  0.00    +0.000 C 
ATOM      3  C   UNL     1       2.182   8.137  18.796  0.00  0.00    +0.000 A 
ATOM      4  C   UNL     1       2.314   6.851  19.279  0.00  0.00    +0.000 A 
ATOM      5  C   UNL     1       1.766   6.619  20.520  0.00  0.00    +0.000 A 
ATOM      6  N   UNL     1       1.183   7.578  21.261  0.00  0.00    +0.000 NA
ATOM      7  C   UNL     1       1.059   8.787  20.700  0.00  0.00    +0.000 A 
ATOM      8  N   UNL     1       1.538   9.105  19.484  0.00  0.00    +0.000 NA
BRANCH   7   9
ATOM      9  C   UNL     1       0.312   9.807  21.445  0.00  0.00    +0.000 A 
ATOM     10  C   UNL     1      -0.447   9.502  22.587  0.00  0.00    +0.000 A 
ATOM     11  C   UNL     1      -1.131  10.502  23.277  0.00  0.00    +0.000 A 
ATOM     12  C   UNL     1      -1.050  11.797  22.802  0.00  0.00    +0.000 A 
ATOM     13  N   UNL     1      -0.354  12.145  21.701  0.00  0.00    +0.000 NA
ATOM     14  C   UNL     1       0.303  11.145  21.055  0.00  0.00    +0.000 A 
ENDBRANCH   7   9
ENDBRANCH   1   5
BRANCH   1  15
ATOM     15  C   UNL     1       1.930   4.287  20.094  0.00  0.00    +0.000 A 
ATOM     16  C   UNL     1       0.874   3.410  19.816  0.00  0.00    +0.000 A 
ATOM     17  C   UNL     1       1.058   2.338  18.951  0.00  0.00    +0.000 A 
ATOM     18  C   UNL     1       2.273   2.181  18.295  0.00  0.00    +0.000 A 
ATOM     19  C   UNL     1       3.284   3.139  18.447  0.00  0.00    +0.000 A 
ATOM     20  C   UNL     1       3.128   4.172  19.381  0.00  0.00    +0.000 A 
BRANCH  19  21
ATOM     21  O   UNL     1       4.479   3.075  17.758  0.00  0.00    +0.000 OA
BRANCH  21  22
ATOM     22  C   UNL     1       5.238   4.239  17.669  0.00  0.00    +0.000 A 
ATOM     23  C   UNL     1       4.875   5.181  16.718  0.00  0.00    +0.000 A 
ATOM     24  N   UNL     1       5.525   6.367  16.573  0.00  0.00    +0.000 NA
ATOM     25  C   UNL     1       6.561   6.560  17.423  0.00  0.00    +0.000 A 
ATOM     26  C   UNL     1       6.942   5.612  18.356  0.00  0.00    +0.000 A 
ATOM     27  N   UNL     1       6.303   4.428  18.489  0.00  0.00    +0.000 NA
ENDBRANCH  21  22
ENDBRANCH  19  21
ENDBRANCH   1  15
TORSDOF 5
ENDMDL
