MODEL 1
REMARK VINA RESULT:      -8.4      0.000      0.000
REMARK  Name = 
REMARK  7 active torsions:
REMARK  status: ('A' for Active; 'I' for Inactive)
REMARK    1  A    between atoms: C_1  and  C_2
REMARK    2  A    between atoms: C_6  and  O_7
REMARK    3  A    between atoms: O_7  and  C_8
REMARK    4  A    between atoms: C_11  and  N_12
REMARK    5  A    between atoms: C_13  and  C_15
REMARK    6  A    between atoms: C_17  and  C_18
REMARK    7  A    between atoms: C_25  and  C_26
REMARK                            x       y       z     vdW  Elec       q    Type
REMARK                         _______ _______ _______ _____ _____    ______ ____
ROOT
ATOM      1  N   UNL     1       4.476   3.744  18.560  0.00  0.00    +0.000 N 
ATOM      2  C   UNL     1       5.634   4.503  18.765  0.00  0.00    +0.000 C 
ATOM      3  O   UNL     1       5.995   4.946  19.849  0.00  0.00    +0.000 OA
ATOM      4  H   UNL     1       4.180   3.775  17.587  0.00  0.00    +0.000 HD
ENDROOT
BRANCH   1  11
ATOM      5  C   UNL     1       4.621   1.735  20.825  0.00  0.00    +0.000 C 
ATOM      6  C   UNL     1       3.467   2.667  20.574  0.00  0.00    +0.000 A 
ATOM      7  C   UNL     1       2.341   2.513  21.404  0.00  0.00    +0.000 A 
ATOM      8  C   UNL     1       1.192   3.267  21.231  0.00  0.00    +0.000 A 
ATOM      9  C   UNL     1       1.139   4.203  20.190  0.00  0.00    +0.000 A 
ATOM     10  C   UNL     1       2.230   4.351  19.325  0.00  0.00    +0.000 A 
ATOM     11  C   UNL     1       3.428   3.611  19.520  0.00  0.00    +0.000 A 
BRANCH  10  12
ATOM     12  O   UNL     1       2.226   5.257  18.287  0.00  0.00    +0.000 OA
BRANCH  12  13
ATOM     13  C   UNL     1       2.591   6.586  18.636  0.00  0.00    +0.000 C 
ATOM     14  F   UNL     1       3.052   6.607  19.913  0.00  0.00    +0.000 F 
ATOM     15  F   UNL     1       3.633   6.938  17.840  0.00  0.00    +0.000 F 
ENDBRANCH  12  13
ENDBRANCH  10  12
ENDBRANCH   1  11
BRANCH   2  16
ATOM     16  C   UNL     1       6.347   4.809  17.506  0.00  0.00    +0.000 A 
ATOM     17  N   UNL     1       6.190   4.015  16.364  0.00  0.00    +0.000 NA
ATOM     18  C   UNL     1       6.825   4.679  15.417  0.00  0.00    +0.000 A 
ATOM     19  O   UNL     1       7.467   5.800  15.856  0.00  0.00    +0.000 OA
ATOM     20  C   UNL     1       7.155   5.896  17.184  0.00  0.00    +0.000 A 
BRANCH  18  21
ATOM     21  C   UNL     1       6.864   4.447  13.972  0.00  0.00    +0.000 A 
ATOM     22  C   UNL     1       6.028   3.482  13.396  0.00  0.00    +0.000 A 
ATOM     23  C   UNL     1       6.038   3.261  12.016  0.00  0.00    +0.000 A 
ATOM     24  C   UNL     1       6.880   4.008  11.193  0.00  0.00    +0.000 A 
ATOM     25  C   UNL     1       7.705   4.984  11.745  0.00  0.00    +0.000 A 
ATOM     26  C   UNL     1       7.694   5.203  13.125  0.00  0.00    +0.000 A 
ENDBRANCH  18  21
BRANCH  20  27
ATOM     27  C   UNL     1       7.594   7.079  18.038  0.00  0.00    +0.000 C 
ATOM     28  C   UNL     1       6.833   8.386  17.835  0.00  0.00    +0.000 C 
ATOM     29  C   UNL     1       8.244   8.288  17.379  0.00  0.00    +0.000 C 
ENDBRANCH  20  27
ENDBRANCH   2  16
TORSDOF 6
ENDMDL
MODEL 2
REMARK VINA RESULT:      -8.1      2.079      2.875
REMARK  Name = 
REMARK  7 active torsions:
REMARK  status: ('A' for Active; 'I' for Inactive)
REMARK    1  A    between atoms: C_1  and  C_2
REMARK    2  A    between atoms: C_6  and  O_7
REMARK    3  A    between atoms: O_7  and  C_8
REMARK    4  A    between atoms: C_11  and  N_12
REMARK    5  A    between atoms: C_13  and  C_15
REMARK    6  A    between atoms: C_17  and  C_18
REMARK    7  A    between atoms: C_25  and  C_26
REMARK                            x       y       z     vdW  Elec       q    Type
REMARK                         _______ _______ _______ _____ _____    ______ ____
ROOT
ATOM      1  N   UNL     1       4.403   3.600  18.621  0.00  0.00    +0.000 N 
ATOM      2  C   UNL     1       5.184   4.755  18.744  0.00  0.00    +0.000 C 
ATOM      3  O   UNL     1       5.175   5.504  19.715  0.00  0.00    +0.000 OA
ATOM      4  H   UNL     1       4.295   3.328  17.646  0.00  0.00    +0.000 HD
ENDROOT
BRANCH   1  11
ATOM      5  C   UNL     1       1.578   4.507  18.002  0.00  0.00    +0.000 C 
ATOM      6  C   UNL     1       1.980   3.713  19.215  0.00  0.00    +0.000 A 
ATOM      7  C   UNL     1       0.975   3.466  20.168  0.00  0.00    +0.000 A 
ATOM      8  C   UNL     1       1.236   2.803  21.356  0.00  0.00    +0.000 A 
ATOM      9  C   UNL     1       2.542   2.375  21.627  0.00  0.00    +0.000 A 
ATOM     10  C   UNL     1       3.570   2.640  20.714  0.00  0.00    +0.000 A 
ATOM     11  C   UNL     1       3.304   3.284  19.475  0.00  0.00    +0.000 A 
BRANCH  10  12
ATOM     12  O   UNL     1       4.870   2.241  20.937  0.00  0.00    +0.000 OA
BRANCH  12  13
ATOM     13  C   UNL     1       5.052   0.845  21.135  0.00  0.00    +0.000 C 
ATOM     14  F   UNL     1       5.422   0.266  19.965  0.00  0.00    +0.000 F 
ATOM     15  F   UNL     1       6.096   0.695  21.991  0.00  0.00    +0.000 F 
ENDBRANCH  12  13
ENDBRANCH  10  12
ENDBRANCH   1  11
BRANCH   2  16
ATOM     16  C   UNL     1       5.969   5.047  17.526  0.00  0.00    +0.000 A 
ATOM     17  N   UNL     1       5.941   4.195  16.415  0.00  0.00    +0.000 NA
ATOM     18  C   UNL     1       6.606   4.853  15.484  0.00  0.00    +0.000 A 
ATOM     19  O   UNL     1       7.151   6.028  15.913  0.00  0.00    +0.000 OA
ATOM     20  C   UNL     1       6.737   6.164  17.209  0.00  0.00    +0.000 A 
BRANCH  18  21
ATOM     21  C   UNL     1       6.763   4.560  14.059  0.00  0.00    +0.000 A 
ATOM     22  C   UNL     1       5.978   3.567  13.457  0.00  0.00    +0.000 A 
ATOM     23  C   UNL     1       6.101   3.289  12.094  0.00  0.00    +0.000 A 
ATOM     24  C   UNL     1       7.007   4.003  11.311  0.00  0.00    +0.000 A 
ATOM     25  C   UNL     1       7.783   5.006  11.887  0.00  0.00    +0.000 A 
ATOM     26  C   UNL     1       7.659   5.284  13.251  0.00  0.00    +0.000 A 
ENDBRANCH  18  21
BRANCH  20  27
ATOM     27  C   UNL     1       7.046   7.407  18.035  0.00  0.00    +0.000 C 
ATOM     28  C   UNL     1       8.029   8.403  17.425  0.00  0.00    +0.000 C 
ATOM     29  C   UNL     1       8.442   7.605  18.609  0.00  0.00    +0.000 C 
ENDBRANCH  20  27
ENDBRANCH   2  16
TORSDOF 6
ENDMDL
MODEL 3
REMARK VINA RESULT:      -8.1      3.203      7.954
REMARK  Name = 
REMARK  7 active torsions:
REMARK  status: ('A' for Active; 'I' for Inactive)
REMARK    1  A    between atoms: C_1  and  C_2
REMARK    2  A    between atoms: C_6  and  O_7
REMARK    3  A    between atoms: O_7  and  C_8
REMARK    4  A    between atoms: C_11  and  N_12
REMARK    5  A    between atoms: C_13  and  C_15
REMARK    6  A    between atoms: C_17  and  C_18
REMARK    7  A    between atoms: C_25  and  C_26
REMARK                            x       y       z     vdW  Elec       q    Type
REMARK                         _______ _______ _______ _____ _____    ______ ____
ROOT
ATOM      1  N   UNL     1       4.011   6.015  17.875  0.00  0.00    +0.000 N 
ATOM      2  C   UNL     1       4.081   5.747  19.246  0.00  0.00    +0.000 C 
ATOM      3  O   UNL     1       4.992   5.135  19.793  0.00  0.00    +0.000 OA
ATOM      4  H   UNL     1       3.055   6.210  17.583  0.00  0.00    +0.000 HD
ENDROOT
BRANCH   1  11
ATOM      5  C   UNL     1       3.461   3.210  16.866  0.00  0.00    +0.000 C 
ATOM      6  C   UNL     1       4.611   4.073  16.424  0.00  0.00    +0.000 A 
ATOM      7  C   UNL     1       5.542   3.482  15.551  0.00  0.00    +0.000 A 
ATOM      8  C   UNL     1       6.677   4.152  15.124  0.00  0.00    +0.000 A 
ATOM      9  C   UNL     1       6.917   5.453  15.585  0.00  0.00    +0.000 A 
ATOM     10  C   UNL     1       6.026   6.053  16.484  0.00  0.00    +0.000 A 
ATOM     11  C   UNL     1       4.839   5.389  16.895  0.00  0.00    +0.000 A 
BRANCH  10  12
ATOM     12  O   UNL     1       6.219   7.329  16.965  0.00  0.00    +0.000 OA
BRANCH  12  13
ATOM     13  C   UNL     1       7.532   7.613  17.430  0.00  0.00    +0.000 C 
ATOM     14  F   UNL     1       7.612   8.919  17.790  0.00  0.00    +0.000 F 
ATOM     15  F   UNL     1       7.723   6.885  18.561  0.00  0.00    +0.000 F 
ENDBRANCH  12  13
ENDBRANCH  10  12
ENDBRANCH   1  11
BRANCH   2  16
ATOM     16  C   UNL     1       2.879   6.199  19.979  0.00  0.00    +0.000 A 
ATOM     17  N   UNL     1       2.685   7.546  20.310  0.00  0.00    +0.000 NA
ATOM     18  C   UNL     1       1.456   7.589  20.789  0.00  0.00    +0.000 A 
ATOM     19  O   UNL     1       0.854   6.369  20.890  0.00  0.00    +0.000 OA
ATOM     20  C   UNL     1       1.749   5.480  20.363  0.00  0.00    +0.000 A 
BRANCH  18  21
ATOM     21  C   UNL     1       0.624   8.742  21.135  0.00  0.00    +0.000 A 
ATOM     22  C   UNL     1       0.221   8.941  22.462  0.00  0.00    +0.000 A 
ATOM     23  C   UNL     1      -0.556  10.047  22.814  0.00  0.00    +0.000 A 
ATOM     24  C   UNL     1      -0.937  10.973  21.844  0.00  0.00    +0.000 A 
ATOM     25  C   UNL     1      -0.530  10.802  20.523  0.00  0.00    +0.000 A 
ATOM     26  C   UNL     1       0.247   9.696  20.173  0.00  0.00    +0.000 A 
ENDBRANCH  18  21
BRANCH  20  27
ATOM     27  C   UNL     1       1.422   4.002  20.191  0.00  0.00    +0.000 C 
ATOM     28  C   UNL     1       1.389   3.160  21.462  0.00  0.00    +0.000 C 
ATOM     29  C   UNL     1       2.487   2.954  20.482  0.00  0.00    +0.000 C 
ENDBRANCH  20  27
ENDBRANCH   2  16
TORSDOF 6
ENDMDL
MODEL 4
REMARK VINA RESULT:      -8.0      0.834      1.319
REMARK  Name = 
REMARK  7 active torsions:
REMARK  status: ('A' for Active; 'I' for Inactive)
REMARK    1  A    between atoms: C_1  and  C_2
REMARK    2  A    between atoms: C_6  and  O_7
REMARK    3  A    between atoms: O_7  and  C_8
REMARK    4  A    between atoms: C_11  and  N_12
REMARK    5  A    between atoms: C_13  and  C_15
REMARK    6  A    between atoms: C_17  and  C_18
REMARK    7  A    between atoms: C_25  and  C_26
REMARK                            x       y       z     vdW  Elec       q    Type
REMARK                         _______ _______ _______ _____ _____    ______ ____
ROOT
ATOM      1  N   UNL     1       4.768   3.972  18.735  0.00  0.00    +0.000 N 
ATOM      2  C   UNL     1       5.959   4.697  18.844  0.00  0.00    +0.000 C 
ATOM      3  O   UNL     1       6.469   5.047  19.903  0.00  0.00    +0.000 OA
ATOM      4  H   UNL     1       4.348   4.085  17.814  0.00  0.00    +0.000 HD
ENDROOT
BRANCH   1  11
ATOM      5  C   UNL     1       4.624   1.359  20.264  0.00  0.00    +0.000 C 
ATOM      6  C   UNL     1       3.754   2.558  20.526  0.00  0.00    +0.000 A 
ATOM      7  C   UNL     1       2.741   2.403  21.491  0.00  0.00    +0.000 A 
ATOM      8  C   UNL     1       1.836   3.412  21.774  0.00  0.00    +0.000 A 
ATOM      9  C   UNL     1       1.918   4.621  21.072  0.00  0.00    +0.000 A 
ATOM     10  C   UNL     1       2.893   4.791  20.080  0.00  0.00    +0.000 A 
ATOM     11  C   UNL     1       3.850   3.776  19.811  0.00  0.00    +0.000 A 
BRANCH  10  12
ATOM     12  O   UNL     1       3.013   5.961  19.363  0.00  0.00    +0.000 OA
BRANCH  12  13
ATOM     13  C   UNL     1       1.949   6.232  18.459  0.00  0.00    +0.000 C 
ATOM     14  F   UNL     1       2.231   7.357  17.753  0.00  0.00    +0.000 F 
ATOM     15  F   UNL     1       1.912   5.211  17.565  0.00  0.00    +0.000 F 
ENDBRANCH  12  13
ENDBRANCH  10  12
ENDBRANCH   1  11
BRANCH   2  16
ATOM     16  C   UNL     1       6.509   5.094  17.530  0.00  0.00    +0.000 A 
ATOM     17  N   UNL     1       6.511   4.215  16.441  0.00  0.00    +0.000 NA
ATOM     18  C   UNL     1       6.907   4.957  15.424  0.00  0.00    +0.000 A 
ATOM     19  O   UNL     1       7.258   6.230  15.767  0.00  0.00    +0.000 OA
ATOM     20  C   UNL     1       6.993   6.329  17.105  0.00  0.00    +0.000 A 
BRANCH  18  21
ATOM     21  C   UNL     1       6.937   4.650  13.993  0.00  0.00    +0.000 A 
ATOM     22  C   UNL     1       7.780   5.374  13.140  0.00  0.00    +0.000 A 
ATOM     23  C   UNL     1       7.837   5.081  11.775  0.00  0.00    +0.000 A 
ATOM     24  C   UNL     1       7.055   4.056  11.246  0.00  0.00    +0.000 A 
ATOM     25  C   UNL     1       6.225   3.313  12.081  0.00  0.00    +0.000 A 
ATOM     26  C   UNL     1       6.169   3.607  13.446  0.00  0.00    +0.000 A 
ENDBRANCH  18  21
BRANCH  20  27
ATOM     27  C   UNL     1       7.152   7.637  17.871  0.00  0.00    +0.000 C 
ATOM     28  C   UNL     1       8.233   8.591  17.372  0.00  0.00    +0.000 C 
ATOM     29  C   UNL     1       8.420   7.894  18.672  0.00  0.00    +0.000 C 
ENDBRANCH  20  27
ENDBRANCH   2  16
TORSDOF 6
ENDMDL
MODEL 5
REMARK VINA RESULT:      -7.7      1.799      4.599
REMARK  Name = 
REMARK  7 active torsions:
REMARK  status: ('A' for Active; 'I' for Inactive)
REMARK    1  A    between atoms: C_1  and  C_2
REMARK    2  A    between atoms: C_6  and  O_7
REMARK    3  A    between atoms: O_7  and  C_8
REMARK    4  A    between atoms: C_11  and  N_12
REMARK    5  A    between atoms: C_13  and  C_15
REMARK    6  A    between atoms: C_17  and  C_18
REMARK    7  A    between atoms: C_25  and  C_26
REMARK                            x       y       z     vdW  Elec       q    Type
REMARK                         _______ _______ _______ _____ _____    ______ ____
ROOT
ATOM      1  N   UNL     1       4.008   4.877  18.099  0.00  0.00    +0.000 N 
ATOM      2  C   UNL     1       5.371   4.714  18.372  0.00  0.00    +0.000 C 
ATOM      3  O   UNL     1       5.840   3.832  19.083  0.00  0.00    +0.000 OA
ATOM      4  H   UNL     1       3.801   5.827  17.798  0.00  0.00    +0.000 HD
ENDROOT
BRANCH   1  11
ATOM      5  C   UNL     1       3.023   2.118  17.322  0.00  0.00    +0.000 C 
ATOM      6  C   UNL     1       2.477   2.937  18.460  0.00  0.00    +0.000 A 
ATOM      7  C   UNL     1       1.365   2.408  19.141  0.00  0.00    +0.000 A 
ATOM      8  C   UNL     1       0.733   3.097  20.163  0.00  0.00    +0.000 A 
ATOM      9  C   UNL     1       1.204   4.366  20.524  0.00  0.00    +0.000 A 
ATOM     10  C   UNL     1       2.286   4.934  19.839  0.00  0.00    +0.000 A 
ATOM     11  C   UNL     1       2.965   4.218  18.817  0.00  0.00    +0.000 A 
BRANCH  10  12
ATOM     12  O   UNL     1       2.784   6.178  20.158  0.00  0.00    +0.000 OA
BRANCH  12  13
ATOM     13  C   UNL     1       2.023   7.280  19.677  0.00  0.00    +0.000 C 
ATOM     14  F   UNL     1       1.866   8.190  20.672  0.00  0.00    +0.000 F 
ATOM     15  F   UNL     1       2.760   7.883  18.709  0.00  0.00    +0.000 F 
ENDBRANCH  12  13
ENDBRANCH  10  12
ENDBRANCH   1  11
BRANCH   2  16
ATOM     16  C   UNL     1       6.204   5.786  17.786  0.00  0.00    +0.000 A 
ATOM     17  N   UNL     1       6.359   7.023  18.423  0.00  0.00    +0.000 NA
ATOM     18  C   UNL     1       7.285   7.640  17.712  0.00  0.00    +0.000 A 
ATOM     19  O   UNL     1       7.687   6.953  16.605  0.00  0.00    +0.000 OA
ATOM     20  C   UNL     1       7.013   5.765  16.653  0.00  0.00    +0.000 A 
BRANCH  18  21
ATOM     21  C   UNL     1       7.999   8.889  17.983  0.00  0.00    +0.000 A 
ATOM     22  C   UNL     1       7.672  10.050  17.270  0.00  0.00    +0.000 A 
ATOM     23  C   UNL     1       8.329  11.255  17.530  0.00  0.00    +0.000 A 
ATOM     24  C   UNL     1       9.318  11.317  18.510  0.00  0.00    +0.000 A 
ATOM     25  C   UNL     1       9.644  10.178  19.242  0.00  0.00    +0.000 A 
ATOM     26  C   UNL     1       8.986   8.973  18.981  0.00  0.00    +0.000 A 
ENDBRANCH  18  21
BRANCH  20  27
ATOM     27  C   UNL     1       7.254   4.651  15.641  0.00  0.00    +0.000 C 
ATOM     28  C   UNL     1       6.637   4.841  14.259  0.00  0.00    +0.000 C 
ATOM     29  C   UNL     1       6.087   3.798  15.163  0.00  0.00    +0.000 C 
ENDBRANCH  20  27
ENDBRANCH   2  16
TORSDOF 6
ENDMDL
MODEL 6
REMARK VINA RESULT:      -7.5      3.182      7.928
REMARK  Name = 
REMARK  7 active torsions:
REMARK  status: ('A' for Active; 'I' for Inactive)
REMARK    1  A    between atoms: C_1  and  C_2
REMARK    2  A    between atoms: C_6  and  O_7
REMARK    3  A    between atoms: O_7  and  C_8
REMARK    4  A    between atoms: C_11  and  N_12
REMARK    5  A    between atoms: C_13  and  C_15
REMARK    6  A    between atoms: C_17  and  C_18
REMARK    7  A    between atoms: C_25  and  C_26
REMARK                            x       y       z     vdW  Elec       q    Type
REMARK                         _______ _______ _______ _____ _____    ______ ____
ROOT
ATOM      1  N   UNL     1       4.248   5.950  18.023  0.00  0.00    +0.000 N 
ATOM      2  C   UNL     1       4.200   5.565  19.367  0.00  0.00    +0.000 C 
ATOM      3  O   UNL     1       5.027   4.847  19.918  0.00  0.00    +0.000 OA
ATOM      4  H   UNL     1       3.331   6.235  17.686  0.00  0.00    +0.000 HD
ENDROOT
BRANCH   1  11
ATOM      5  C   UNL     1       6.910   7.176  17.253  0.00  0.00    +0.000 C 
ATOM      6  C   UNL     1       6.342   5.916  16.663  0.00  0.00    +0.000 A 
ATOM      7  C   UNL     1       7.068   5.329  15.610  0.00  0.00    +0.000 A 
ATOM      8  C   UNL     1       6.615   4.204  14.942  0.00  0.00    +0.000 A 
ATOM      9  C   UNL     1       5.390   3.636  15.313  0.00  0.00    +0.000 A 
ATOM     10  C   UNL     1       4.627   4.219  16.333  0.00  0.00    +0.000 A 
ATOM     11  C   UNL     1       5.103   5.350  17.050  0.00  0.00    +0.000 A 
BRANCH  10  12
ATOM     12  O   UNL     1       3.416   3.698  16.733  0.00  0.00    +0.000 OA
BRANCH  12  13
ATOM     13  C   UNL     1       3.462   2.368  17.236  0.00  0.00    +0.000 C 
ATOM     14  F   UNL     1       4.204   2.340  18.373  0.00  0.00    +0.000 F 
ATOM     15  F   UNL     1       2.196   2.029  17.590  0.00  0.00    +0.000 F 
ENDBRANCH  12  13
ENDBRANCH  10  12
ENDBRANCH   1  11
BRANCH   2  16
ATOM     16  C   UNL     1       2.979   6.038  20.054  0.00  0.00    +0.000 A 
ATOM     17  N   UNL     1       2.770   7.396  20.324  0.00  0.00    +0.000 NA
ATOM     18  C   UNL     1       1.531   7.451  20.774  0.00  0.00    +0.000 A 
ATOM     19  O   UNL     1       0.933   6.232  20.913  0.00  0.00    +0.000 OA
ATOM     20  C   UNL     1       1.845   5.329  20.443  0.00  0.00    +0.000 A 
BRANCH  18  21
ATOM     21  C   UNL     1       0.684   8.611  21.054  0.00  0.00    +0.000 A 
ATOM     22  C   UNL     1       0.247   8.860  22.362  0.00  0.00    +0.000 A 
ATOM     23  C   UNL     1      -0.544   9.975  22.650  0.00  0.00    +0.000 A 
ATOM     24  C   UNL     1      -0.906  10.859  21.634  0.00  0.00    +0.000 A 
ATOM     25  C   UNL     1      -0.466  10.639  20.331  0.00  0.00    +0.000 A 
ATOM     26  C   UNL     1       0.325   9.524  20.045  0.00  0.00    +0.000 A 
ENDBRANCH  18  21
BRANCH  20  27
ATOM     27  C   UNL     1       1.531   3.842  20.325  0.00  0.00    +0.000 C 
ATOM     28  C   UNL     1       1.259   3.099  21.630  0.00  0.00    +0.000 C 
ATOM     29  C   UNL     1       2.511   2.817  20.879  0.00  0.00    +0.000 C 
ENDBRANCH  20  27
ENDBRANCH   2  16
TORSDOF 6
ENDMDL
MODEL 7
REMARK VINA RESULT:      -7.5      1.837      4.662
REMARK  Name = 
REMARK  7 active torsions:
REMARK  status: ('A' for Active; 'I' for Inactive)
REMARK    1  A    between atoms: C_1  and  C_2
REMARK    2  A    between atoms: C_6  and  O_7
REMARK    3  A    between atoms: O_7  and  C_8
REMARK    4  A    between atoms: C_11  and  N_12
REMARK    5  A    between atoms: C_13  and  C_15
REMARK    6  A    between atoms: C_17  and  C_18
REMARK    7  A    between atoms: C_25  and  C_26
REMARK                            x       y       z     vdW  Elec       q    Type
REMARK                         _______ _______ _______ _____ _____    ______ ____
ROOT
ATOM      1  N   UNL     1       3.977   4.923  18.031  0.00  0.00    +0.000 N 
ATOM      2  C   UNL     1       5.337   4.738  18.304  0.00  0.00    +0.000 C 
ATOM      3  O   UNL     1       5.794   3.838  19.000  0.00  0.00    +0.000 OA
ATOM      4  H   UNL     1       3.782   5.880  17.746  0.00  0.00    +0.000 HD
ENDROOT
BRANCH   1  11
ATOM      5  C   UNL     1       2.814   2.292  17.075  0.00  0.00    +0.000 C 
ATOM      6  C   UNL     1       2.355   3.042  18.295  0.00  0.00    +0.000 A 
ATOM      7  C   UNL     1       1.239   2.519  18.974  0.00  0.00    +0.000 A 
ATOM      8  C   UNL     1       0.682   3.154  20.072  0.00  0.00    +0.000 A 
ATOM      9  C   UNL     1       1.234   4.363  20.515  0.00  0.00    +0.000 A 
ATOM     10  C   UNL     1       2.322   4.927  19.836  0.00  0.00    +0.000 A 
ATOM     11  C   UNL     1       2.925   4.262  18.734  0.00  0.00    +0.000 A 
BRANCH  10  12
ATOM     12  O   UNL     1       2.899   6.114  20.233  0.00  0.00    +0.000 OA
BRANCH  12  13
ATOM     13  C   UNL     1       2.227   7.291  19.802  0.00  0.00    +0.000 C 
ATOM     14  F   UNL     1       1.691   7.082  18.573  0.00  0.00    +0.000 F 
ATOM     15  F   UNL     1       1.187   7.492  20.651  0.00  0.00    +0.000 F 
ENDBRANCH  12  13
ENDBRANCH  10  12
ENDBRANCH   1  11
BRANCH   2  16
ATOM     16  C   UNL     1       6.184   5.812  17.739  0.00  0.00    +0.000 A 
ATOM     17  N   UNL     1       6.317   7.051  18.377  0.00  0.00    +0.000 NA
ATOM     18  C   UNL     1       7.261   7.668  17.692  0.00  0.00    +0.000 A 
ATOM     19  O   UNL     1       7.698   6.979  16.599  0.00  0.00    +0.000 OA
ATOM     20  C   UNL     1       7.026   5.789  16.631  0.00  0.00    +0.000 A 
BRANCH  18  21
ATOM     21  C   UNL     1       7.963   8.920  17.980  0.00  0.00    +0.000 A 
ATOM     22  C   UNL     1       8.956   8.954  18.967  0.00  0.00    +0.000 A 
ATOM     23  C   UNL     1       9.651  10.136  19.240  0.00  0.00    +0.000 A 
ATOM     24  C   UNL     1       9.364  11.298  18.525  0.00  0.00    +0.000 A 
ATOM     25  C   UNL     1       8.393  11.279  17.528  0.00  0.00    +0.000 A 
ATOM     26  C   UNL     1       7.700  10.097  17.256  0.00  0.00    +0.000 A 
ENDBRANCH  18  21
BRANCH  20  27
ATOM     27  C   UNL     1       7.300   4.673  15.630  0.00  0.00    +0.000 C 
ATOM     28  C   UNL     1       6.827   4.910  14.199  0.00  0.00    +0.000 C 
ATOM     29  C   UNL     1       6.139   3.891  15.034  0.00  0.00    +0.000 C 
ENDBRANCH  20  27
ENDBRANCH   2  16
TORSDOF 6
ENDMDL
MODEL 8
REMARK VINA RESULT:      -7.4      3.109      6.021
REMARK  Name = 
REMARK  7 active torsions:
REMARK  status: ('A' for Active; 'I' for Inactive)
REMARK    1  A    between atoms: C_1  and  C_2
REMARK    2  A    between atoms: C_6  and  O_7
REMARK    3  A    between atoms: O_7  and  C_8
REMARK    4  A    between atoms: C_11  and  N_12
REMARK    5  A    between atoms: C_13  and  C_15
REMARK    6  A    between atoms: C_17  and  C_18
REMARK    7  A    between atoms: C_25  and  C_26
REMARK                            x       y       z     vdW  Elec       q    Type
REMARK                         _______ _______ _______ _____ _____    ______ ____
ROOT
ATOM      1  N   UNL     1       4.924   6.417  17.975  0.00  0.00    +0.000 N 
ATOM      2  C   UNL     1       5.676   7.057  16.984  0.00  0.00    +0.000 C 
ATOM      3  O   UNL     1       5.397   7.063  15.790  0.00  0.00    +0.000 OA
ATOM      4  H   UNL     1       5.484   6.236  18.806  0.00  0.00    +0.000 HD
ENDROOT
BRANCH   1  11
ATOM      5  C   UNL     1       2.002   7.039  18.483  0.00  0.00    +0.000 C 
ATOM      6  C   UNL     1       2.523   5.731  17.954  0.00  0.00    +0.000 A 
ATOM      7  C   UNL     1       1.581   4.701  17.780  0.00  0.00    +0.000 A 
ATOM      8  C   UNL     1       1.947   3.433  17.361  0.00  0.00    +0.000 A 
ATOM      9  C   UNL     1       3.299   3.158  17.116  0.00  0.00    +0.000 A 
ATOM     10  C   UNL     1       4.264   4.153  17.317  0.00  0.00    +0.000 A 
ATOM     11  C   UNL     1       3.893   5.468  17.707  0.00  0.00    +0.000 A 
BRANCH  10  12
ATOM     12  O   UNL     1       5.605   3.931  17.090  0.00  0.00    +0.000 OA
BRANCH  12  13
ATOM     13  C   UNL     1       5.958   3.669  15.738  0.00  0.00    +0.000 C 
ATOM     14  F   UNL     1       5.025   4.210  14.914  0.00  0.00    +0.000 F 
ATOM     15  F   UNL     1       7.121   4.325  15.493  0.00  0.00    +0.000 F 
ENDBRANCH  12  13
ENDBRANCH  10  12
ENDBRANCH   1  11
BRANCH   2  16
ATOM     16  C   UNL     1       6.921   7.659  17.510  0.00  0.00    +0.000 A 
ATOM     17  N   UNL     1       7.202   9.021  17.343  0.00  0.00    +0.000 NA
ATOM     18  C   UNL     1       8.282   9.221  18.075  0.00  0.00    +0.000 A 
ATOM     19  O   UNL     1       8.792   8.087  18.637  0.00  0.00    +0.000 OA
ATOM     20  C   UNL     1       7.922   7.091  18.293  0.00  0.00    +0.000 A 
BRANCH  18  21
ATOM     21  C   UNL     1       8.948  10.471  18.444  0.00  0.00    +0.000 A 
ATOM     22  C   UNL     1       9.816  10.504  19.542  0.00  0.00    +0.000 A 
ATOM     23  C   UNL     1      10.477  11.683  19.895  0.00  0.00    +0.000 A 
ATOM     24  C   UNL     1      10.281  12.846  19.151  0.00  0.00    +0.000 A 
ATOM     25  C   UNL     1       9.436  12.828  18.044  0.00  0.00    +0.000 A 
ATOM     26  C   UNL     1       8.776  11.648  17.692  0.00  0.00    +0.000 A 
ENDBRANCH  18  21
BRANCH  20  27
ATOM     27  C   UNL     1       8.072   5.665  18.810  0.00  0.00    +0.000 C 
ATOM     28  C   UNL     1       7.059   5.211  19.856  0.00  0.00    +0.000 C 
ATOM     29  C   UNL     1       8.474   5.425  20.258  0.00  0.00    +0.000 C 
ENDBRANCH  20  27
ENDBRANCH   2  16
TORSDOF 6
ENDMDL
MODEL 9
REMARK VINA RESULT:      -7.3      4.410      6.930
REMARK  Name = 
REMARK  7 active torsions:
REMARK  status: ('A' for Active; 'I' for Inactive)
REMARK    1  A    between atoms: C_1  and  C_2
REMARK    2  A    between atoms: C_6  and  O_7
REMARK    3  A    between atoms: O_7  and  C_8
REMARK    4  A    between atoms: C_11  and  N_12
REMARK    5  A    between atoms: C_13  and  C_15
REMARK    6  A    between atoms: C_17  and  C_18
REMARK    7  A    between atoms: C_25  and  C_26
REMARK                            x       y       z     vdW  Elec       q    Type
REMARK                         _______ _______ _______ _____ _____    ______ ____
ROOT
ATOM      1  N   UNL     1       0.956   9.398  18.200  0.00  0.00    +0.000 N 
ATOM      2  C   UNL     1       1.494   8.685  19.278  0.00  0.00    +0.000 C 
ATOM      3  O   UNL     1       1.410   9.026  20.453  0.00  0.00    +0.000 OA
ATOM      4  H   UNL     1       1.416   9.152  17.327  0.00  0.00    +0.000 HD
ENDROOT
BRANCH   1  11
ATOM      5  C   UNL     1       2.836  11.776  18.157  0.00  0.00    +0.000 C 
ATOM      6  C   UNL     1       1.340  11.864  18.290  0.00  0.00    +0.000 A 
ATOM      7  C   UNL     1       0.801  13.146  18.505  0.00  0.00    +0.000 A 
ATOM      8  C   UNL     1      -0.554  13.349  18.707  0.00  0.00    +0.000 A 
ATOM      9  C   UNL     1      -1.417  12.246  18.712  0.00  0.00    +0.000 A 
ATOM     10  C   UNL     1      -0.904  10.954  18.537  0.00  0.00    +0.000 A 
ATOM     11  C   UNL     1       0.479  10.740  18.290  0.00  0.00    +0.000 A 
BRANCH  10  12
ATOM     12  O   UNL     1      -1.712   9.838  18.535  0.00  0.00    +0.000 OA
BRANCH  12  13
ATOM     13  C   UNL     1      -2.796   9.873  17.616  0.00  0.00    +0.000 C 
ATOM     14  F   UNL     1      -2.353   9.526  16.380  0.00  0.00    +0.000 F 
ATOM     15  F   UNL     1      -3.677   8.913  17.997  0.00  0.00    +0.000 F 
ENDBRANCH  12  13
ENDBRANCH  10  12
ENDBRANCH   1  11
BRANCH   2  16
ATOM     16  C   UNL     1       2.273   7.503  18.850  0.00  0.00    +0.000 A 
ATOM     17  N   UNL     1       3.215   7.582  17.817  0.00  0.00    +0.000 NA
ATOM     18  C   UNL     1       3.817   6.408  17.836  0.00  0.00    +0.000 A 
ATOM     19  O   UNL     1       3.289   5.526  18.733  0.00  0.00    +0.000 OA
ATOM     20  C   UNL     1       2.314   6.221  19.392  0.00  0.00    +0.000 A 
BRANCH  18  21
ATOM     21  C   UNL     1       5.006   5.951  17.116  0.00  0.00    +0.000 A 
ATOM     22  C   UNL     1       6.093   5.421  17.824  0.00  0.00    +0.000 A 
ATOM     23  C   UNL     1       7.228   4.961  17.151  0.00  0.00    +0.000 A 
ATOM     24  C   UNL     1       7.289   5.020  15.759  0.00  0.00    +0.000 A 
ATOM     25  C   UNL     1       6.211   5.526  15.037  0.00  0.00    +0.000 A 
ATOM     26  C   UNL     1       5.077   5.985  15.711  0.00  0.00    +0.000 A 
ENDBRANCH  18  21
BRANCH  20  27
ATOM     27  C   UNL     1       1.538   5.625  20.560  0.00  0.00    +0.000 C 
ATOM     28  C   UNL     1       2.191   4.451  21.283  0.00  0.00    +0.000 C 
ATOM     29  C   UNL     1       0.980   4.213  20.454  0.00  0.00    +0.000 C 
ENDBRANCH  20  27
ENDBRANCH   2  16
TORSDOF 6
ENDMDL
