MODEL 1
REMARK VINA RESULT:      -8.8      0.000      0.000
REMARK  Name = 
REMARK  5 active torsions:
REMARK  status: ('A' for Active; 'I' for Inactive)
REMARK    1  A    between atoms: C_4  and  C_5
REMARK    2  A    between atoms: N_14  and  C_15
REMARK    3  A    between atoms: C_19  and  S_20
REMARK    4  A    between atoms: S_20  and  N_23
REMARK    5  A    between atoms: N_23  and  C_24
REMARK                            x       y       z     vdW  Elec       q    Type
REMARK                         _______ _______ _______ _____ _____    ______ ____
ROOT
ATOM      1  O   UNL     1       2.845   8.500  16.958  0.00  0.00    +0.000 OA
ATOM      2  C   UNL     1       2.211   8.922  17.910  0.00  0.00    +0.000 C 
ATOM      3  N   UNL     1       1.675  10.190  17.898  0.00  0.00    +0.000 N 
ATOM      4  C   UNL     1       0.875  10.458  19.057  0.00  0.00    +0.000 C 
ATOM      5  C   UNL     1       1.090   9.169  19.848  0.00  0.00    +0.000 C 
ATOM      6  O   UNL     1       0.646   9.006  20.980  0.00  0.00    +0.000 OA
ATOM      7  N   UNL     1       1.851   8.300  19.085  0.00  0.00    +0.000 N 
ATOM      8  H   UNL     1       1.776  10.799  17.097  0.00  0.00    +0.000 HD
ENDROOT
BRANCH   4   9
ATOM      9  C   UNL     1      -0.576  10.711  18.728  0.00  0.00    +0.000 A 
ATOM     10  C   UNL     1      -1.206   9.999  17.686  0.00  0.00    +0.000 A 
ATOM     11  C   UNL     1      -2.535  10.247  17.340  0.00  0.00    +0.000 A 
ATOM     12  C   UNL     1      -3.269  11.198  18.042  0.00  0.00    +0.000 A 
ATOM     13  C   UNL     1      -2.682  11.879  19.106  0.00  0.00    +0.000 A 
ATOM     14  C   UNL     1      -1.350  11.630  19.457  0.00  0.00    +0.000 A 
ATOM     15 CL   UNL     1      -0.711  12.503  20.804  0.00  0.00    +0.000 Cl
ENDBRANCH   4   9
BRANCH   7  16
ATOM     16  C   UNL     1       2.219   6.979  19.469  0.00  0.00    +0.000 A 
ATOM     17  C   UNL     1       1.647   6.347  20.585  0.00  0.00    +0.000 A 
ATOM     18  C   UNL     1       1.973   5.026  20.926  0.00  0.00    +0.000 A 
ATOM     19  C   UNL     1       2.873   4.301  20.148  0.00  0.00    +0.000 A 
ATOM     20  C   UNL     1       3.451   4.916  19.041  0.00  0.00    +0.000 A 
ATOM     21  C   UNL     1       3.151   6.246  18.722  0.00  0.00    +0.000 A 
BRANCH  20  22
ATOM     22  S   UNL     1       4.475   3.988  17.931  0.00  0.00    +0.000 S 
ATOM     23  O   UNL     1       4.076   2.599  18.037  0.00  0.00    +0.000 OA
ATOM     24  O   UNL     1       4.521   4.657  16.649  0.00  0.00    +0.000 OA
BRANCH  22  25
ATOM     25  N   UNL     1       6.023   4.092  18.609  0.00  0.00    +0.000 NA
ATOM     26  H   UNL     1       6.667   3.551  18.030  0.00  0.00    +0.000 HD
BRANCH  25  27
ATOM     27  C   UNL     1       6.485   5.426  18.990  0.00  0.00    +0.000 C 
ATOM     28  C   UNL     1       7.438   6.168  18.095  0.00  0.00    +0.000 C 
ATOM     29  C   UNL     1       7.906   5.646  19.421  0.00  0.00    +0.000 C 
ENDBRANCH  25  27
ENDBRANCH  22  25
ENDBRANCH  20  22
ENDBRANCH   7  16
TORSDOF 5
ENDMDL
MODEL 2
REMARK VINA RESULT:      -8.8      1.437      1.691
REMARK  Name = 
REMARK  5 active torsions:
REMARK  status: ('A' for Active; 'I' for Inactive)
REMARK    1  A    between atoms: C_4  and  C_5
REMARK    2  A    between atoms: N_14  and  C_15
REMARK    3  A    between atoms: C_19  and  S_20
REMARK    4  A    between atoms: S_20  and  N_23
REMARK    5  A    between atoms: N_23  and  C_24
REMARK                            x       y       z     vdW  Elec       q    Type
REMARK                         _______ _______ _______ _____ _____    ______ ____
ROOT
ATOM      1  O   UNL     1       2.876   8.014  16.987  0.00  0.00    +0.000 OA
ATOM      2  C   UNL     1       2.315   8.557  17.922  0.00  0.00    +0.000 C 
ATOM      3  N   UNL     1       1.884   9.862  17.829  0.00  0.00    +0.000 N 
ATOM      4  C   UNL     1       1.152  10.281  18.988  0.00  0.00    +0.000 C 
ATOM      5  C   UNL     1       1.290   9.041  19.869  0.00  0.00    +0.000 C 
ATOM      6  O   UNL     1       0.878   9.001  21.024  0.00  0.00    +0.000 OA
ATOM      7  N   UNL     1       1.949   8.057  19.152  0.00  0.00    +0.000 N 
ATOM      8  H   UNL     1       2.004  10.399  16.982  0.00  0.00    +0.000 HD
ENDROOT
BRANCH   4   9
ATOM      9  C   UNL     1      -0.285  10.631  18.686  0.00  0.00    +0.000 A 
ATOM     10  C   UNL     1      -0.985   9.949  17.669  0.00  0.00    +0.000 A 
ATOM     11  C   UNL     1      -2.302  10.285  17.347  0.00  0.00    +0.000 A 
ATOM     12  C   UNL     1      -2.952  11.295  18.049  0.00  0.00    +0.000 A 
ATOM     13  C   UNL     1      -2.296  11.948  19.090  0.00  0.00    +0.000 A 
ATOM     14  C   UNL     1      -0.977  11.612  19.416  0.00  0.00    +0.000 A 
ATOM     15 CL   UNL     1      -0.248  12.457  20.736  0.00  0.00    +0.000 Cl
ENDBRANCH   4   9
BRANCH   7  16
ATOM     16  C   UNL     1       2.222   6.742  19.625  0.00  0.00    +0.000 A 
ATOM     17  C   UNL     1       1.279   6.011  20.365  0.00  0.00    +0.000 A 
ATOM     18  C   UNL     1       1.534   4.696  20.781  0.00  0.00    +0.000 A 
ATOM     19  C   UNL     1       2.738   4.076  20.454  0.00  0.00    +0.000 A 
ATOM     20  C   UNL     1       3.684   4.789  19.725  0.00  0.00    +0.000 A 
ATOM     21  C   UNL     1       3.443   6.115  19.340  0.00  0.00    +0.000 A 
BRANCH  20  22
ATOM     22  S   UNL     1       5.160   3.995  19.148  0.00  0.00    +0.000 S 
ATOM     23  O   UNL     1       6.237   4.958  19.252  0.00  0.00    +0.000 OA
ATOM     24  O   UNL     1       5.266   2.685  19.752  0.00  0.00    +0.000 OA
BRANCH  22  25
ATOM     25  N   UNL     1       4.886   3.764  17.493  0.00  0.00    +0.000 NA
ATOM     26  H   UNL     1       3.896   3.932  17.302  0.00  0.00    +0.000 HD
BRANCH  25  27
ATOM     27  C   UNL     1       5.824   4.409  16.575  0.00  0.00    +0.000 C 
ATOM     28  C   UNL     1       5.363   5.561  15.727  0.00  0.00    +0.000 C 
ATOM     29  C   UNL     1       5.676   4.240  15.091  0.00  0.00    +0.000 C 
ENDBRANCH  25  27
ENDBRANCH  22  25
ENDBRANCH  20  22
ENDBRANCH   7  16
TORSDOF 5
ENDMDL
MODEL 3
REMARK VINA RESULT:      -8.6      3.618      8.475
REMARK  Name = 
REMARK  5 active torsions:
REMARK  status: ('A' for Active; 'I' for Inactive)
REMARK    1  A    between atoms: C_4  and  C_5
REMARK    2  A    between atoms: N_14  and  C_15
REMARK    3  A    between atoms: C_19  and  S_20
REMARK    4  A    between atoms: S_20  and  N_23
REMARK    5  A    between atoms: N_23  and  C_24
REMARK                            x       y       z     vdW  Elec       q    Type
REMARK                         _______ _______ _______ _____ _____    ______ ____
ROOT
ATOM      1  O   UNL     1       0.667   8.401  21.467  0.00  0.00    +0.000 OA
ATOM      2  C   UNL     1       1.373   8.246  20.485  0.00  0.00    +0.000 C 
ATOM      3  N   UNL     1       2.339   7.264  20.454  0.00  0.00    +0.000 N 
ATOM      4  C   UNL     1       2.984   7.170  19.179  0.00  0.00    +0.000 C 
ATOM      5  C   UNL     1       2.325   8.337  18.445  0.00  0.00    +0.000 C 
ATOM      6  O   UNL     1       2.662   8.686  17.318  0.00  0.00    +0.000 OA
ATOM      7  N   UNL     1       1.358   8.890  19.268  0.00  0.00    +0.000 N 
ATOM      8  H   UNL     1       2.477   6.635  21.233  0.00  0.00    +0.000 HD
ENDROOT
BRANCH   4   9
ATOM      9  C   UNL     1       2.755   5.843  18.496  0.00  0.00    +0.000 A 
ATOM     10  C   UNL     1       1.599   5.086  18.779  0.00  0.00    +0.000 A 
ATOM     11  C   UNL     1       1.389   3.839  18.189  0.00  0.00    +0.000 A 
ATOM     12  C   UNL     1       2.320   3.331  17.289  0.00  0.00    +0.000 A 
ATOM     13  C   UNL     1       3.446   4.083  16.958  0.00  0.00    +0.000 A 
ATOM     14  C   UNL     1       3.657   5.335  17.546  0.00  0.00    +0.000 A 
ATOM     15 CL   UNL     1       5.067   6.209  17.060  0.00  0.00    +0.000 Cl
ENDBRANCH   4   9
BRANCH   7  16
ATOM     16  C   UNL     1       0.501   9.971  18.913  0.00  0.00    +0.000 A 
ATOM     17  C   UNL     1       0.850  11.306  19.168  0.00  0.00    +0.000 A 
ATOM     18  C   UNL     1       0.027  12.368  18.765  0.00  0.00    +0.000 A 
ATOM     19  C   UNL     1      -1.164  12.117  18.086  0.00  0.00    +0.000 A 
ATOM     20  C   UNL     1      -1.525  10.798  17.831  0.00  0.00    +0.000 A 
ATOM     21  C   UNL     1      -0.719   9.737  18.263  0.00  0.00    +0.000 A 
BRANCH  20  22
ATOM     22  S   UNL     1      -2.943  10.432  16.832  0.00  0.00    +0.000 S 
ATOM     23  O   UNL     1      -2.488  10.324  15.461  0.00  0.00    +0.000 OA
ATOM     24  O   UNL     1      -3.706   9.371  17.453  0.00  0.00    +0.000 OA
BRANCH  22  25
ATOM     25  N   UNL     1      -3.881  11.840  16.914  0.00  0.00    +0.000 NA
ATOM     26  H   UNL     1      -3.699  12.398  16.078  0.00  0.00    +0.000 HD
BRANCH  25  27
ATOM     27  C   UNL     1      -5.290  11.671  17.265  0.00  0.00    +0.000 C 
ATOM     28  C   UNL     1      -6.215  12.855  17.227  0.00  0.00    +0.000 C 
ATOM     29  C   UNL     1      -5.831  12.246  18.542  0.00  0.00    +0.000 C 
ENDBRANCH  25  27
ENDBRANCH  22  25
ENDBRANCH  20  22
ENDBRANCH   7  16
TORSDOF 5
ENDMDL
MODEL 4
REMARK VINA RESULT:      -8.6      4.603      7.839
REMARK  Name = 
REMARK  5 active torsions:
REMARK  status: ('A' for Active; 'I' for Inactive)
REMARK    1  A    between atoms: C_4  and  C_5
REMARK    2  A    between atoms: N_14  and  C_15
REMARK    3  A    between atoms: C_19  and  S_20
REMARK    4  A    between atoms: S_20  and  N_23
REMARK    5  A    between atoms: N_23  and  C_24
REMARK                            x       y       z     vdW  Elec       q    Type
REMARK                         _______ _______ _______ _____ _____    ______ ____
ROOT
ATOM      1  O   UNL     1       6.748   4.237  18.538  0.00  0.00    +0.000 OA
ATOM      2  C   UNL     1       6.543   4.911  17.543  0.00  0.00    +0.000 C 
ATOM      3  N   UNL     1       7.419   4.893  16.481  0.00  0.00    +0.000 N 
ATOM      4  C   UNL     1       6.948   5.663  15.368  0.00  0.00    +0.000 C 
ATOM      5  C   UNL     1       5.668   6.252  15.959  0.00  0.00    +0.000 C 
ATOM      6  O   UNL     1       4.978   7.071  15.359  0.00  0.00    +0.000 OA
ATOM      7  N   UNL     1       5.479   5.726  17.225  0.00  0.00    +0.000 N 
ATOM      8  H   UNL     1       8.245   4.310  16.487  0.00  0.00    +0.000 HD
ENDROOT
BRANCH   4   9
ATOM      9  C   UNL     1       6.695   4.828  14.136  0.00  0.00    +0.000 A 
ATOM     10  C   UNL     1       5.576   3.971  14.072  0.00  0.00    +0.000 A 
ATOM     11  C   UNL     1       5.348   3.162  12.958  0.00  0.00    +0.000 A 
ATOM     12  C   UNL     1       6.222   3.206  11.877  0.00  0.00    +0.000 A 
ATOM     13  C   UNL     1       7.307   4.079  11.898  0.00  0.00    +0.000 A 
ATOM     14  C   UNL     1       7.537   4.894  13.012  0.00  0.00    +0.000 A 
ATOM     15 CL   UNL     1       8.893   5.964  12.944  0.00  0.00    +0.000 Cl
ENDBRANCH   4   9
BRANCH   7  16
ATOM     16  C   UNL     1       4.368   6.005  18.071  0.00  0.00    +0.000 A 
ATOM     17  C   UNL     1       3.698   7.238  18.029  0.00  0.00    +0.000 A 
ATOM     18  C   UNL     1       2.570   7.486  18.825  0.00  0.00    +0.000 A 
ATOM     19  C   UNL     1       2.078   6.499  19.675  0.00  0.00    +0.000 A 
ATOM     20  C   UNL     1       2.734   5.272  19.731  0.00  0.00    +0.000 A 
ATOM     21  C   UNL     1       3.881   5.038  18.961  0.00  0.00    +0.000 A 
BRANCH  20  22
ATOM     22  S   UNL     1       2.057   3.932  20.672  0.00  0.00    +0.000 S 
ATOM     23  O   UNL     1       2.357   4.190  22.066  0.00  0.00    +0.000 OA
ATOM     24  O   UNL     1       0.702   3.676  20.234  0.00  0.00    +0.000 OA
BRANCH  22  25
ATOM     25  N   UNL     1       2.993   2.595  20.222  0.00  0.00    +0.000 NA
ATOM     26  H   UNL     1       3.221   2.062  21.063  0.00  0.00    +0.000 HD
BRANCH  25  27
ATOM     27  C   UNL     1       2.512   1.808  19.087  0.00  0.00    +0.000 C 
ATOM     28  C   UNL     1       3.459   1.447  17.977  0.00  0.00    +0.000 C 
ATOM     29  C   UNL     1       2.360   2.438  17.733  0.00  0.00    +0.000 C 
ENDBRANCH  25  27
ENDBRANCH  22  25
ENDBRANCH  20  22
ENDBRANCH   7  16
TORSDOF 5
ENDMDL
MODEL 5
REMARK VINA RESULT:      -8.6      3.508      7.994
REMARK  Name = 
REMARK  5 active torsions:
REMARK  status: ('A' for Active; 'I' for Inactive)
REMARK    1  A    between atoms: C_4  and  C_5
REMARK    2  A    between atoms: N_14  and  C_15
REMARK    3  A    between atoms: C_19  and  S_20
REMARK    4  A    between atoms: S_20  and  N_23
REMARK    5  A    between atoms: N_23  and  C_24
REMARK                            x       y       z     vdW  Elec       q    Type
REMARK                         _______ _______ _______ _____ _____    ______ ____
ROOT
ATOM      1  O   UNL     1       1.362   3.863  18.148  0.00  0.00    +0.000 OA
ATOM      2  C   UNL     1       2.529   4.182  18.294  0.00  0.00    +0.000 C 
ATOM      3  N   UNL     1       3.547   3.381  17.826  0.00  0.00    +0.000 N 
ATOM      4  C   UNL     1       4.838   3.979  17.996  0.00  0.00    +0.000 C 
ATOM      5  C   UNL     1       4.458   5.253  18.749  0.00  0.00    +0.000 C 
ATOM      6  O   UNL     1       5.294   6.037  19.187  0.00  0.00    +0.000 OA
ATOM      7  N   UNL     1       3.078   5.318  18.845  0.00  0.00    +0.000 N 
ATOM      8  H   UNL     1       3.357   2.518  17.334  0.00  0.00    +0.000 HD
ENDROOT
BRANCH   4   9
ATOM      9  C   UNL     1       5.539   4.257  16.688  0.00  0.00    +0.000 A 
ATOM     10  C   UNL     1       4.810   4.280  15.480  0.00  0.00    +0.000 A 
ATOM     11  C   UNL     1       5.446   4.495  14.256  0.00  0.00    +0.000 A 
ATOM     12  C   UNL     1       6.819   4.710  14.216  0.00  0.00    +0.000 A 
ATOM     13  C   UNL     1       7.551   4.739  15.401  0.00  0.00    +0.000 A 
ATOM     14  C   UNL     1       6.916   4.527  16.630  0.00  0.00    +0.000 A 
ATOM     15 CL   UNL     1       7.897   4.604  18.051  0.00  0.00    +0.000 Cl
ENDBRANCH   4   9
BRANCH   7  16
ATOM     16  C   UNL     1       2.348   6.385  19.441  0.00  0.00    +0.000 A 
ATOM     17  C   UNL     1       1.866   6.307  20.758  0.00  0.00    +0.000 A 
ATOM     18  C   UNL     1       1.196   7.384  21.358  0.00  0.00    +0.000 A 
ATOM     19  C   UNL     1       1.003   8.572  20.656  0.00  0.00    +0.000 A 
ATOM     20  C   UNL     1       1.473   8.663  19.348  0.00  0.00    +0.000 A 
ATOM     21  C   UNL     1       2.111   7.575  18.739  0.00  0.00    +0.000 A 
BRANCH  20  22
ATOM     22  S   UNL     1       1.396  10.201  18.471  0.00  0.00    +0.000 S 
ATOM     23  O   UNL     1       1.216  11.249  19.455  0.00  0.00    +0.000 OA
ATOM     24  O   UNL     1       2.473  10.257  17.508  0.00  0.00    +0.000 OA
BRANCH  22  25
ATOM     25  N   UNL     1      -0.054  10.110  17.601  0.00  0.00    +0.000 NA
ATOM     26  H   UNL     1      -0.063   9.233  17.079  0.00  0.00    +0.000 HD
BRANCH  25  27
ATOM     27  C   UNL     1      -1.280  10.422  18.334  0.00  0.00    +0.000 C 
ATOM     28  C   UNL     1      -2.616  10.147  17.702  0.00  0.00    +0.000 C 
ATOM     29  C   UNL     1      -2.157  11.561  17.901  0.00  0.00    +0.000 C 
ENDBRANCH  25  27
ENDBRANCH  22  25
ENDBRANCH  20  22
ENDBRANCH   7  16
TORSDOF 5
ENDMDL
MODEL 6
REMARK VINA RESULT:      -8.3      1.434      1.470
REMARK  Name = 
REMARK  5 active torsions:
REMARK  status: ('A' for Active; 'I' for Inactive)
REMARK    1  A    between atoms: C_4  and  C_5
REMARK    2  A    between atoms: N_14  and  C_15
REMARK    3  A    between atoms: C_19  and  S_20
REMARK    4  A    between atoms: S_20  and  N_23
REMARK    5  A    between atoms: N_23  and  C_24
REMARK                            x       y       z     vdW  Elec       q    Type
REMARK                         _______ _______ _______ _____ _____    ______ ____
ROOT
ATOM      1  O   UNL     1       2.996   8.065  16.931  0.00  0.00    +0.000 OA
ATOM      2  C   UNL     1       2.370   8.541  17.862  0.00  0.00    +0.000 C 
ATOM      3  N   UNL     1       1.924   9.844  17.824  0.00  0.00    +0.000 N 
ATOM      4  C   UNL     1       1.117  10.180  18.958  0.00  0.00    +0.000 C 
ATOM      5  C   UNL     1       1.221   8.890  19.768  0.00  0.00    +0.000 C 
ATOM      6  O   UNL     1       0.740   8.772  20.891  0.00  0.00    +0.000 OA
ATOM      7  N   UNL     1       1.938   7.961  19.034  0.00  0.00    +0.000 N 
ATOM      8  H   UNL     1       2.086  10.434  17.019  0.00  0.00    +0.000 HD
ENDROOT
BRANCH   4   9
ATOM      9  C   UNL     1      -0.306  10.530  18.591  0.00  0.00    +0.000 A 
ATOM     10  C   UNL     1      -0.965   9.834  17.556  0.00  0.00    +0.000 A 
ATOM     11  C   UNL     1      -2.266  10.168  17.174  0.00  0.00    +0.000 A 
ATOM     12  C   UNL     1      -2.940  11.192  17.831  0.00  0.00    +0.000 A 
ATOM     13  C   UNL     1      -2.326  11.861  18.887  0.00  0.00    +0.000 A 
ATOM     14  C   UNL     1      -1.023  11.525  19.274  0.00  0.00    +0.000 A 
ATOM     15 CL   UNL     1      -0.347  12.390  20.609  0.00  0.00    +0.000 Cl
ENDBRANCH   4   9
BRANCH   7  16
ATOM     16  C   UNL     1       2.204   6.623  19.442  0.00  0.00    +0.000 A 
ATOM     17  C   UNL     1       1.944   6.182  20.749  0.00  0.00    +0.000 A 
ATOM     18  C   UNL     1       2.156   4.848  21.129  0.00  0.00    +0.000 A 
ATOM     19  C   UNL     1       2.623   3.919  20.203  0.00  0.00    +0.000 A 
ATOM     20  C   UNL     1       2.890   4.342  18.904  0.00  0.00    +0.000 A 
ATOM     21  C   UNL     1       2.711   5.681  18.535  0.00  0.00    +0.000 A 
BRANCH  20  22
ATOM     22  S   UNL     1       3.331   3.169  17.650  0.00  0.00    +0.000 S 
ATOM     23  O   UNL     1       3.407   1.869  18.284  0.00  0.00    +0.000 OA
ATOM     24  O   UNL     1       2.507   3.385  16.481  0.00  0.00    +0.000 OA
BRANCH  22  25
ATOM     25  N   UNL     1       4.918   3.588  17.232  0.00  0.00    +0.000 NA
ATOM     26  H   UNL     1       5.529   2.798  17.450  0.00  0.00    +0.000 HD
BRANCH  25  27
ATOM     27  C   UNL     1       5.113   4.191  15.914  0.00  0.00    +0.000 C 
ATOM     28  C   UNL     1       6.473   4.695  15.519  0.00  0.00    +0.000 C 
ATOM     29  C   UNL     1       5.360   5.666  15.781  0.00  0.00    +0.000 C 
ENDBRANCH  25  27
ENDBRANCH  22  25
ENDBRANCH  20  22
ENDBRANCH   7  16
TORSDOF 5
ENDMDL
MODEL 7
REMARK VINA RESULT:      -8.3      1.035      1.203
REMARK  Name = 
REMARK  5 active torsions:
REMARK  status: ('A' for Active; 'I' for Inactive)
REMARK    1  A    between atoms: C_4  and  C_5
REMARK    2  A    between atoms: N_14  and  C_15
REMARK    3  A    between atoms: C_19  and  S_20
REMARK    4  A    between atoms: S_20  and  N_23
REMARK    5  A    between atoms: N_23  and  C_24
REMARK                            x       y       z     vdW  Elec       q    Type
REMARK                         _______ _______ _______ _____ _____    ______ ____
ROOT
ATOM      1  O   UNL     1       3.074   7.491  17.265  0.00  0.00    +0.000 OA
ATOM      2  C   UNL     1       2.518   8.043  18.198  0.00  0.00    +0.000 C 
ATOM      3  N   UNL     1       2.224   9.388  18.154  0.00  0.00    +0.000 N 
ATOM      4  C   UNL     1       1.475   9.823  19.295  0.00  0.00    +0.000 C 
ATOM      5  C   UNL     1       1.440   8.534  20.114  0.00  0.00    +0.000 C 
ATOM      6  O   UNL     1       0.962   8.480  21.243  0.00  0.00    +0.000 OA
ATOM      7  N   UNL     1       2.037   7.524  19.379  0.00  0.00    +0.000 N 
ATOM      8  H   UNL     1       2.444   9.950  17.343  0.00  0.00    +0.000 HD
ENDROOT
BRANCH   4   9
ATOM      9  C   UNL     1       0.098  10.331  18.941  0.00  0.00    +0.000 A 
ATOM     10  C   UNL     1      -0.592   9.803  17.829  0.00  0.00    +0.000 A 
ATOM     11  C   UNL     1      -1.848  10.287  17.461  0.00  0.00    +0.000 A 
ATOM     12  C   UNL     1      -2.449  11.295  18.207  0.00  0.00    +0.000 A 
ATOM     13  C   UNL     1      -1.808  11.798  19.337  0.00  0.00    +0.000 A 
ATOM     14  C   UNL     1      -0.549  11.312  19.710  0.00  0.00    +0.000 A 
ATOM     15 CL   UNL     1       0.163  11.976  21.138  0.00  0.00    +0.000 Cl
ENDBRANCH   4   9
BRANCH   7  16
ATOM     16  C   UNL     1       2.152   6.167  19.795  0.00  0.00    +0.000 A 
ATOM     17  C   UNL     1       1.146   5.534  20.542  0.00  0.00    +0.000 A 
ATOM     18  C   UNL     1       1.240   4.181  20.900  0.00  0.00    +0.000 A 
ATOM     19  C   UNL     1       2.342   3.424  20.508  0.00  0.00    +0.000 A 
ATOM     20  C   UNL     1       3.350   4.039  19.771  0.00  0.00    +0.000 A 
ATOM     21  C   UNL     1       3.271   5.399  19.442  0.00  0.00    +0.000 A 
BRANCH  20  22
ATOM     22  S   UNL     1       4.691   3.086  19.111  0.00  0.00    +0.000 S 
ATOM     23  O   UNL     1       5.025   2.075  20.095  0.00  0.00    +0.000 OA
ATOM     24  O   UNL     1       4.396   2.727  17.741  0.00  0.00    +0.000 OA
BRANCH  22  25
ATOM     25  N   UNL     1       5.993   4.168  19.079  0.00  0.00    +0.000 NA
ATOM     26  H   UNL     1       6.781   3.740  19.568  0.00  0.00    +0.000 HD
BRANCH  25  27
ATOM     27  C   UNL     1       6.307   4.780  17.789  0.00  0.00    +0.000 C 
ATOM     28  C   UNL     1       7.653   4.548  17.162  0.00  0.00    +0.000 C 
ATOM     29  C   UNL     1       7.300   5.903  17.700  0.00  0.00    +0.000 C 
ENDBRANCH  25  27
ENDBRANCH  22  25
ENDBRANCH  20  22
ENDBRANCH   7  16
TORSDOF 5
ENDMDL
MODEL 8
REMARK VINA RESULT:      -8.2      3.711      8.053
REMARK  Name = 
REMARK  5 active torsions:
REMARK  status: ('A' for Active; 'I' for Inactive)
REMARK    1  A    between atoms: C_4  and  C_5
REMARK    2  A    between atoms: N_14  and  C_15
REMARK    3  A    between atoms: C_19  and  S_20
REMARK    4  A    between atoms: S_20  and  N_23
REMARK    5  A    between atoms: N_23  and  C_24
REMARK                            x       y       z     vdW  Elec       q    Type
REMARK                         _______ _______ _______ _____ _____    ______ ____
ROOT
ATOM      1  O   UNL     1       0.756   8.897  21.960  0.00  0.00    +0.000 OA
ATOM      2  C   UNL     1       1.327   8.522  20.951  0.00  0.00    +0.000 C 
ATOM      3  N   UNL     1       2.167   7.430  20.976  0.00  0.00    +0.000 N 
ATOM      4  C   UNL     1       2.653   7.082  19.674  0.00  0.00    +0.000 C 
ATOM      5  C   UNL     1       2.052   8.213  18.840  0.00  0.00    +0.000 C 
ATOM      6  O   UNL     1       2.300   8.359  17.648  0.00  0.00    +0.000 OA
ATOM      7  N   UNL     1       1.251   8.991  19.658  0.00  0.00    +0.000 N 
ATOM      8  H   UNL     1       2.319   6.900  21.823  0.00  0.00    +0.000 HD
ENDROOT
BRANCH   4   9
ATOM      9  C   UNL     1       2.202   5.715  19.220  0.00  0.00    +0.000 A 
ATOM     10  C   UNL     1       1.160   5.046  19.896  0.00  0.00    +0.000 A 
ATOM     11  C   UNL     1       0.756   3.765  19.517  0.00  0.00    +0.000 A 
ATOM     12  C   UNL     1       1.372   3.133  18.442  0.00  0.00    +0.000 A 
ATOM     13  C   UNL     1       2.371   3.793  17.729  0.00  0.00    +0.000 A 
ATOM     14  C   UNL     1       2.775   5.079  18.105  0.00  0.00    +0.000 A 
ATOM     15 CL   UNL     1       4.004   5.832  17.151  0.00  0.00    +0.000 Cl
ENDBRANCH   4   9
BRANCH   7  16
ATOM     16  C   UNL     1       0.487  10.113  19.229  0.00  0.00    +0.000 A 
ATOM     17  C   UNL     1       1.053  11.393  19.114  0.00  0.00    +0.000 A 
ATOM     18  C   UNL     1       0.309  12.483  18.637  0.00  0.00    +0.000 A 
ATOM     19  C   UNL     1      -1.019  12.313  18.251  0.00  0.00    +0.000 A 
ATOM     20  C   UNL     1      -1.595  11.051  18.363  0.00  0.00    +0.000 A 
ATOM     21  C   UNL     1      -0.861   9.971  18.872  0.00  0.00    +0.000 A 
BRANCH  20  22
ATOM     22  S   UNL     1      -3.225  10.748  17.737  0.00  0.00    +0.000 S 
ATOM     23  O   UNL     1      -3.483   9.329  17.877  0.00  0.00    +0.000 OA
ATOM     24  O   UNL     1      -4.137  11.731  18.279  0.00  0.00    +0.000 OA
BRANCH  22  25
ATOM     25  N   UNL     1      -3.093  11.046  16.076  0.00  0.00    +0.000 NA
ATOM     26  H   UNL     1      -2.219  11.547  15.906  0.00  0.00    +0.000 HD
BRANCH  25  27
ATOM     27  C   UNL     1      -3.359   9.920  15.183  0.00  0.00    +0.000 C 
ATOM     28  C   UNL     1      -2.645   9.830  13.863  0.00  0.00    +0.000 C 
ATOM     29  C   UNL     1      -4.116  10.125  13.902  0.00  0.00    +0.000 C 
ENDBRANCH  25  27
ENDBRANCH  22  25
ENDBRANCH  20  22
ENDBRANCH   7  16
TORSDOF 5
ENDMDL
MODEL 9
REMARK VINA RESULT:      -8.2      3.839      8.268
REMARK  Name = 
REMARK  5 active torsions:
REMARK  status: ('A' for Active; 'I' for Inactive)
REMARK    1  A    between atoms: C_4  and  C_5
REMARK    2  A    between atoms: N_14  and  C_15
REMARK    3  A    between atoms: C_19  and  S_20
REMARK    4  A    between atoms: S_20  and  N_23
REMARK    5  A    between atoms: N_23  and  C_24
REMARK                            x       y       z     vdW  Elec       q    Type
REMARK                         _______ _______ _______ _____ _____    ______ ____
ROOT
ATOM      1  O   UNL     1       1.340   4.662  18.607  0.00  0.00    +0.000 OA
ATOM      2  C   UNL     1       2.501   5.023  18.522  0.00  0.00    +0.000 C 
ATOM      3  N   UNL     1       3.510   4.114  18.293  0.00  0.00    +0.000 N 
ATOM      4  C   UNL     1       4.785   4.744  18.116  0.00  0.00    +0.000 C 
ATOM      5  C   UNL     1       4.414   6.203  18.378  0.00  0.00    +0.000 C 
ATOM      6  O   UNL     1       5.250   7.100  18.421  0.00  0.00    +0.000 OA
ATOM      7  N   UNL     1       3.045   6.287  18.565  0.00  0.00    +0.000 N 
ATOM      8  H   UNL     1       3.317   3.129  18.172  0.00  0.00    +0.000 HD
ENDROOT
BRANCH   4   9
ATOM      9  C   UNL     1       5.368   4.524  16.741  0.00  0.00    +0.000 A 
ATOM     10  C   UNL     1       4.523   4.432  15.615  0.00  0.00    +0.000 A 
ATOM     11  C   UNL     1       5.039   4.189  14.341  0.00  0.00    +0.000 A 
ATOM     12  C   UNL     1       6.412   4.051  14.163  0.00  0.00    +0.000 A 
ATOM     13  C   UNL     1       7.269   4.185  15.253  0.00  0.00    +0.000 A 
ATOM     14  C   UNL     1       6.754   4.433  16.531  0.00  0.00    +0.000 A 
ATOM     15 CL   UNL     1       7.891   4.608  17.821  0.00  0.00    +0.000 Cl
ENDBRANCH   4   9
BRANCH   7  16
ATOM     16  C   UNL     1       2.322   7.493  18.789  0.00  0.00    +0.000 A 
ATOM     17  C   UNL     1       2.042   8.392  17.748  0.00  0.00    +0.000 A 
ATOM     18  C   UNL     1       1.282   9.551  17.964  0.00  0.00    +0.000 A 
ATOM     19  C   UNL     1       0.771   9.830  19.230  0.00  0.00    +0.000 A 
ATOM     20  C   UNL     1       1.043   8.950  20.273  0.00  0.00    +0.000 A 
ATOM     21  C   UNL     1       1.832   7.811  20.063  0.00  0.00    +0.000 A 
BRANCH  20  22
ATOM     22  S   UNL     1       0.285   9.175  21.859  0.00  0.00    +0.000 S 
ATOM     23  O   UNL     1      -0.695   8.121  22.022  0.00  0.00    +0.000 OA
ATOM     24  O   UNL     1       1.312   9.402  22.853  0.00  0.00    +0.000 OA
BRANCH  22  25
ATOM     25  N   UNL     1      -0.588  10.617  21.700  0.00  0.00    +0.000 NA
ATOM     26  H   UNL     1      -1.345  10.464  21.032  0.00  0.00    +0.000 HD
BRANCH  25  27
ATOM     27  C   UNL     1      -0.966  11.296  22.939  0.00  0.00    +0.000 C 
ATOM     28  C   UNL     1      -2.346  11.877  23.078  0.00  0.00    +0.000 C 
ATOM     29  C   UNL     1      -1.158  12.785  22.963  0.00  0.00    +0.000 C 
ENDBRANCH  25  27
ENDBRANCH  22  25
ENDBRANCH  20  22
ENDBRANCH   7  16
TORSDOF 5
ENDMDL
