MODEL 1
REMARK VINA RESULT:      -8.7      0.000      0.000
REMARK  Name = 
REMARK  6 active torsions:
REMARK  status: ('A' for Active; 'I' for Inactive)
REMARK    1  A    between atoms: C_1  and  C_2
REMARK    2  A    between atoms: N_4  and  C_5
REMARK    3  A    between atoms: C_5  and  C_6
REMARK    4  A    between atoms: C_10  and  C_11
REMARK    5  A    between atoms: N_17  and  C_18
REMARK    6  A    between atoms: C_27  and  C_28
REMARK                            x       y       z     vdW  Elec       q    Type
REMARK                         _______ _______ _______ _____ _____    ______ ____
ROOT
ATOM      1  C   UNL     1       1.704   6.354  20.557  0.00  0.00    +0.000 A 
ATOM      2  C   UNL     1       2.447   6.860  19.486  0.00  0.00    +0.000 A 
ATOM      3  C   UNL     1       3.223   5.976  18.760  0.00  0.00    +0.000 A 
ATOM      4  C   UNL     1       3.297   4.616  19.041  0.00  0.00    +0.000 A 
ATOM      5  C   UNL     1       2.598   4.088  20.123  0.00  0.00    +0.000 A 
ATOM      6  C   UNL     1       1.800   4.978  20.874  0.00  0.00    +0.000 A 
ATOM      7  C   UNL     1       4.167   3.951  18.019  0.00  0.00    +0.000 C 
ATOM      8  N   UNL     1       4.600   5.054  17.167  0.00  0.00    +0.000 N 
ATOM      9  C   UNL     1       4.060   6.268  17.597  0.00  0.00    +0.000 C 
ATOM     10  O   UNL     1       4.185   7.400  17.169  0.00  0.00    +0.000 OA
ENDROOT
BRANCH   8  11
ATOM     11  C   UNL     1       5.451   4.871  16.042  0.00  0.00    +0.000 A 
ATOM     12  C   UNL     1       6.769   5.347  16.035  0.00  0.00    +0.000 A 
ATOM     13  C   UNL     1       7.608   5.175  14.926  0.00  0.00    +0.000 A 
ATOM     14  C   UNL     1       7.135   4.521  13.797  0.00  0.00    +0.000 A 
ATOM     15  C   UNL     1       5.832   4.047  13.790  0.00  0.00    +0.000 A 
ATOM     16  F   UNL     1       5.366   3.424  12.699  0.00  0.00    +0.000 F 
ATOM     17  C   UNL     1       4.993   4.211  14.893  0.00  0.00    +0.000 A 
ENDBRANCH   8  11
BRANCH   5  18
ATOM     18  C   UNL     1       2.655   2.634  20.507  0.00  0.00    +0.000 C 
ATOM     19  F   UNL     1       1.897   2.326  21.596  0.00  0.00    +0.000 F 
ATOM     20  F   UNL     1       2.220   1.818  19.508  0.00  0.00    +0.000 F 
ATOM     21  F   UNL     1       3.918   2.222  20.804  0.00  0.00    +0.000 F 
ENDBRANCH   5  18
BRANCH   1  22
ATOM     22  C   UNL     1       0.780   7.275  21.327  0.00  0.00    +0.000 C 
BRANCH  22  26
ATOM     23  C   UNL     1      -0.717  11.243  22.583  0.00  0.00    +0.000 C 
ATOM     24  C   UNL     1      -0.326   9.836  22.180  0.00  0.00    +0.000 C 
ATOM     25  C   UNL     1       1.131   9.401  22.441  0.00  0.00    +0.000 C 
ATOM     26  N   UNL     1       1.143   8.690  21.137  0.00  0.00    +0.000 NA
ATOM     27  C   UNL     1      -0.022   9.506  20.692  0.00  0.00    +0.000 C 
ATOM     28  C   UNL     1       0.416  10.637  19.765  0.00  0.00    +0.000 C 
ENDBRANCH  22  26
ENDBRANCH   1  22
TORSDOF 4
ENDMDL
MODEL 2
REMARK VINA RESULT:      -8.3      1.507      2.072
REMARK  Name = 
REMARK  6 active torsions:
REMARK  status: ('A' for Active; 'I' for Inactive)
REMARK    1  A    between atoms: C_1  and  C_2
REMARK    2  A    between atoms: N_4  and  C_5
REMARK    3  A    between atoms: C_5  and  C_6
REMARK    4  A    between atoms: C_10  and  C_11
REMARK    5  A    between atoms: N_17  and  C_18
REMARK    6  A    between atoms: C_27  and  C_28
REMARK                            x       y       z     vdW  Elec       q    Type
REMARK                         _______ _______ _______ _____ _____    ______ ____
ROOT
ATOM      1  C   UNL     1       2.612   5.926  19.377  0.00  0.00    +0.000 A 
ATOM      2  C   UNL     1       3.323   6.473  18.304  0.00  0.00    +0.000 A 
ATOM      3  C   UNL     1       3.986   5.606  17.457  0.00  0.00    +0.000 A 
ATOM      4  C   UNL     1       3.975   4.224  17.616  0.00  0.00    +0.000 A 
ATOM      5  C   UNL     1       3.307   3.651  18.694  0.00  0.00    +0.000 A 
ATOM      6  C   UNL     1       2.624   4.524  19.570  0.00  0.00    +0.000 A 
ATOM      7  C   UNL     1       4.730   3.595  16.486  0.00  0.00    +0.000 C 
ATOM      8  N   UNL     1       5.191   4.736  15.702  0.00  0.00    +0.000 N 
ATOM      9  C   UNL     1       4.769   5.942  16.268  0.00  0.00    +0.000 C 
ATOM     10  O   UNL     1       4.952   7.096  15.930  0.00  0.00    +0.000 OA
ENDROOT
BRANCH   8  11
ATOM     11  C   UNL     1       5.955   4.596  14.511  0.00  0.00    +0.000 A 
ATOM     12  C   UNL     1       5.565   3.720  13.489  0.00  0.00    +0.000 A 
ATOM     13  C   UNL     1       6.319   3.574  12.317  0.00  0.00    +0.000 A 
ATOM     14  C   UNL     1       7.487   4.305  12.151  0.00  0.00    +0.000 A 
ATOM     15  C   UNL     1       7.886   5.173  13.156  0.00  0.00    +0.000 A 
ATOM     16  F   UNL     1       9.017   5.875  13.006  0.00  0.00    +0.000 F 
ATOM     17  C   UNL     1       7.136   5.328  14.323  0.00  0.00    +0.000 A 
ENDBRANCH   8  11
BRANCH   5  18
ATOM     18  C   UNL     1       3.280   2.168  18.951  0.00  0.00    +0.000 C 
ATOM     19  F   UNL     1       2.191   1.755  19.656  0.00  0.00    +0.000 F 
ATOM     20  F   UNL     1       3.272   1.445  17.797  0.00  0.00    +0.000 F 
ATOM     21  F   UNL     1       4.364   1.741  19.654  0.00  0.00    +0.000 F 
ENDBRANCH   5  18
BRANCH   1  22
ATOM     22  C   UNL     1       1.806   6.837  20.282  0.00  0.00    +0.000 C 
BRANCH  22  26
ATOM     23  C   UNL     1      -0.345  10.694  20.510  0.00  0.00    +0.000 C 
ATOM     24  C   UNL     1       0.273   9.313  20.431  0.00  0.00    +0.000 C 
ATOM     25  C   UNL     1       1.627   9.098  21.139  0.00  0.00    +0.000 C 
ATOM     26  N   UNL     1       2.078   8.257  20.002  0.00  0.00    +0.000 NA
ATOM     27  C   UNL     1       1.020   8.865  19.144  0.00  0.00    +0.000 C 
ATOM     28  C   UNL     1       1.601   9.934  18.224  0.00  0.00    +0.000 C 
ENDBRANCH  22  26
ENDBRANCH   1  22
TORSDOF 4
ENDMDL
MODEL 3
REMARK VINA RESULT:      -8.2      0.966      1.305
REMARK  Name = 
REMARK  6 active torsions:
REMARK  status: ('A' for Active; 'I' for Inactive)
REMARK    1  A    between atoms: C_1  and  C_2
REMARK    2  A    between atoms: N_4  and  C_5
REMARK    3  A    between atoms: C_5  and  C_6
REMARK    4  A    between atoms: C_10  and  C_11
REMARK    5  A    between atoms: N_17  and  C_18
REMARK    6  A    between atoms: C_27  and  C_28
REMARK                            x       y       z     vdW  Elec       q    Type
REMARK                         _______ _______ _______ _____ _____    ______ ____
ROOT
ATOM      1  C   UNL     1       2.312   6.026  19.841  0.00  0.00    +0.000 A 
ATOM      2  C   UNL     1       2.983   6.546  18.731  0.00  0.00    +0.000 A 
ATOM      3  C   UNL     1       3.682   5.667  17.926  0.00  0.00    +0.000 A 
ATOM      4  C   UNL     1       3.747   4.299  18.163  0.00  0.00    +0.000 A 
ATOM      5  C   UNL     1       3.120   3.754  19.280  0.00  0.00    +0.000 A 
ATOM      6  C   UNL     1       2.400   4.640  20.114  0.00  0.00    +0.000 A 
ATOM      7  C   UNL     1       4.523   3.646  17.061  0.00  0.00    +0.000 C 
ATOM      8  N   UNL     1       4.915   4.763  16.208  0.00  0.00    +0.000 N 
ATOM      9  C   UNL     1       4.436   5.975  16.710  0.00  0.00    +0.000 C 
ATOM     10  O   UNL     1       4.554   7.116  16.304  0.00  0.00    +0.000 OA
ENDROOT
BRANCH   8  11
ATOM     11  C   UNL     1       5.675   4.595  15.018  0.00  0.00    +0.000 A 
ATOM     12  C   UNL     1       6.924   5.209  14.852  0.00  0.00    +0.000 A 
ATOM     13  C   UNL     1       7.671   5.052  13.678  0.00  0.00    +0.000 A 
ATOM     14  C   UNL     1       7.176   4.273  12.642  0.00  0.00    +0.000 A 
ATOM     15  C   UNL     1       5.940   3.661  12.792  0.00  0.00    +0.000 A 
ATOM     16  F   UNL     1       5.452   2.915  11.792  0.00  0.00    +0.000 F 
ATOM     17  C   UNL     1       5.193   3.809  13.962  0.00  0.00    +0.000 A 
ENDBRANCH   8  11
BRANCH   5  18
ATOM     18  C   UNL     1       3.173   2.289  19.621  0.00  0.00    +0.000 C 
ATOM     19  F   UNL     1       4.411   1.858  19.987  0.00  0.00    +0.000 F 
ATOM     20  F   UNL     1       2.347   1.969  20.654  0.00  0.00    +0.000 F 
ATOM     21  F   UNL     1       2.795   1.498  18.580  0.00  0.00    +0.000 F 
ENDBRANCH   5  18
BRANCH   1  22
ATOM     22  C   UNL     1       1.468   6.943  20.703  0.00  0.00    +0.000 C 
BRANCH  22  26
ATOM     23  C   UNL     1      -0.490  10.874  21.220  0.00  0.00    +0.000 C 
ATOM     24  C   UNL     1       0.059   9.473  21.049  0.00  0.00    +0.000 C 
ATOM     25  C   UNL     1       1.450   9.177  21.648  0.00  0.00    +0.000 C 
ATOM     26  N   UNL     1       1.781   8.360  20.453  0.00  0.00    +0.000 NA
ATOM     27  C   UNL     1       0.692   9.043  19.696  0.00  0.00    +0.000 C 
ATOM     28  C   UNL     1       1.252  10.120  18.773  0.00  0.00    +0.000 C 
ENDBRANCH  22  26
ENDBRANCH   1  22
TORSDOF 4
ENDMDL
MODEL 4
REMARK VINA RESULT:      -8.2      2.233      7.405
REMARK  Name = 
REMARK  6 active torsions:
REMARK  status: ('A' for Active; 'I' for Inactive)
REMARK    1  A    between atoms: C_1  and  C_2
REMARK    2  A    between atoms: N_4  and  C_5
REMARK    3  A    between atoms: C_5  and  C_6
REMARK    4  A    between atoms: C_10  and  C_11
REMARK    5  A    between atoms: N_17  and  C_18
REMARK    6  A    between atoms: C_27  and  C_28
REMARK                            x       y       z     vdW  Elec       q    Type
REMARK                         _______ _______ _______ _____ _____    ______ ____
ROOT
ATOM      1  C   UNL     1       4.052   5.046  17.623  0.00  0.00    +0.000 A 
ATOM      2  C   UNL     1       3.625   6.377  17.595  0.00  0.00    +0.000 A 
ATOM      3  C   UNL     1       2.778   6.808  18.598  0.00  0.00    +0.000 A 
ATOM      4  C   UNL     1       2.336   5.987  19.630  0.00  0.00    +0.000 A 
ATOM      5  C   UNL     1       2.713   4.648  19.666  0.00  0.00    +0.000 A 
ATOM      6  C   UNL     1       3.579   4.191  18.648  0.00  0.00    +0.000 A 
ATOM      7  C   UNL     1       1.497   6.794  20.573  0.00  0.00    +0.000 C 
ATOM      8  N   UNL     1       1.479   8.121  19.967  0.00  0.00    +0.000 N 
ATOM      9  C   UNL     1       2.224   8.149  18.786  0.00  0.00    +0.000 C 
ATOM     10  O   UNL     1       2.443   9.046  17.994  0.00  0.00    +0.000 OA
ENDROOT
BRANCH   8  11
ATOM     11  C   UNL     1       0.790   9.223  20.545  0.00  0.00    +0.000 A 
ATOM     12  C   UNL     1       0.552  10.399  19.821  0.00  0.00    +0.000 A 
ATOM     13  C   UNL     1      -0.120  11.490  20.389  0.00  0.00    +0.000 A 
ATOM     14  C   UNL     1      -0.563  11.421  21.702  0.00  0.00    +0.000 A 
ATOM     15  C   UNL     1      -0.331  10.263  22.431  0.00  0.00    +0.000 A 
ATOM     16  F   UNL     1      -0.748  10.194  23.702  0.00  0.00    +0.000 F 
ATOM     17  C   UNL     1       0.332   9.171  21.868  0.00  0.00    +0.000 A 
ENDBRANCH   8  11
BRANCH   5  18
ATOM     18  C   UNL     1       2.248   3.691  20.732  0.00  0.00    +0.000 C 
ATOM     19  F   UNL     1       2.838   2.466  20.662  0.00  0.00    +0.000 F 
ATOM     20  F   UNL     1       2.500   4.154  21.987  0.00  0.00    +0.000 F 
ATOM     21  F   UNL     1       0.907   3.464  20.679  0.00  0.00    +0.000 F 
ENDBRANCH   5  18
BRANCH   1  22
ATOM     22  C   UNL     1       5.043   4.556  16.587  0.00  0.00    +0.000 C 
BRANCH  22  26
ATOM     23  C   UNL     1       8.198   5.591  19.508  0.00  0.00    +0.000 C 
ATOM     24  C   UNL     1       7.039   5.208  18.612  0.00  0.00    +0.000 C 
ATOM     25  C   UNL     1       7.375   4.553  17.256  0.00  0.00    +0.000 C 
ATOM     26  N   UNL     1       6.289   5.340  16.617  0.00  0.00    +0.000 NA
ATOM     27  C   UNL     1       6.317   6.293  17.764  0.00  0.00    +0.000 C 
ATOM     28  C   UNL     1       7.075   7.568  17.406  0.00  0.00    +0.000 C 
ENDBRANCH  22  26
ENDBRANCH   1  22
TORSDOF 4
ENDMDL
MODEL 5
REMARK VINA RESULT:      -8.1      1.892      7.834
REMARK  Name = 
REMARK  6 active torsions:
REMARK  status: ('A' for Active; 'I' for Inactive)
REMARK    1  A    between atoms: C_1  and  C_2
REMARK    2  A    between atoms: N_4  and  C_5
REMARK    3  A    between atoms: C_5  and  C_6
REMARK    4  A    between atoms: C_10  and  C_11
REMARK    5  A    between atoms: N_17  and  C_18
REMARK    6  A    between atoms: C_27  and  C_28
REMARK                            x       y       z     vdW  Elec       q    Type
REMARK                         _______ _______ _______ _____ _____    ______ ____
ROOT
ATOM      1  C   UNL     1       5.480   4.927  17.010  0.00  0.00    +0.000 A 
ATOM      2  C   UNL     1       4.942   6.214  17.105  0.00  0.00    +0.000 A 
ATOM      3  C   UNL     1       3.897   6.416  17.985  0.00  0.00    +0.000 A 
ATOM      4  C   UNL     1       3.360   5.409  18.780  0.00  0.00    +0.000 A 
ATOM      5  C   UNL     1       3.849   4.109  18.682  0.00  0.00    +0.000 A 
ATOM      6  C   UNL     1       4.918   3.885  17.786  0.00  0.00    +0.000 A 
ATOM      7  C   UNL     1       2.298   5.991  19.660  0.00  0.00    +0.000 C 
ATOM      8  N   UNL     1       2.261   7.397  19.269  0.00  0.00    +0.000 N 
ATOM      9  C   UNL     1       3.195   7.668  18.267  0.00  0.00    +0.000 C 
ATOM     10  O   UNL     1       3.463   8.697  17.675  0.00  0.00    +0.000 OA
ENDROOT
BRANCH   8  11
ATOM     11  C   UNL     1       1.382   8.341  19.869  0.00  0.00    +0.000 A 
ATOM     12  C   UNL     1       0.834   9.401  19.134  0.00  0.00    +0.000 A 
ATOM     13  C   UNL     1      -0.026  10.337  19.723  0.00  0.00    +0.000 A 
ATOM     14  C   UNL     1      -0.351  10.227  21.068  0.00  0.00    +0.000 A 
ATOM     15  C   UNL     1       0.187   9.185  21.807  0.00  0.00    +0.000 A 
ATOM     16  F   UNL     1      -0.115   9.079  23.108  0.00  0.00    +0.000 F 
ATOM     17  C   UNL     1       1.040   8.246  21.225  0.00  0.00    +0.000 A 
ENDBRANCH   8  11
BRANCH   5  18
ATOM     18  C   UNL     1       3.297   2.961  19.484  0.00  0.00    +0.000 C 
ATOM     19  F   UNL     1       3.316   3.175  20.829  0.00  0.00    +0.000 F 
ATOM     20  F   UNL     1       2.002   2.686  19.169  0.00  0.00    +0.000 F 
ATOM     21  F   UNL     1       3.986   1.805  19.281  0.00  0.00    +0.000 F 
ENDBRANCH   5  18
BRANCH   1  22
ATOM     22  C   UNL     1       6.678   4.681  16.116  0.00  0.00    +0.000 C 
BRANCH  22  26
ATOM     23  C   UNL     1       5.849   3.168  12.044  0.00  0.00    +0.000 C 
ATOM     24  C   UNL     1       6.177   3.564  13.468  0.00  0.00    +0.000 C 
ATOM     25  C   UNL     1       5.273   4.618  14.140  0.00  0.00    +0.000 C 
ATOM     26  N   UNL     1       6.470   5.233  14.767  0.00  0.00    +0.000 NA
ATOM     27  C   UNL     1       7.334   4.562  13.754  0.00  0.00    +0.000 C 
ATOM     28  C   UNL     1       7.753   5.533  12.654  0.00  0.00    +0.000 C 
ENDBRANCH  22  26
ENDBRANCH   1  22
TORSDOF 4
ENDMDL
MODEL 6
REMARK VINA RESULT:      -8.1      3.612      5.679
REMARK  Name = 
REMARK  6 active torsions:
REMARK  status: ('A' for Active; 'I' for Inactive)
REMARK    1  A    between atoms: C_1  and  C_2
REMARK    2  A    between atoms: N_4  and  C_5
REMARK    3  A    between atoms: C_5  and  C_6
REMARK    4  A    between atoms: C_10  and  C_11
REMARK    5  A    between atoms: N_17  and  C_18
REMARK    6  A    between atoms: C_27  and  C_28
REMARK                            x       y       z     vdW  Elec       q    Type
REMARK                         _______ _______ _______ _____ _____    ______ ____
ROOT
ATOM      1  C   UNL     1       0.294  11.519  19.257  0.00  0.00    +0.000 A 
ATOM      2  C   UNL     1       1.065  10.674  18.453  0.00  0.00    +0.000 A 
ATOM      3  C   UNL     1       1.413   9.437  18.960  0.00  0.00    +0.000 A 
ATOM      4  C   UNL     1       1.034   8.994  20.222  0.00  0.00    +0.000 A 
ATOM      5  C   UNL     1       0.297   9.825  21.062  0.00  0.00    +0.000 A 
ATOM      6  C   UNL     1      -0.067  11.094  20.558  0.00  0.00    +0.000 A 
ATOM      7  C   UNL     1       1.519   7.590  20.416  0.00  0.00    +0.000 C 
ATOM      8  N   UNL     1       2.229   7.298  19.175  0.00  0.00    +0.000 N 
ATOM      9  C   UNL     1       2.189   8.386  18.301  0.00  0.00    +0.000 C 
ATOM     10  O   UNL     1       2.662   8.544  17.190  0.00  0.00    +0.000 OA
ENDROOT
BRANCH   8  11
ATOM     11  C   UNL     1       2.856   6.047  18.921  0.00  0.00    +0.000 A 
ATOM     12  C   UNL     1       4.122   5.742  19.439  0.00  0.00    +0.000 A 
ATOM     13  C   UNL     1       4.745   4.514  19.185  0.00  0.00    +0.000 A 
ATOM     14  C   UNL     1       4.107   3.564  18.400  0.00  0.00    +0.000 A 
ATOM     15  C   UNL     1       2.854   3.854  17.879  0.00  0.00    +0.000 A 
ATOM     16  F   UNL     1       2.237   2.945  17.112  0.00  0.00    +0.000 F 
ATOM     17  C   UNL     1       2.226   5.074  18.133  0.00  0.00    +0.000 A 
ENDBRANCH   8  11
BRANCH   5  18
ATOM     18  C   UNL     1      -0.121   9.428  22.452  0.00  0.00    +0.000 C 
ATOM     19  F   UNL     1      -0.852  10.379  23.096  0.00  0.00    +0.000 F 
ATOM     20  F   UNL     1      -0.887   8.303  22.459  0.00  0.00    +0.000 F 
ATOM     21  F   UNL     1       0.942   9.163  23.260  0.00  0.00    +0.000 F 
ENDBRANCH   5  18
BRANCH   1  22
ATOM     22  C   UNL     1      -0.176  12.851  18.708  0.00  0.00    +0.000 C 
BRANCH  22  26
ATOM     23  C   UNL     1       2.267  16.534  18.848  0.00  0.00    +0.000 C 
ATOM     24  C   UNL     1       1.512  15.230  18.704  0.00  0.00    +0.000 C 
ATOM     25  C   UNL     1      -0.010  15.258  18.955  0.00  0.00    +0.000 C 
ATOM     26  N   UNL     1       0.089  13.950  19.651  0.00  0.00    +0.000 NA
ATOM     27  C   UNL     1       1.551  14.174  19.844  0.00  0.00    +0.000 C 
ATOM     28  C   UNL     1       1.857  14.641  21.264  0.00  0.00    +0.000 C 
ENDBRANCH  22  26
ENDBRANCH   1  22
TORSDOF 4
ENDMDL
MODEL 7
REMARK VINA RESULT:      -8.1      2.454      7.291
REMARK  Name = 
REMARK  6 active torsions:
REMARK  status: ('A' for Active; 'I' for Inactive)
REMARK    1  A    between atoms: C_1  and  C_2
REMARK    2  A    between atoms: N_4  and  C_5
REMARK    3  A    between atoms: C_5  and  C_6
REMARK    4  A    between atoms: C_10  and  C_11
REMARK    5  A    between atoms: N_17  and  C_18
REMARK    6  A    between atoms: C_27  and  C_28
REMARK                            x       y       z     vdW  Elec       q    Type
REMARK                         _______ _______ _______ _____ _____    ______ ____
ROOT
ATOM      1  C   UNL     1       3.991   5.043  17.576  0.00  0.00    +0.000 A 
ATOM      2  C   UNL     1       3.533   6.363  17.623  0.00  0.00    +0.000 A 
ATOM      3  C   UNL     1       2.706   6.726  18.669  0.00  0.00    +0.000 A 
ATOM      4  C   UNL     1       2.312   5.847  19.672  0.00  0.00    +0.000 A 
ATOM      5  C   UNL     1       2.721   4.517  19.634  0.00  0.00    +0.000 A 
ATOM      6  C   UNL     1       3.568   4.130  18.571  0.00  0.00    +0.000 A 
ATOM      7  C   UNL     1       1.483   6.587  20.675  0.00  0.00    +0.000 C 
ATOM      8  N   UNL     1       1.416   7.941  20.133  0.00  0.00    +0.000 N 
ATOM      9  C   UNL     1       2.126   8.042  18.936  0.00  0.00    +0.000 C 
ATOM     10  O   UNL     1       2.301   8.981  18.181  0.00  0.00    +0.000 OA
ENDROOT
BRANCH   8  11
ATOM     11  C   UNL     1       0.719   8.997  20.783  0.00  0.00    +0.000 A 
ATOM     12  C   UNL     1       0.688   9.105  22.180  0.00  0.00    +0.000 A 
ATOM     13  C   UNL     1      -0.003  10.140  22.823  0.00  0.00    +0.000 A 
ATOM     14  C   UNL     1      -0.681  11.089  22.072  0.00  0.00    +0.000 A 
ATOM     15  C   UNL     1      -0.661  10.993  20.688  0.00  0.00    +0.000 A 
ATOM     16  F   UNL     1      -1.322  11.900  19.957  0.00  0.00    +0.000 F 
ATOM     17  C   UNL     1       0.031   9.967  20.042  0.00  0.00    +0.000 A 
ENDBRANCH   8  11
BRANCH   5  18
ATOM     18  C   UNL     1       2.310   3.500  20.665  0.00  0.00    +0.000 C 
ATOM     19  F   UNL     1       2.574   3.882  21.945  0.00  0.00    +0.000 F 
ATOM     20  F   UNL     1       0.975   3.235  20.624  0.00  0.00    +0.000 F 
ATOM     21  F   UNL     1       2.935   2.303  20.496  0.00  0.00    +0.000 F 
ENDBRANCH   5  18
BRANCH   1  22
ATOM     22  C   UNL     1       4.963   4.627  16.491  0.00  0.00    +0.000 C 
BRANCH  22  26
ATOM     23  C   UNL     1       8.144   5.522  19.429  0.00  0.00    +0.000 C 
ATOM     24  C   UNL     1       6.977   5.182  18.526  0.00  0.00    +0.000 C 
ATOM     25  C   UNL     1       7.301   4.598  17.135  0.00  0.00    +0.000 C 
ATOM     26  N   UNL     1       6.207   5.412  16.548  0.00  0.00    +0.000 NA
ATOM     27  C   UNL     1       6.244   6.306  17.741  0.00  0.00    +0.000 C 
ATOM     28  C   UNL     1       6.995   7.599  17.441  0.00  0.00    +0.000 C 
ENDBRANCH  22  26
ENDBRANCH   1  22
TORSDOF 4
ENDMDL
MODEL 8
REMARK VINA RESULT:      -8.0      2.689      7.313
REMARK  Name = 
REMARK  6 active torsions:
REMARK  status: ('A' for Active; 'I' for Inactive)
REMARK    1  A    between atoms: C_1  and  C_2
REMARK    2  A    between atoms: N_4  and  C_5
REMARK    3  A    between atoms: C_5  and  C_6
REMARK    4  A    between atoms: C_10  and  C_11
REMARK    5  A    between atoms: N_17  and  C_18
REMARK    6  A    between atoms: C_27  and  C_28
REMARK                            x       y       z     vdW  Elec       q    Type
REMARK                         _______ _______ _______ _____ _____    ______ ____
ROOT
ATOM      1  C   UNL     1       4.116   5.380  17.487  0.00  0.00    +0.000 A 
ATOM      2  C   UNL     1       3.652   6.687  17.308  0.00  0.00    +0.000 A 
ATOM      3  C   UNL     1       2.764   7.193  18.237  0.00  0.00    +0.000 A 
ATOM      4  C   UNL     1       2.316   6.472  19.338  0.00  0.00    +0.000 A 
ATOM      5  C   UNL     1       2.729   5.156  19.525  0.00  0.00    +0.000 A 
ATOM      6  C   UNL     1       3.637   4.623  18.584  0.00  0.00    +0.000 A 
ATOM      7  C   UNL     1       1.427   7.346  20.168  0.00  0.00    +0.000 C 
ATOM      8  N   UNL     1       1.388   8.601  19.424  0.00  0.00    +0.000 N 
ATOM      9  C   UNL     1       2.167   8.528  18.268  0.00  0.00    +0.000 C 
ATOM     10  O   UNL     1       2.383   9.344  17.391  0.00  0.00    +0.000 OA
ENDROOT
BRANCH   8  11
ATOM     11  C   UNL     1       0.652   9.736  19.865  0.00  0.00    +0.000 A 
ATOM     12  C   UNL     1       0.961  10.388  21.066  0.00  0.00    +0.000 A 
ATOM     13  C   UNL     1       0.234  11.502  21.507  0.00  0.00    +0.000 A 
ATOM     14  C   UNL     1      -0.824  11.981  20.747  0.00  0.00    +0.000 A 
ATOM     15  C   UNL     1      -1.142  11.343  19.558  0.00  0.00    +0.000 A 
ATOM     16  F   UNL     1      -2.169  11.795  18.825  0.00  0.00    +0.000 F 
ATOM     17  C   UNL     1      -0.418  10.237  19.111  0.00  0.00    +0.000 A 
ENDBRANCH   8  11
BRANCH   5  18
ATOM     18  C   UNL     1       2.261   4.303  20.673  0.00  0.00    +0.000 C 
ATOM     19  F   UNL     1       2.806   3.056  20.686  0.00  0.00    +0.000 F 
ATOM     20  F   UNL     1       2.561   4.852  21.882  0.00  0.00    +0.000 F 
ATOM     21  F   UNL     1       0.912   4.120  20.670  0.00  0.00    +0.000 F 
ENDBRANCH   5  18
BRANCH   1  22
ATOM     22  C   UNL     1       5.151   4.816  16.535  0.00  0.00    +0.000 C 
BRANCH  22  26
ATOM     23  C   UNL     1       8.231   5.621  19.604  0.00  0.00    +0.000 C 
ATOM     24  C   UNL     1       7.092   5.318  18.653  0.00  0.00    +0.000 C 
ATOM     25  C   UNL     1       7.451   4.684  17.293  0.00  0.00    +0.000 C 
ATOM     26  N   UNL     1       6.430   5.538  16.635  0.00  0.00    +0.000 NA
ATOM     27  C   UNL     1       6.456   6.458  17.809  0.00  0.00    +0.000 C 
ATOM     28  C   UNL     1       7.286   7.704  17.517  0.00  0.00    +0.000 C 
ENDBRANCH  22  26
ENDBRANCH   1  22
TORSDOF 4
ENDMDL
MODEL 9
REMARK VINA RESULT:      -8.0      3.702      5.922
REMARK  Name = 
REMARK  6 active torsions:
REMARK  status: ('A' for Active; 'I' for Inactive)
REMARK    1  A    between atoms: C_1  and  C_2
REMARK    2  A    between atoms: N_4  and  C_5
REMARK    3  A    between atoms: C_5  and  C_6
REMARK    4  A    between atoms: C_10  and  C_11
REMARK    5  A    between atoms: N_17  and  C_18
REMARK    6  A    between atoms: C_27  and  C_28
REMARK                            x       y       z     vdW  Elec       q    Type
REMARK                         _______ _______ _______ _____ _____    ______ ____
ROOT
ATOM      1  C   UNL     1       0.453  11.699  19.379  0.00  0.00    +0.000 A 
ATOM      2  C   UNL     1       1.156  10.838  18.530  0.00  0.00    +0.000 A 
ATOM      3  C   UNL     1       1.447   9.569  18.990  0.00  0.00    +0.000 A 
ATOM      4  C   UNL     1       1.075   9.108  20.248  0.00  0.00    +0.000 A 
ATOM      5  C   UNL     1       0.406   9.952  21.131  0.00  0.00    +0.000 A 
ATOM      6  C   UNL     1       0.100  11.253  20.675  0.00  0.00    +0.000 A 
ATOM      7  C   UNL     1       1.486   7.674  20.387  0.00  0.00    +0.000 C 
ATOM      8  N   UNL     1       2.149   7.383  19.119  0.00  0.00    +0.000 N 
ATOM      9  C   UNL     1       2.147   8.499  18.279  0.00  0.00    +0.000 C 
ATOM     10  O   UNL     1       2.600   8.665  17.162  0.00  0.00    +0.000 OA
ENDROOT
BRANCH   8  11
ATOM     11  C   UNL     1       2.698   6.108  18.812  0.00  0.00    +0.000 A 
ATOM     12  C   UNL     1       1.985   5.165  18.059  0.00  0.00    +0.000 A 
ATOM     13  C   UNL     1       2.520   3.905  17.760  0.00  0.00    +0.000 A 
ATOM     14  C   UNL     1       3.786   3.566  18.216  0.00  0.00    +0.000 A 
ATOM     15  C   UNL     1       4.502   4.489  18.963  0.00  0.00    +0.000 A 
ATOM     16  F   UNL     1       5.721   4.164  19.414  0.00  0.00    +0.000 F 
ATOM     17  C   UNL     1       3.976   5.748  19.260  0.00  0.00    +0.000 A 
ENDBRANCH   8  11
BRANCH   5  18
ATOM     18  C   UNL     1       0.001   9.534  22.519  0.00  0.00    +0.000 C 
ATOM     19  F   UNL     1      -0.846   8.469  22.544  0.00  0.00    +0.000 F 
ATOM     20  F   UNL     1       1.069   9.179  23.284  0.00  0.00    +0.000 F 
ATOM     21  F   UNL     1      -0.633  10.530  23.198  0.00  0.00    +0.000 F 
ENDBRANCH   5  18
BRANCH   1  22
ATOM     22  C   UNL     1       0.044  13.071  18.882  0.00  0.00    +0.000 C 
BRANCH  22  26
ATOM     23  C   UNL     1       2.837  16.489  18.614  0.00  0.00    +0.000 C 
ATOM     24  C   UNL     1       1.942  15.267  18.599  0.00  0.00    +0.000 C 
ATOM     25  C   UNL     1       0.483  15.449  19.066  0.00  0.00    +0.000 C 
ATOM     26  N   UNL     1       0.551  14.138  19.760  0.00  0.00    +0.000 NA
ATOM     27  C   UNL     1       2.040  14.214  19.738  0.00  0.00    +0.000 C 
ATOM     28  C   UNL     1       2.592  14.648  21.092  0.00  0.00    +0.000 C 
ENDBRANCH  22  26
ENDBRANCH   1  22
TORSDOF 4
ENDMDL
