MODEL 1
REMARK VINA RESULT:      -9.6      0.000      0.000
REMARK  Name = 
REMARK  3 active torsions:
REMARK  status: ('A' for Active; 'I' for Inactive)
REMARK    1  A    between atoms: C_2  and  C_3
REMARK    2  A    between atoms: C_17  and  C_18
REMARK    3  A    between atoms: C_20  and  C_21
REMARK                            x       y       z     vdW  Elec       q    Type
REMARK                         _______ _______ _______ _____ _____    ______ ____
ROOT
ATOM      1  O   UNL     1       2.448   9.004  18.049  0.00  0.00    +0.000 OA
ATOM      2  C   UNL     1       2.038   8.383  19.033  0.00  0.00    +0.000 C 
ATOM      3  N   UNL     1       2.368   7.043  19.212  0.00  0.00    +0.000 N 
ATOM      4  C   UNL     1       2.164   6.241  20.363  0.00  0.00    +0.000 C 
ATOM      5  C   UNL     1       2.968   4.982  20.048  0.00  0.00    +0.000 C 
ATOM      6  C   UNL     1       2.115   3.785  20.499  0.00  0.00    +0.000 C 
ATOM      7  C   UNL     1       2.637   2.652  19.671  0.00  0.00    +0.000 C 
ATOM      8  C   UNL     1       3.732   3.322  18.870  0.00  0.00    +0.000 C 
ATOM      9  C   UNL     1       3.205   4.799  18.471  0.00  0.00    +0.000 C 
ATOM     10  C   UNL     1       3.324   6.400  18.361  0.00  0.00    +0.000 C 
ENDROOT
BRANCH   2  11
ATOM     11  C   UNL     1       1.179   9.061  20.029  0.00  0.00    +0.000 A 
ATOM     12  C   UNL     1       0.350  10.210  19.748  0.00  0.00    +0.000 A 
ATOM     13  C   UNL     1      -0.255  10.495  20.941  0.00  0.00    +0.000 A 
ATOM     14  N   UNL     1       0.213   9.582  21.814  0.00  0.00    +0.000 N 
ATOM     15  N   UNL     1       1.062   8.695  21.330  0.00  0.00    +0.000 NA
ATOM     16  C   UNL     1      -0.320   9.674  23.153  0.00  0.00    +0.000 C 
ATOM     17  C   UNL     1      -1.224  10.917  23.058  0.00  0.00    +0.000 C 
ATOM     18  C   UNL     1      -1.211  11.405  21.582  0.00  0.00    +0.000 C 
ENDBRANCH   2  11
BRANCH   9  19
ATOM     19  C   UNL     1       4.367   4.797  17.439  0.00  0.00    +0.000 A 
ATOM     20  N   UNL     1       4.433   4.998  16.137  0.00  0.00    +0.000 NA
ATOM     21  C   UNL     1       5.716   4.569  15.839  0.00  0.00    +0.000 A 
ATOM     22  N   UNL     1       6.438   4.236  16.921  0.00  0.00    +0.000 NA
ATOM     23  O   UNL     1       5.552   4.365  17.972  0.00  0.00    +0.000 OA
BRANCH  21  24
ATOM     24  C   UNL     1       6.222   4.412  14.479  0.00  0.00    +0.000 A 
ATOM     25  C   UNL     1       7.331   5.138  14.028  0.00  0.00    +0.000 A 
ATOM     26  C   UNL     1       7.786   4.992  12.713  0.00  0.00    +0.000 A 
ATOM     27  C   UNL     1       7.135   4.124  11.836  0.00  0.00    +0.000 A 
ATOM     28  C   UNL     1       6.024   3.406  12.268  0.00  0.00    +0.000 A 
ATOM     29  C   UNL     1       5.570   3.550  13.579  0.00  0.00    +0.000 A 
ENDBRANCH  21  24
ENDBRANCH   9  19
TORSDOF 3
ENDMDL
MODEL 2
REMARK VINA RESULT:      -9.6      0.598      1.316
REMARK  Name = 
REMARK  3 active torsions:
REMARK  status: ('A' for Active; 'I' for Inactive)
REMARK    1  A    between atoms: C_2  and  C_3
REMARK    2  A    between atoms: C_17  and  C_18
REMARK    3  A    between atoms: C_20  and  C_21
REMARK                            x       y       z     vdW  Elec       q    Type
REMARK                         _______ _______ _______ _____ _____    ______ ____
ROOT
ATOM      1  O   UNL     1       2.402   9.007  18.021  0.00  0.00    +0.000 OA
ATOM      2  C   UNL     1       2.023   8.395  19.024  0.00  0.00    +0.000 C 
ATOM      3  N   UNL     1       2.385   7.066  19.220  0.00  0.00    +0.000 N 
ATOM      4  C   UNL     1       2.220   6.280  20.388  0.00  0.00    +0.000 C 
ATOM      5  C   UNL     1       3.043   5.033  20.080  0.00  0.00    +0.000 C 
ATOM      6  C   UNL     1       2.224   3.827  20.569  0.00  0.00    +0.000 C 
ATOM      7  C   UNL     1       2.754   2.691  19.750  0.00  0.00    +0.000 C 
ATOM      8  C   UNL     1       3.819   3.368  18.916  0.00  0.00    +0.000 C 
ATOM      9  C   UNL     1       3.254   4.826  18.502  0.00  0.00    +0.000 C 
ATOM     10  C   UNL     1       3.337   6.428  18.362  0.00  0.00    +0.000 C 
ENDROOT
BRANCH   2  11
ATOM     11  C   UNL     1       1.170   9.074  20.025  0.00  0.00    +0.000 A 
ATOM     12  C   UNL     1       0.998   8.630  21.388  0.00  0.00    +0.000 A 
ATOM     13  C   UNL     1       0.139   9.541  21.938  0.00  0.00    +0.000 A 
ATOM     14  N   UNL     1      -0.148  10.412  20.952  0.00  0.00    +0.000 N 
ATOM     15  N   UNL     1       0.442  10.194  19.791  0.00  0.00    +0.000 NA
ATOM     16  C   UNL     1      -1.030  11.495  21.319  0.00  0.00    +0.000 C 
ATOM     17  C   UNL     1      -1.373  11.155  22.781  0.00  0.00    +0.000 C 
ATOM     18  C   UNL     1      -0.548   9.900  23.184  0.00  0.00    +0.000 C 
ENDBRANCH   2  11
BRANCH   9  19
ATOM     19  C   UNL     1       4.395   4.830  17.447  0.00  0.00    +0.000 A 
ATOM     20  N   UNL     1       4.436   5.036  16.145  0.00  0.00    +0.000 NA
ATOM     21  C   UNL     1       5.713   4.610  15.820  0.00  0.00    +0.000 A 
ATOM     22  N   UNL     1       6.457   4.273  16.887  0.00  0.00    +0.000 NA
ATOM     23  O   UNL     1       5.591   4.397  17.956  0.00  0.00    +0.000 OA
BRANCH  21  24
ATOM     24  C   UNL     1       6.193   4.458  14.451  0.00  0.00    +0.000 A 
ATOM     25  C   UNL     1       5.580   3.568  13.561  0.00  0.00    +0.000 A 
ATOM     26  C   UNL     1       6.071   3.418  12.259  0.00  0.00    +0.000 A 
ATOM     27  C   UNL     1       7.181   4.151  11.837  0.00  0.00    +0.000 A 
ATOM     28  C   UNL     1       7.807   5.030  12.716  0.00  0.00    +0.000 A 
ATOM     29  C   UNL     1       7.318   5.181  14.014  0.00  0.00    +0.000 A 
ENDBRANCH  21  24
ENDBRANCH   9  19
TORSDOF 3
ENDMDL
MODEL 3
REMARK VINA RESULT:      -9.4      1.042      1.447
REMARK  Name = 
REMARK  3 active torsions:
REMARK  status: ('A' for Active; 'I' for Inactive)
REMARK    1  A    between atoms: C_2  and  C_3
REMARK    2  A    between atoms: C_17  and  C_18
REMARK    3  A    between atoms: C_20  and  C_21
REMARK                            x       y       z     vdW  Elec       q    Type
REMARK                         _______ _______ _______ _____ _____    ______ ____
ROOT
ATOM      1  O   UNL     1       2.229   9.376  17.147  0.00  0.00    +0.000 OA
ATOM      2  C   UNL     1       1.816   8.989  18.244  0.00  0.00    +0.000 C 
ATOM      3  N   UNL     1       2.187   7.743  18.739  0.00  0.00    +0.000 N 
ATOM      4  C   UNL     1       1.983   7.227  20.043  0.00  0.00    +0.000 C 
ATOM      5  C   UNL     1       2.835   5.961  20.047  0.00  0.00    +0.000 C 
ATOM      6  C   UNL     1       2.013   4.872  20.756  0.00  0.00    +0.000 C 
ATOM      7  C   UNL     1       2.591   3.597  20.226  0.00  0.00    +0.000 C 
ATOM      8  C   UNL     1       3.682   4.100  19.305  0.00  0.00    +0.000 C 
ATOM      9  C   UNL     1       3.115   5.420  18.562  0.00  0.00    +0.000 C 
ATOM     10  C   UNL     1       3.183   6.954  18.078  0.00  0.00    +0.000 C 
ENDROOT
BRANCH   2  11
ATOM     11  C   UNL     1       0.912   9.850  19.038  0.00  0.00    +0.000 A 
ATOM     12  C   UNL     1      -0.376  10.321  18.587  0.00  0.00    +0.000 A 
ATOM     13  C   UNL     1      -0.850  11.071  19.628  0.00  0.00    +0.000 A 
ATOM     14  N   UNL     1       0.108  11.026  20.574  0.00  0.00    +0.000 N 
ATOM     15  N   UNL     1       1.177  10.307  20.288  0.00  0.00    +0.000 NA
ATOM     16  C   UNL     1      -0.193  11.737  21.795  0.00  0.00    +0.000 C 
ATOM     17  C   UNL     1      -1.560  12.369  21.475  0.00  0.00    +0.000 C 
ATOM     18  C   UNL     1      -1.999  11.870  20.069  0.00  0.00    +0.000 C 
ENDBRANCH   2  11
BRANCH   9  19
ATOM     19  C   UNL     1       4.300   5.219  17.576  0.00  0.00    +0.000 A 
ATOM     20  N   UNL     1       4.479   5.482  16.296  0.00  0.00    +0.000 NA
ATOM     21  C   UNL     1       5.647   4.793  16.015  0.00  0.00    +0.000 A 
ATOM     22  N   UNL     1       6.218   4.237  17.097  0.00  0.00    +0.000 NA
ATOM     23  O   UNL     1       5.329   4.497  18.121  0.00  0.00    +0.000 OA
BRANCH  21  24
ATOM     24  C   UNL     1       6.177   4.610  14.668  0.00  0.00    +0.000 A 
ATOM     25  C   UNL     1       5.576   3.725  13.765  0.00  0.00    +0.000 A 
ATOM     26  C   UNL     1       6.114   3.544  12.486  0.00  0.00    +0.000 A 
ATOM     27  C   UNL     1       7.258   4.241  12.100  0.00  0.00    +0.000 A 
ATOM     28  C   UNL     1       7.873   5.115  12.992  0.00  0.00    +0.000 A 
ATOM     29  C   UNL     1       7.337   5.296  14.267  0.00  0.00    +0.000 A 
ENDBRANCH  21  24
ENDBRANCH   9  19
TORSDOF 3
ENDMDL
MODEL 4
REMARK VINA RESULT:      -9.2      1.010      1.281
REMARK  Name = 
REMARK  3 active torsions:
REMARK  status: ('A' for Active; 'I' for Inactive)
REMARK    1  A    between atoms: C_2  and  C_3
REMARK    2  A    between atoms: C_17  and  C_18
REMARK    3  A    between atoms: C_20  and  C_21
REMARK                            x       y       z     vdW  Elec       q    Type
REMARK                         _______ _______ _______ _____ _____    ______ ____
ROOT
ATOM      1  O   UNL     1       2.776   8.521  18.210  0.00  0.00    +0.000 OA
ATOM      2  C   UNL     1       2.124   7.931  19.076  0.00  0.00    +0.000 C 
ATOM      3  N   UNL     1       2.133   6.541  19.143  0.00  0.00    +0.000 N 
ATOM      4  C   UNL     1       1.622   5.714  20.175  0.00  0.00    +0.000 C 
ATOM      5  C   UNL     1       2.167   4.336  19.810  0.00  0.00    +0.000 C 
ATOM      6  C   UNL     1       1.027   3.331  20.042  0.00  0.00    +0.000 C 
ATOM      7  C   UNL     1       1.389   2.181  19.154  0.00  0.00    +0.000 C 
ATOM      8  C   UNL     1       2.692   2.648  18.543  0.00  0.00    +0.000 C 
ATOM      9  C   UNL     1       2.549   4.234  18.254  0.00  0.00    +0.000 C 
ATOM     10  C   UNL     1       3.023   5.770  18.328  0.00  0.00    +0.000 C 
ENDROOT
BRANCH   2  11
ATOM     11  C   UNL     1       1.318   8.702  20.048  0.00  0.00    +0.000 A 
ATOM     12  C   UNL     1       1.142   8.340  21.435  0.00  0.00    +0.000 A 
ATOM     13  C   UNL     1       0.335   9.319  21.945  0.00  0.00    +0.000 A 
ATOM     14  N   UNL     1       0.077  10.150  20.916  0.00  0.00    +0.000 N 
ATOM     15  N   UNL     1       0.642   9.843  19.763  0.00  0.00    +0.000 NA
ATOM     16  C   UNL     1      -0.747  11.293  21.233  0.00  0.00    +0.000 C 
ATOM     17  C   UNL     1      -1.086  11.048  22.715  0.00  0.00    +0.000 C 
ATOM     18  C   UNL     1      -0.318   9.778  23.177  0.00  0.00    +0.000 C 
ENDBRANCH   2  11
BRANCH   9  19
ATOM     19  C   UNL     1       3.800   4.053  17.349  0.00  0.00    +0.000 A 
ATOM     20  N   UNL     1       4.335   4.767  16.378  0.00  0.00    +0.000 NA
ATOM     21  C   UNL     1       5.258   3.884  15.840  0.00  0.00    +0.000 A 
ATOM     22  N   UNL     1       5.364   2.733  16.524  0.00  0.00    +0.000 NA
ATOM     23  O   UNL     1       4.396   2.830  17.504  0.00  0.00    +0.000 OA
BRANCH  21  24
ATOM     24  C   UNL     1       5.992   4.133  14.603  0.00  0.00    +0.000 A 
ATOM     25  C   UNL     1       7.084   5.008  14.570  0.00  0.00    +0.000 A 
ATOM     26  C   UNL     1       7.759   5.253  13.369  0.00  0.00    +0.000 A 
ATOM     27  C   UNL     1       7.346   4.630  12.191  0.00  0.00    +0.000 A 
ATOM     28  C   UNL     1       6.255   3.767  12.208  0.00  0.00    +0.000 A 
ATOM     29  C   UNL     1       5.581   3.522  13.405  0.00  0.00    +0.000 A 
ENDBRANCH  21  24
ENDBRANCH   9  19
TORSDOF 3
ENDMDL
MODEL 5
REMARK VINA RESULT:      -9.0      0.744      1.162
REMARK  Name = 
REMARK  3 active torsions:
REMARK  status: ('A' for Active; 'I' for Inactive)
REMARK    1  A    between atoms: C_2  and  C_3
REMARK    2  A    between atoms: C_17  and  C_18
REMARK    3  A    between atoms: C_20  and  C_21
REMARK                            x       y       z     vdW  Elec       q    Type
REMARK                         _______ _______ _______ _____ _____    ______ ____
ROOT
ATOM      1  O   UNL     1       2.654   8.657  18.051  0.00  0.00    +0.000 OA
ATOM      2  C   UNL     1       2.075   8.128  19.004  0.00  0.00    +0.000 C 
ATOM      3  N   UNL     1       2.149   6.753  19.200  0.00  0.00    +0.000 N 
ATOM      4  C   UNL     1       1.729   6.010  20.333  0.00  0.00    +0.000 C 
ATOM      5  C   UNL     1       2.314   4.625  20.069  0.00  0.00    +0.000 C 
ATOM      6  C   UNL     1       1.233   3.604  20.459  0.00  0.00    +0.000 C 
ATOM      7  C   UNL     1       1.597   2.389  19.664  0.00  0.00    +0.000 C 
ATOM      8  C   UNL     1       2.845   2.845  18.939  0.00  0.00    +0.000 C 
ATOM      9  C   UNL     1       2.618   4.388  18.511  0.00  0.00    +0.000 C 
ATOM     10  C   UNL     1       3.028   5.942  18.413  0.00  0.00    +0.000 C 
ENDROOT
BRANCH   2  11
ATOM     11  C   UNL     1       1.288   8.958  19.942  0.00  0.00    +0.000 A 
ATOM     12  C   UNL     1       0.628  10.192  19.588  0.00  0.00    +0.000 A 
ATOM     13  C   UNL     1       0.034  10.608  20.747  0.00  0.00    +0.000 A 
ATOM     14  N   UNL     1       0.351   9.681  21.672  0.00  0.00    +0.000 N 
ATOM     15  N   UNL     1       1.087   8.668  21.253  0.00  0.00    +0.000 NA
ATOM     16  C   UNL     1      -0.202   9.902  22.987  0.00  0.00    +0.000 C 
ATOM     17  C   UNL     1      -0.928  11.249  22.812  0.00  0.00    +0.000 C 
ATOM     18  C   UNL     1      -0.809  11.664  21.319  0.00  0.00    +0.000 C 
ENDBRANCH   2  11
BRANCH   9  19
ATOM     19  C   UNL     1       3.826   4.169  17.558  0.00  0.00    +0.000 A 
ATOM     20  N   UNL     1       4.371   4.886  16.593  0.00  0.00    +0.000 NA
ATOM     21  C   UNL     1       5.222   3.972  15.995  0.00  0.00    +0.000 A 
ATOM     22  N   UNL     1       5.284   2.793  16.635  0.00  0.00    +0.000 NA
ATOM     23  O   UNL     1       4.356   2.910  17.650  0.00  0.00    +0.000 OA
BRANCH  21  24
ATOM     24  C   UNL     1       5.929   4.222  14.743  0.00  0.00    +0.000 A 
ATOM     25  C   UNL     1       5.563   3.571  13.559  0.00  0.00    +0.000 A 
ATOM     26  C   UNL     1       6.270   3.805  12.374  0.00  0.00    +0.000 A 
ATOM     27  C   UNL     1       7.350   4.687  12.363  0.00  0.00    +0.000 A 
ATOM     28  C   UNL     1       7.733   5.332  13.535  0.00  0.00    +0.000 A 
ATOM     29  C   UNL     1       7.029   5.099  14.717  0.00  0.00    +0.000 A 
ENDBRANCH  21  24
ENDBRANCH   9  19
TORSDOF 3
ENDMDL
MODEL 6
REMARK VINA RESULT:      -8.8      3.656      5.834
REMARK  Name = 
REMARK  3 active torsions:
REMARK  status: ('A' for Active; 'I' for Inactive)
REMARK    1  A    between atoms: C_2  and  C_3
REMARK    2  A    between atoms: C_17  and  C_18
REMARK    3  A    between atoms: C_20  and  C_21
REMARK                            x       y       z     vdW  Elec       q    Type
REMARK                         _______ _______ _______ _____ _____    ______ ____
ROOT
ATOM      1  O   UNL     1      -0.152   9.595  23.667  0.00  0.00    +0.000 OA
ATOM      2  C   UNL     1      -0.365  10.439  22.793  0.00  0.00    +0.000 C 
ATOM      3  N   UNL     1       0.133  10.264  21.506  0.00  0.00    +0.000 N 
ATOM      4  C   UNL     1      -0.179  11.010  20.341  0.00  0.00    +0.000 C 
ATOM      5  C   UNL     1       0.454  10.183  19.226  0.00  0.00    +0.000 C 
ATOM      6  C   UNL     1       1.124  11.174  18.261  0.00  0.00    +0.000 C 
ATOM      7  C   UNL     1       2.170  10.347  17.581  0.00  0.00    +0.000 C 
ATOM      8  C   UNL     1       1.961   8.987  18.211  0.00  0.00    +0.000 C 
ATOM      9  C   UNL     1       1.621   9.227  19.775  0.00  0.00    +0.000 C 
ATOM     10  C   UNL     1       0.753   9.034  21.117  0.00  0.00    +0.000 C 
ENDROOT
BRANCH   2  11
ATOM     11  C   UNL     1      -1.149  11.653  23.113  0.00  0.00    +0.000 A 
ATOM     12  C   UNL     1      -2.582  11.679  23.289  0.00  0.00    +0.000 A 
ATOM     13  C   UNL     1      -2.869  12.987  23.566  0.00  0.00    +0.000 A 
ATOM     14  N   UNL     1      -1.688  13.633  23.534  0.00  0.00    +0.000 N 
ATOM     15  N   UNL     1      -0.625  12.893  23.280  0.00  0.00    +0.000 NA
ATOM     16  C   UNL     1      -1.746  15.045  23.831  0.00  0.00    +0.000 C 
ATOM     17  C   UNL     1      -3.257  15.279  24.008  0.00  0.00    +0.000 C 
ATOM     18  C   UNL     1      -3.970  13.902  23.887  0.00  0.00    +0.000 C 
ENDBRANCH   2  11
BRANCH   9  19
ATOM     19  C   UNL     1       1.934   7.714  19.944  0.00  0.00    +0.000 A 
ATOM     20  N   UNL     1       2.623   6.839  19.239  0.00  0.00    +0.000 NA
ATOM     21  C   UNL     1       2.248   5.636  19.815  0.00  0.00    +0.000 A 
ATOM     22  N   UNL     1       1.462   5.779  20.896  0.00  0.00    +0.000 NA
ATOM     23  O   UNL     1       1.237   7.139  20.974  0.00  0.00    +0.000 OA
BRANCH  21  24
ATOM     24  C   UNL     1       2.597   4.330  19.266  0.00  0.00    +0.000 A 
ATOM     25  C   UNL     1       2.106   3.909  18.024  0.00  0.00    +0.000 A 
ATOM     26  C   UNL     1       2.431   2.643  17.527  0.00  0.00    +0.000 A 
ATOM     27  C   UNL     1       3.245   1.784  18.266  0.00  0.00    +0.000 A 
ATOM     28  C   UNL     1       3.729   2.185  19.508  0.00  0.00    +0.000 A 
ATOM     29  C   UNL     1       3.405   3.448  20.005  0.00  0.00    +0.000 A 
ENDBRANCH  21  24
ENDBRANCH   9  19
TORSDOF 3
ENDMDL
MODEL 7
REMARK VINA RESULT:      -8.7      3.349      5.948
REMARK  Name = 
REMARK  3 active torsions:
REMARK  status: ('A' for Active; 'I' for Inactive)
REMARK    1  A    between atoms: C_2  and  C_3
REMARK    2  A    between atoms: C_17  and  C_18
REMARK    3  A    between atoms: C_20  and  C_21
REMARK                            x       y       z     vdW  Elec       q    Type
REMARK                         _______ _______ _______ _____ _____    ______ ____
ROOT
ATOM      1  O   UNL     1      -0.597   9.588  23.558  0.00  0.00    +0.000 OA
ATOM      2  C   UNL     1      -0.749  10.503  22.744  0.00  0.00    +0.000 C 
ATOM      3  N   UNL     1      -0.143  10.443  21.494  0.00  0.00    +0.000 N 
ATOM      4  C   UNL     1      -0.367  11.285  20.375  0.00  0.00    +0.000 C 
ATOM      5  C   UNL     1       0.369  10.562  19.250  0.00  0.00    +0.000 C 
ATOM      6  C   UNL     1       1.103  11.639  18.434  0.00  0.00    +0.000 C 
ATOM      7  C   UNL     1       2.214  10.882  17.776  0.00  0.00    +0.000 C 
ATOM      8  C   UNL     1       1.973   9.471  18.268  0.00  0.00    +0.000 C 
ATOM      9  C   UNL     1       1.501   9.572  19.812  0.00  0.00    +0.000 C 
ATOM     10  C   UNL     1       0.527   9.256  21.055  0.00  0.00    +0.000 C 
ENDROOT
BRANCH   2  11
ATOM     11  C   UNL     1      -1.575  11.678  23.099  0.00  0.00    +0.000 A 
ATOM     12  C   UNL     1      -1.095  13.040  23.118  0.00  0.00    +0.000 A 
ATOM     13  C   UNL     1      -2.181  13.780  23.497  0.00  0.00    +0.000 A 
ATOM     14  N   UNL     1      -3.178  12.893  23.684  0.00  0.00    +0.000 N 
ATOM     15  N   UNL     1      -2.884  11.627  23.453  0.00  0.00    +0.000 NA
ATOM     16  C   UNL     1      -4.449  13.462  24.066  0.00  0.00    +0.000 C 
ATOM     17  C   UNL     1      -4.113  14.960  24.187  0.00  0.00    +0.000 C 
ATOM     18  C   UNL     1      -2.633  15.153  23.752  0.00  0.00    +0.000 C 
ENDBRANCH   2  11
BRANCH   9  19
ATOM     19  C   UNL     1       1.821   8.052  19.878  0.00  0.00    +0.000 A 
ATOM     20  N   UNL     1       2.313   7.184  19.015  0.00  0.00    +0.000 NA
ATOM     21  C   UNL     1       2.064   5.974  19.643  0.00  0.00    +0.000 A 
ATOM     22  N   UNL     1       1.556   6.104  20.880  0.00  0.00    +0.000 NA
ATOM     23  O   UNL     1       1.376   7.464  21.032  0.00  0.00    +0.000 OA
BRANCH  21  24
ATOM     24  C   UNL     1       2.254   4.676  19.005  0.00  0.00    +0.000 A 
ATOM     25  C   UNL     1       3.288   4.463  18.085  0.00  0.00    +0.000 A 
ATOM     26  C   UNL     1       3.439   3.218  17.464  0.00  0.00    +0.000 A 
ATOM     27  C   UNL     1       2.556   2.177  17.753  0.00  0.00    +0.000 A 
ATOM     28  C   UNL     1       1.516   2.379  18.656  0.00  0.00    +0.000 A 
ATOM     29  C   UNL     1       1.366   3.620  19.276  0.00  0.00    +0.000 A 
ENDBRANCH  21  24
ENDBRANCH   9  19
TORSDOF 3
ENDMDL
MODEL 8
REMARK VINA RESULT:      -8.5      3.652      9.276
REMARK  Name = 
REMARK  3 active torsions:
REMARK  status: ('A' for Active; 'I' for Inactive)
REMARK    1  A    between atoms: C_2  and  C_3
REMARK    2  A    between atoms: C_17  and  C_18
REMARK    3  A    between atoms: C_20  and  C_21
REMARK                            x       y       z     vdW  Elec       q    Type
REMARK                         _______ _______ _______ _____ _____    ______ ____
ROOT
ATOM      1  O   UNL     1       2.961   8.359  17.679  0.00  0.00    +0.000 OA
ATOM      2  C   UNL     1       2.452   7.710  18.596  0.00  0.00    +0.000 C 
ATOM      3  N   UNL     1       1.649   8.337  19.544  0.00  0.00    +0.000 N 
ATOM      4  C   UNL     1       0.827   7.732  20.528  0.00  0.00    +0.000 C 
ATOM      5  C   UNL     1       0.009   8.906  21.059  0.00  0.00    +0.000 C 
ATOM      6  C   UNL     1      -0.057   8.749  22.587  0.00  0.00    +0.000 C 
ATOM      7  C   UNL     1      -0.320  10.141  23.070  0.00  0.00    +0.000 C 
ATOM      8  C   UNL     1      -0.397  10.919  21.774  0.00  0.00    +0.000 C 
ATOM      9  C   UNL     1       0.727  10.314  20.780  0.00  0.00    +0.000 C 
ATOM     10  C   UNL     1       1.254   9.705  19.387  0.00  0.00    +0.000 C 
ENDROOT
BRANCH   2  11
ATOM     11  C   UNL     1       2.701   6.256  18.699  0.00  0.00    +0.000 A 
ATOM     12  C   UNL     1       1.928   5.243  18.019  0.00  0.00    +0.000 A 
ATOM     13  C   UNL     1       2.501   4.061  18.399  0.00  0.00    +0.000 A 
ATOM     14  N   UNL     1       3.506   4.396  19.233  0.00  0.00    +0.000 N 
ATOM     15  N   UNL     1       3.682   5.687  19.444  0.00  0.00    +0.000 NA
ATOM     16  C   UNL     1       4.282   3.291  19.744  0.00  0.00    +0.000 C 
ATOM     17  C   UNL     1       3.552   2.075  19.143  0.00  0.00    +0.000 C 
ATOM     18  C   UNL     1       2.422   2.607  18.217  0.00  0.00    +0.000 C 
ENDBRANCH   2  11
BRANCH   9  19
ATOM     19  C   UNL     1       0.512  11.612  19.953  0.00  0.00    +0.000 A 
ATOM     20  N   UNL     1       1.275  12.648  19.663  0.00  0.00    +0.000 NA
ATOM     21  C   UNL     1       0.362  13.546  19.133  0.00  0.00    +0.000 A 
ATOM     22  N   UNL     1      -0.874  13.039  18.996  0.00  0.00    +0.000 NA
ATOM     23  O   UNL     1      -0.787  11.777  19.549  0.00  0.00    +0.000 OA
BRANCH  21  24
ATOM     24  C   UNL     1       0.679  14.936  18.825  0.00  0.00    +0.000 A 
ATOM     25  C   UNL     1      -0.330  15.896  18.678  0.00  0.00    +0.000 A 
ATOM     26  C   UNL     1      -0.008  17.219  18.357  0.00  0.00    +0.000 A 
ATOM     27  C   UNL     1       1.323  17.594  18.175  0.00  0.00    +0.000 A 
ATOM     28  C   UNL     1       2.335  16.648  18.305  0.00  0.00    +0.000 A 
ATOM     29  C   UNL     1       2.015  15.328  18.625  0.00  0.00    +0.000 A 
ENDBRANCH  21  24
ENDBRANCH   9  19
TORSDOF 3
ENDMDL
MODEL 9
REMARK VINA RESULT:      -8.4      3.657      9.276
REMARK  Name = 
REMARK  3 active torsions:
REMARK  status: ('A' for Active; 'I' for Inactive)
REMARK    1  A    between atoms: C_2  and  C_3
REMARK    2  A    between atoms: C_17  and  C_18
REMARK    3  A    between atoms: C_20  and  C_21
REMARK                            x       y       z     vdW  Elec       q    Type
REMARK                         _______ _______ _______ _____ _____    ______ ____
ROOT
ATOM      1  O   UNL     1       2.924   8.346  17.716  0.00  0.00    +0.000 OA
ATOM      2  C   UNL     1       2.421   7.700  18.638  0.00  0.00    +0.000 C 
ATOM      3  N   UNL     1       1.621   8.328  19.587  0.00  0.00    +0.000 N 
ATOM      4  C   UNL     1       0.807   7.725  20.578  0.00  0.00    +0.000 C 
ATOM      5  C   UNL     1      -0.013   8.898  21.107  0.00  0.00    +0.000 C 
ATOM      6  C   UNL     1      -0.071   8.748  22.636  0.00  0.00    +0.000 C 
ATOM      7  C   UNL     1      -0.336  10.141  23.115  0.00  0.00    +0.000 C 
ATOM      8  C   UNL     1      -0.422  10.913  21.816  0.00  0.00    +0.000 C 
ATOM      9  C   UNL     1       0.699  10.308  20.819  0.00  0.00    +0.000 C 
ATOM     10  C   UNL     1       1.221   9.694  19.426  0.00  0.00    +0.000 C 
ENDROOT
BRANCH   2  11
ATOM     11  C   UNL     1       2.675   6.246  18.746  0.00  0.00    +0.000 A 
ATOM     12  C   UNL     1       3.681   5.652  19.596  0.00  0.00    +0.000 A 
ATOM     13  C   UNL     1       3.562   4.307  19.378  0.00  0.00    +0.000 A 
ATOM     14  N   UNL     1       2.575   4.172  18.471  0.00  0.00    +0.000 N 
ATOM     15  N   UNL     1       2.001   5.288  18.063  0.00  0.00    +0.000 NA
ATOM     16  C   UNL     1       2.251   2.812  18.106  0.00  0.00    +0.000 C 
ATOM     17  C   UNL     1       3.290   2.004  18.906  0.00  0.00    +0.000 C 
ATOM     18  C   UNL     1       4.101   3.003  19.779  0.00  0.00    +0.000 C 
ENDBRANCH   2  11
BRANCH   9  19
ATOM     19  C   UNL     1       0.476  11.601  19.987  0.00  0.00    +0.000 A 
ATOM     20  N   UNL     1       1.255  12.602  19.627  0.00  0.00    +0.000 NA
ATOM     21  C   UNL     1       0.342  13.527  19.148  0.00  0.00    +0.000 A 
ATOM     22  N   UNL     1      -0.919  13.067  19.105  0.00  0.00    +0.000 NA
ATOM     23  O   UNL     1      -0.841  11.811  19.672  0.00  0.00    +0.000 OA
BRANCH  21  24
ATOM     24  C   UNL     1       0.689  14.900  18.795  0.00  0.00    +0.000 A 
ATOM     25  C   UNL     1       2.023  15.296  18.641  0.00  0.00    +0.000 A 
ATOM     26  C   UNL     1       2.336  16.624  18.328  0.00  0.00    +0.000 A 
ATOM     27  C   UNL     1       1.321  17.567  18.170  0.00  0.00    +0.000 A 
ATOM     28  C   UNL     1      -0.009  17.190  18.333  0.00  0.00    +0.000 A 
ATOM     29  C   UNL     1      -0.322  15.866  18.644  0.00  0.00    +0.000 A 
ENDBRANCH  21  24
ENDBRANCH   9  19
TORSDOF 3
ENDMDL
