MODEL 1
REMARK VINA RESULT:      -8.6      0.000      0.000
REMARK  Name = 
REMARK  4 active torsions:
REMARK  status: ('A' for Active; 'I' for Inactive)
REMARK    1  A    between atoms: C_8  and  S_9
REMARK    2  A    between atoms: S_9  and  N_12
REMARK    3  A    between atoms: C_15  and  N_16
REMARK    4  A    between atoms: N_16  and  C_17
REMARK                            x       y       z     vdW  Elec       q    Type
REMARK                         _______ _______ _______ _____ _____    ______ ____
ROOT
ATOM      1  S   UNL     1       4.223   3.217  19.031  0.00  0.00    +0.000 S 
ATOM      2  O   UNL     1       3.185   2.434  18.402  0.00  0.00    +0.000 OA
ATOM      3  O   UNL     1       5.242   2.590  19.849  0.00  0.00    +0.000 OA
ENDROOT
BRANCH   1  11
ATOM      4  O   UNL     1       9.121   5.592  13.330  0.00  0.00    +0.000 OA
ATOM      5  C   UNL     1       7.954   5.293  13.614  0.00  0.00    +0.000 C 
ATOM      6  C   UNL     1       7.155   4.447  12.654  0.00  0.00    +0.000 C 
ATOM      7  C   UNL     1       6.058   3.550  13.188  0.00  0.00    +0.000 C 
ATOM      8  C   UNL     1       4.985   4.331  13.928  0.00  0.00    +0.000 C 
ATOM      9  C   UNL     1       5.416   4.554  15.351  0.00  0.00    +0.000 A 
ATOM     10  C   UNL     1       4.668   3.971  16.398  0.00  0.00    +0.000 A 
ATOM     11  C   UNL     1       5.074   4.109  17.733  0.00  0.00    +0.000 A 
ATOM     12  C   UNL     1       6.227   4.827  18.037  0.00  0.00    +0.000 A 
ATOM     13  C   UNL     1       6.936   5.448  17.012  0.00  0.00    +0.000 A 
ATOM     14  C   UNL     1       6.560   5.293  15.668  0.00  0.00    +0.000 A 
ATOM     15  N   UNL     1       7.438   5.868  14.733  0.00  0.00    +0.000 N 
ATOM     16  H   UNL     1       8.153   6.466  15.134  0.00  0.00    +0.000 HD
ENDBRANCH   1  11
BRANCH   1  17
ATOM     17  N   UNL     1       3.487   4.413  19.962  0.00  0.00    +0.000 NA
ATOM     18  C   UNL     1       2.493   4.012  20.968  0.00  0.00    +0.000 C 
ATOM     19  C   UNL     1       1.215   4.699  20.525  0.00  0.00    +0.000 C 
ATOM     20  C   UNL     1       1.698   6.052  20.009  0.00  0.00    +0.000 C 
ATOM     21  C   UNL     1       3.037   5.678  19.326  0.00  0.00    +0.000 C 
BRANCH  20  22
ATOM     22  N   UNL     1       1.856   7.007  21.122  0.00  0.00    +0.000 N 
ATOM     23  H   UNL     1       2.827   7.155  21.399  0.00  0.00    +0.000 HD
BRANCH  22  24
ATOM     24  C   UNL     1       1.164   8.234  21.036  0.00  0.00    +0.000 A 
ATOM     25  C   UNL     1       0.507   8.822  22.126  0.00  0.00    +0.000 A 
ATOM     26  C   UNL     1      -0.148  10.051  22.014  0.00  0.00    +0.000 A 
ATOM     27  C   UNL     1      -0.141  10.736  20.805  0.00  0.00    +0.000 A 
ATOM     28  C   UNL     1       0.556  10.204  19.723  0.00  0.00    +0.000 A 
ATOM     29  C   UNL     1       1.221   8.977  19.847  0.00  0.00    +0.000 A 
ENDBRANCH  22  24
ENDBRANCH  20  22
ENDBRANCH   1  17
TORSDOF 4
ENDMDL
MODEL 2
REMARK VINA RESULT:      -8.4      2.392      8.441
REMARK  Name = 
REMARK  4 active torsions:
REMARK  status: ('A' for Active; 'I' for Inactive)
REMARK    1  A    between atoms: C_8  and  S_9
REMARK    2  A    between atoms: S_9  and  N_12
REMARK    3  A    between atoms: C_15  and  N_16
REMARK    4  A    between atoms: N_16  and  C_17
REMARK                            x       y       z     vdW  Elec       q    Type
REMARK                         _______ _______ _______ _____ _____    ______ ____
ROOT
ATOM      1  S   UNL     1       2.992   4.492  18.848  0.00  0.00    +0.000 S 
ATOM      2  O   UNL     1       3.212   3.976  20.178  0.00  0.00    +0.000 OA
ATOM      3  O   UNL     1       2.006   3.898  17.967  0.00  0.00    +0.000 OA
ENDROOT
BRANCH   1  11
ATOM      4  O   UNL     1      -0.639  11.484  19.054  0.00  0.00    +0.000 OA
ATOM      5  C   UNL     1      -0.032  10.630  19.712  0.00  0.00    +0.000 C 
ATOM      6  C   UNL     1      -0.531  10.265  21.088  0.00  0.00    +0.000 C 
ATOM      7  C   UNL     1      -0.274   8.874  21.628  0.00  0.00    +0.000 C 
ATOM      8  C   UNL     1       1.209   8.553  21.708  0.00  0.00    +0.000 C 
ATOM      9  C   UNL     1       1.689   8.059  20.372  0.00  0.00    +0.000 A 
ATOM     10  C   UNL     1       2.165   6.735  20.255  0.00  0.00    +0.000 A 
ATOM     11  C   UNL     1       2.566   6.222  19.014  0.00  0.00    +0.000 A 
ATOM     12  C   UNL     1       2.496   7.023  17.878  0.00  0.00    +0.000 A 
ATOM     13  C   UNL     1       2.080   8.347  17.998  0.00  0.00    +0.000 A 
ATOM     14  C   UNL     1       1.645   8.864  19.229  0.00  0.00    +0.000 A 
ATOM     15  N   UNL     1       1.132  10.172  19.178  0.00  0.00    +0.000 N 
ATOM     16  H   UNL     1       1.281  10.653  18.298  0.00  0.00    +0.000 HD
ENDBRANCH   1  11
BRANCH   1  17
ATOM     17  N   UNL     1       4.468   4.490  18.034  0.00  0.00    +0.000 NA
ATOM     18  C   UNL     1       5.682   4.865  18.773  0.00  0.00    +0.000 C 
ATOM     19  C   UNL     1       6.197   6.093  18.046  0.00  0.00    +0.000 C 
ATOM     20  C   UNL     1       5.918   5.783  16.578  0.00  0.00    +0.000 C 
ATOM     21  C   UNL     1       4.558   5.044  16.658  0.00  0.00    +0.000 C 
BRANCH  20  22
ATOM     22  N   UNL     1       6.998   4.959  16.005  0.00  0.00    +0.000 N 
ATOM     23  H   UNL     1       7.160   4.088  16.510  0.00  0.00    +0.000 HD
BRANCH  22  24
ATOM     24  C   UNL     1       6.985   4.738  14.611  0.00  0.00    +0.000 A 
ATOM     25  C   UNL     1       7.814   5.431  13.717  0.00  0.00    +0.000 A 
ATOM     26  C   UNL     1       7.794   5.169  12.344  0.00  0.00    +0.000 A 
ATOM     27  C   UNL     1       6.955   4.186  11.834  0.00  0.00    +0.000 A 
ATOM     28  C   UNL     1       6.167   3.442  12.707  0.00  0.00    +0.000 A 
ATOM     29  C   UNL     1       6.201   3.701  14.084  0.00  0.00    +0.000 A 
ENDBRANCH  22  24
ENDBRANCH  20  22
ENDBRANCH   1  17
TORSDOF 4
ENDMDL
MODEL 3
REMARK VINA RESULT:      -8.4      2.480      8.528
REMARK  Name = 
REMARK  4 active torsions:
REMARK  status: ('A' for Active; 'I' for Inactive)
REMARK    1  A    between atoms: C_8  and  S_9
REMARK    2  A    between atoms: S_9  and  N_12
REMARK    3  A    between atoms: C_15  and  N_16
REMARK    4  A    between atoms: N_16  and  C_17
REMARK                            x       y       z     vdW  Elec       q    Type
REMARK                         _______ _______ _______ _____ _____    ______ ____
ROOT
ATOM      1  S   UNL     1       2.660   4.604  19.227  0.00  0.00    +0.000 S 
ATOM      2  O   UNL     1       2.956   4.150  20.566  0.00  0.00    +0.000 OA
ATOM      3  O   UNL     1       1.591   4.005  18.454  0.00  0.00    +0.000 OA
ENDROOT
BRANCH   1  11
ATOM      4  O   UNL     1      -0.668  11.749  19.221  0.00  0.00    +0.000 OA
ATOM      5  C   UNL     1      -0.076  10.900  19.899  0.00  0.00    +0.000 C 
ATOM      6  C   UNL     1      -0.546  10.618  21.304  0.00  0.00    +0.000 C 
ATOM      7  C   UNL     1      -0.331   9.243  21.900  0.00  0.00    +0.000 C 
ATOM      8  C   UNL     1       1.139   8.862  21.950  0.00  0.00    +0.000 C 
ATOM      9  C   UNL     1       1.556   8.288  20.624  0.00  0.00    +0.000 A 
ATOM     10  C   UNL     1       1.972   6.941  20.555  0.00  0.00    +0.000 A 
ATOM     11  C   UNL     1       2.311   6.356  19.326  0.00  0.00    +0.000 A 
ATOM     12  C   UNL     1       2.239   7.108  18.157  0.00  0.00    +0.000 A 
ATOM     13  C   UNL     1       1.882   8.453  18.229  0.00  0.00    +0.000 A 
ATOM     14  C   UNL     1       1.509   9.043  19.448  0.00  0.00    +0.000 A 
ATOM     15  N   UNL     1       1.050  10.368  19.352  0.00  0.00    +0.000 N 
ATOM     16  H   UNL     1       1.191  10.802  18.446  0.00  0.00    +0.000 HD
ENDBRANCH   1  11
BRANCH   1  17
ATOM     17  N   UNL     1       4.071   4.498  18.312  0.00  0.00    +0.000 NA
ATOM     18  C   UNL     1       5.281   5.173  18.802  0.00  0.00    +0.000 C 
ATOM     19  C   UNL     1       5.611   6.182  17.718  0.00  0.00    +0.000 C 
ATOM     20  C   UNL     1       5.273   5.443  16.427  0.00  0.00    +0.000 C 
ATOM     21  C   UNL     1       4.010   4.642  16.835  0.00  0.00    +0.000 C 
BRANCH  20  22
ATOM     22  N   UNL     1       6.398   4.586  16.007  0.00  0.00    +0.000 N 
ATOM     23  H   UNL     1       6.424   3.683  16.482  0.00  0.00    +0.000 HD
BRANCH  22  24
ATOM     24  C   UNL     1       6.625   4.435  14.623  0.00  0.00    +0.000 A 
ATOM     25  C   UNL     1       5.848   3.602  13.805  0.00  0.00    +0.000 A 
ATOM     26  C   UNL     1       6.084   3.495  12.431  0.00  0.00    +0.000 A 
ATOM     27  C   UNL     1       7.095   4.240  11.838  0.00  0.00    +0.000 A 
ATOM     28  C   UNL     1       7.841   5.120  12.616  0.00  0.00    +0.000 A 
ATOM     29  C   UNL     1       7.591   5.232  13.991  0.00  0.00    +0.000 A 
ENDBRANCH  22  24
ENDBRANCH  20  22
ENDBRANCH   1  17
TORSDOF 4
ENDMDL
MODEL 4
REMARK VINA RESULT:      -8.3      0.732      1.221
REMARK  Name = 
REMARK  4 active torsions:
REMARK  status: ('A' for Active; 'I' for Inactive)
REMARK    1  A    between atoms: C_8  and  S_9
REMARK    2  A    between atoms: S_9  and  N_12
REMARK    3  A    between atoms: C_15  and  N_16
REMARK    4  A    between atoms: N_16  and  C_17
REMARK                            x       y       z     vdW  Elec       q    Type
REMARK                         _______ _______ _______ _____ _____    ______ ____
ROOT
ATOM      1  S   UNL     1       4.280   3.097  18.707  0.00  0.00    +0.000 S 
ATOM      2  O   UNL     1       3.479   2.091  18.048  0.00  0.00    +0.000 OA
ATOM      3  O   UNL     1       5.255   2.735  19.715  0.00  0.00    +0.000 OA
ENDROOT
BRANCH   1  11
ATOM      4  O   UNL     1       9.268   5.462  13.081  0.00  0.00    +0.000 OA
ATOM      5  C   UNL     1       8.092   5.185  13.352  0.00  0.00    +0.000 C 
ATOM      6  C   UNL     1       7.279   4.376  12.372  0.00  0.00    +0.000 C 
ATOM      7  C   UNL     1       6.159   3.496  12.883  0.00  0.00    +0.000 C 
ATOM      8  C   UNL     1       5.100   4.288  13.631  0.00  0.00    +0.000 C 
ATOM      9  C   UNL     1       5.527   4.474  15.060  0.00  0.00    +0.000 A 
ATOM     10  C   UNL     1       4.759   3.890  16.091  0.00  0.00    +0.000 A 
ATOM     11  C   UNL     1       5.159   3.992  17.432  0.00  0.00    +0.000 A 
ATOM     12  C   UNL     1       6.327   4.677  17.756  0.00  0.00    +0.000 A 
ATOM     13  C   UNL     1       7.057   5.301  16.747  0.00  0.00    +0.000 A 
ATOM     14  C   UNL     1       6.686   5.180  15.397  0.00  0.00    +0.000 A 
ATOM     15  N   UNL     1       7.583   5.751  14.479  0.00  0.00    +0.000 N 
ATOM     16  H   UNL     1       8.310   6.324  14.894  0.00  0.00    +0.000 HD
ENDBRANCH   1  11
BRANCH   1  17
ATOM     17  N   UNL     1       3.239   4.233  19.389  0.00  0.00    +0.000 NA
ATOM     18  C   UNL     1       1.913   4.426  18.787  0.00  0.00    +0.000 C 
ATOM     19  C   UNL     1       1.911   5.878  18.346  0.00  0.00    +0.000 C 
ATOM     20  C   UNL     1       2.670   6.591  19.461  0.00  0.00    +0.000 C 
ATOM     21  C   UNL     1       3.763   5.555  19.821  0.00  0.00    +0.000 C 
BRANCH  20  22
ATOM     22  N   UNL     1       1.768   6.906  20.586  0.00  0.00    +0.000 N 
ATOM     23  H   UNL     1       2.101   6.559  21.485  0.00  0.00    +0.000 HD
BRANCH  22  24
ATOM     24  C   UNL     1       1.300   8.232  20.699  0.00  0.00    +0.000 A 
ATOM     25  C   UNL     1       1.260   9.126  19.619  0.00  0.00    +0.000 A 
ATOM     26  C   UNL     1       0.765  10.426  19.760  0.00  0.00    +0.000 A 
ATOM     27  C   UNL     1       0.277  10.856  20.987  0.00  0.00    +0.000 A 
ATOM     28  C   UNL     1       0.249   9.970  22.060  0.00  0.00    +0.000 A 
ATOM     29  C   UNL     1       0.735   8.664  21.908  0.00  0.00    +0.000 A 
ENDBRANCH  22  24
ENDBRANCH  20  22
ENDBRANCH   1  17
TORSDOF 4
ENDMDL
MODEL 5
REMARK VINA RESULT:      -7.9      3.183      8.031
REMARK  Name = 
REMARK  4 active torsions:
REMARK  status: ('A' for Active; 'I' for Inactive)
REMARK    1  A    between atoms: C_8  and  S_9
REMARK    2  A    between atoms: S_9  and  N_12
REMARK    3  A    between atoms: C_15  and  N_16
REMARK    4  A    between atoms: N_16  and  C_17
REMARK                            x       y       z     vdW  Elec       q    Type
REMARK                         _______ _______ _______ _____ _____    ______ ____
ROOT
ATOM      1  S   UNL     1       1.815   4.879  20.365  0.00  0.00    +0.000 S 
ATOM      2  O   UNL     1       2.534   4.500  21.559  0.00  0.00    +0.000 OA
ATOM      3  O   UNL     1       0.489   4.362  20.093  0.00  0.00    +0.000 OA
ENDROOT
BRANCH   1  11
ATOM      4  O   UNL     1      -0.562  12.373  19.802  0.00  0.00    +0.000 OA
ATOM      5  C   UNL     1      -0.143  11.490  20.560  0.00  0.00    +0.000 C 
ATOM      6  C   UNL     1      -0.763  11.335  21.927  0.00  0.00    +0.000 C 
ATOM      7  C   UNL     1      -0.776   9.974  22.589  0.00  0.00    +0.000 C 
ATOM      8  C   UNL     1       0.624   9.416  22.785  0.00  0.00    +0.000 C 
ATOM      9  C   UNL     1       1.075   8.734  21.524  0.00  0.00    +0.000 A 
ATOM     10  C   UNL     1       1.320   7.344  21.540  0.00  0.00    +0.000 A 
ATOM     11  C   UNL     1       1.685   6.664  20.369  0.00  0.00    +0.000 A 
ATOM     12  C   UNL     1       1.810   7.363  19.172  0.00  0.00    +0.000 A 
ATOM     13  C   UNL     1       1.622   8.744  19.163  0.00  0.00    +0.000 A 
ATOM     14  C   UNL     1       1.225   9.432  20.321  0.00  0.00    +0.000 A 
ATOM     15  N   UNL     1       0.948  10.798  20.137  0.00  0.00    +0.000 N 
ATOM     16  H   UNL     1       1.220  11.168  19.233  0.00  0.00    +0.000 HD
ENDBRANCH   1  11
BRANCH   1  17
ATOM     17  N   UNL     1       2.783   4.523  19.033  0.00  0.00    +0.000 NA
ATOM     18  C   UNL     1       2.139   4.051  17.799  0.00  0.00    +0.000 C 
ATOM     19  C   UNL     1       2.722   2.667  17.579  0.00  0.00    +0.000 C 
ATOM     20  C   UNL     1       4.178   2.820  18.009  0.00  0.00    +0.000 C 
ATOM     21  C   UNL     1       4.058   3.782  19.218  0.00  0.00    +0.000 C 
BRANCH  20  22
ATOM     22  N   UNL     1       4.992   3.366  16.906  0.00  0.00    +0.000 N 
ATOM     23  H   UNL     1       4.493   3.419  16.018  0.00  0.00    +0.000 HD
BRANCH  22  24
ATOM     24  C   UNL     1       5.715   4.552  17.150  0.00  0.00    +0.000 A 
ATOM     25  C   UNL     1       6.958   4.573  17.799  0.00  0.00    +0.000 A 
ATOM     26  C   UNL     1       7.661   5.764  18.002  0.00  0.00    +0.000 A 
ATOM     27  C   UNL     1       7.142   6.966  17.538  0.00  0.00    +0.000 A 
ATOM     28  C   UNL     1       5.940   6.966  16.838  0.00  0.00    +0.000 A 
ATOM     29  C   UNL     1       5.247   5.766  16.626  0.00  0.00    +0.000 A 
ENDBRANCH  22  24
ENDBRANCH  20  22
ENDBRANCH   1  17
TORSDOF 4
ENDMDL
MODEL 6
REMARK VINA RESULT:      -7.7      5.417      8.144
REMARK  Name = 
REMARK  4 active torsions:
REMARK  status: ('A' for Active; 'I' for Inactive)
REMARK    1  A    between atoms: C_8  and  S_9
REMARK    2  A    between atoms: S_9  and  N_12
REMARK    3  A    between atoms: C_15  and  N_16
REMARK    4  A    between atoms: N_16  and  C_17
REMARK                            x       y       z     vdW  Elec       q    Type
REMARK                         _______ _______ _______ _____ _____    ______ ____
ROOT
ATOM      1  S   UNL     1       0.049  11.278  19.398  0.00  0.00    +0.000 S 
ATOM      2  O   UNL     1      -0.086  12.088  20.587  0.00  0.00    +0.000 OA
ATOM      3  O   UNL     1       0.781  11.759  18.244  0.00  0.00    +0.000 OA
ENDROOT
BRANCH   1  11
ATOM      4  O   UNL     1       1.733   3.735  20.944  0.00  0.00    +0.000 OA
ATOM      5  C   UNL     1       2.050   4.738  20.293  0.00  0.00    +0.000 C 
ATOM      6  C   UNL     1       2.433   4.587  18.842  0.00  0.00    +0.000 C 
ATOM      7  C   UNL     1       2.193   5.735  17.885  0.00  0.00    +0.000 C 
ATOM      8  C   UNL     1       2.932   6.996  18.302  0.00  0.00    +0.000 C 
ATOM      9  C   UNL     1       2.115   7.747  19.316  0.00  0.00    +0.000 A 
ATOM     10  C   UNL     1       1.625   9.031  18.993  0.00  0.00    +0.000 A 
ATOM     11  C   UNL     1       0.810   9.736  19.891  0.00  0.00    +0.000 A 
ATOM     12  C   UNL     1       0.477   9.167  21.117  0.00  0.00    +0.000 A 
ATOM     13  C   UNL     1       1.003   7.924  21.462  0.00  0.00    +0.000 A 
ATOM     14  C   UNL     1       1.794   7.193  20.559  0.00  0.00    +0.000 A 
ATOM     15  N   UNL     1       2.149   5.903  20.989  0.00  0.00    +0.000 N 
ATOM     16  H   UNL     1       1.935   5.704  21.960  0.00  0.00    +0.000 HD
ENDBRANCH   1  11
BRANCH   1  17
ATOM     17  N   UNL     1      -1.495  10.847  18.879  0.00  0.00    +0.000 NA
ATOM     18  C   UNL     1      -1.633   9.758  17.902  0.00  0.00    +0.000 C 
ATOM     19  C   UNL     1      -2.286  10.414  16.700  0.00  0.00    +0.000 C 
ATOM     20  C   UNL     1      -3.275  11.395  17.322  0.00  0.00    +0.000 C 
ATOM     21  C   UNL     1      -2.492  11.902  18.559  0.00  0.00    +0.000 C 
BRANCH  20  22
ATOM     22  N   UNL     1      -4.537  10.713  17.667  0.00  0.00    +0.000 N 
ATOM     23  H   UNL     1      -4.421   9.953  18.338  0.00  0.00    +0.000 HD
BRANCH  22  24
ATOM     24  C   UNL     1      -5.646  11.518  18.005  0.00  0.00    +0.000 A 
ATOM     25  C   UNL     1      -6.326  11.412  19.226  0.00  0.00    +0.000 A 
ATOM     26  C   UNL     1      -7.405  12.243  19.540  0.00  0.00    +0.000 A 
ATOM     27  C   UNL     1      -7.817  13.220  18.641  0.00  0.00    +0.000 A 
ATOM     28  C   UNL     1      -7.120  13.387  17.448  0.00  0.00    +0.000 A 
ATOM     29  C   UNL     1      -6.030  12.558  17.146  0.00  0.00    +0.000 A 
ENDBRANCH  22  24
ENDBRANCH  20  22
ENDBRANCH   1  17
TORSDOF 4
ENDMDL
MODEL 7
REMARK VINA RESULT:      -7.6      3.650      7.079
REMARK  Name = 
REMARK  4 active torsions:
REMARK  status: ('A' for Active; 'I' for Inactive)
REMARK    1  A    between atoms: C_8  and  S_9
REMARK    2  A    between atoms: S_9  and  N_12
REMARK    3  A    between atoms: C_15  and  N_16
REMARK    4  A    between atoms: N_16  and  C_17
REMARK                            x       y       z     vdW  Elec       q    Type
REMARK                         _______ _______ _______ _____ _____    ______ ____
ROOT
ATOM      1  S   UNL     1       6.327   5.144  15.556  0.00  0.00    +0.000 S 
ATOM      2  O   UNL     1       6.980   3.904  15.206  0.00  0.00    +0.000 OA
ATOM      3  O   UNL     1       5.898   6.078  14.535  0.00  0.00    +0.000 OA
ENDROOT
BRANCH   1  11
ATOM      4  O   UNL     1       1.220   3.246  21.253  0.00  0.00    +0.000 OA
ATOM      5  C   UNL     1       1.537   4.092  20.406  0.00  0.00    +0.000 C 
ATOM      6  C   UNL     1       1.488   5.555  20.770  0.00  0.00    +0.000 C 
ATOM      7  C   UNL     1       2.425   6.525  20.082  0.00  0.00    +0.000 C 
ATOM      8  C   UNL     1       2.229   6.542  18.575  0.00  0.00    +0.000 C 
ATOM      9  C   UNL     1       3.021   5.426  17.951  0.00  0.00    +0.000 A 
ATOM     10  C   UNL     1       4.081   5.738  17.073  0.00  0.00    +0.000 A 
ATOM     11  C   UNL     1       4.878   4.726  16.520  0.00  0.00    +0.000 A 
ATOM     12  C   UNL     1       4.625   3.394  16.837  0.00  0.00    +0.000 A 
ATOM     13  C   UNL     1       3.546   3.079  17.659  0.00  0.00    +0.000 A 
ATOM     14  C   UNL     1       2.760   4.084  18.246  0.00  0.00    +0.000 A 
ATOM     15  N   UNL     1       1.788   3.627  19.153  0.00  0.00    +0.000 N 
ATOM     16  H   UNL     1       1.654   2.621  19.162  0.00  0.00    +0.000 HD
ENDBRANCH   1  11
BRANCH   1  17
ATOM     17  N   UNL     1       7.326   5.980  16.625  0.00  0.00    +0.000 NA
ATOM     18  C   UNL     1       7.739   5.317  17.870  0.00  0.00    +0.000 C 
ATOM     19  C   UNL     1       7.177   6.200  18.968  0.00  0.00    +0.000 C 
ATOM     20  C   UNL     1       7.363   7.613  18.420  0.00  0.00    +0.000 C 
ATOM     21  C   UNL     1       7.070   7.415  16.912  0.00  0.00    +0.000 C 
BRANCH  20  22
ATOM     22  N   UNL     1       8.728   8.101  18.692  0.00  0.00    +0.000 N 
ATOM     23  H   UNL     1       9.441   7.670  18.103  0.00  0.00    +0.000 HD
BRANCH  22  24
ATOM     24  C   UNL     1       8.921   9.496  18.778  0.00  0.00    +0.000 A 
ATOM     25  C   UNL     1       8.598  10.380  17.739  0.00  0.00    +0.000 A 
ATOM     26  C   UNL     1       8.777  11.760  17.866  0.00  0.00    +0.000 A 
ATOM     27  C   UNL     1       9.265  12.293  19.052  0.00  0.00    +0.000 A 
ATOM     28  C   UNL     1       9.536  11.443  20.121  0.00  0.00    +0.000 A 
ATOM     29  C   UNL     1       9.342  10.061  19.991  0.00  0.00    +0.000 A 
ENDBRANCH  22  24
ENDBRANCH  20  22
ENDBRANCH   1  17
TORSDOF 4
ENDMDL
MODEL 8
REMARK VINA RESULT:      -7.6      3.795      6.284
REMARK  Name = 
REMARK  4 active torsions:
REMARK  status: ('A' for Active; 'I' for Inactive)
REMARK    1  A    between atoms: C_8  and  S_9
REMARK    2  A    between atoms: S_9  and  N_12
REMARK    3  A    between atoms: C_15  and  N_16
REMARK    4  A    between atoms: N_16  and  C_17
REMARK                            x       y       z     vdW  Elec       q    Type
REMARK                         _______ _______ _______ _____ _____    ______ ____
ROOT
ATOM      1  S   UNL     1       1.208   9.750  18.382  0.00  0.00    +0.000 S 
ATOM      2  O   UNL     1       2.207  10.748  18.079  0.00  0.00    +0.000 OA
ATOM      3  O   UNL     1       0.206   9.374  17.406  0.00  0.00    +0.000 OA
ENDROOT
BRANCH   1  11
ATOM      4  O   UNL     1       3.461   2.306  19.658  0.00  0.00    +0.000 OA
ATOM      5  C   UNL     1       3.720   3.363  19.070  0.00  0.00    +0.000 C 
ATOM      6  C   UNL     1       4.178   3.317  17.634  0.00  0.00    +0.000 C 
ATOM      7  C   UNL     1       3.884   4.488  16.720  0.00  0.00    +0.000 C 
ATOM      8  C   UNL     1       4.494   5.783  17.230  0.00  0.00    +0.000 C 
ATOM      9  C   UNL     1       3.570   6.412  18.237  0.00  0.00    +0.000 A 
ATOM     10  C   UNL     1       2.987   7.665  17.950  0.00  0.00    +0.000 A 
ATOM     11  C   UNL     1       2.076   8.254  18.839  0.00  0.00    +0.000 A 
ATOM     12  C   UNL     1       1.739   7.599  20.020  0.00  0.00    +0.000 A 
ATOM     13  C   UNL     1       2.353   6.389  20.332  0.00  0.00    +0.000 A 
ATOM     14  C   UNL     1       3.243   5.772  19.437  0.00  0.00    +0.000 A 
ATOM     15  N   UNL     1       3.688   4.496  19.823  0.00  0.00    +0.000 N 
ATOM     16  H   UNL     1       3.448   4.232  20.772  0.00  0.00    +0.000 HD
ENDBRANCH   1  11
BRANCH   1  17
ATOM     17  N   UNL     1       0.401  10.224  19.783  0.00  0.00    +0.000 NA
ATOM     18  C   UNL     1      -1.033  10.534  19.701  0.00  0.00    +0.000 C 
ATOM     19  C   UNL     1      -1.125  11.989  20.120  0.00  0.00    +0.000 C 
ATOM     20  C   UNL     1      -0.090  12.106  21.235  0.00  0.00    +0.000 C 
ATOM     21  C   UNL     1       1.042  11.180  20.722  0.00  0.00    +0.000 C 
BRANCH  20  22
ATOM     22  N   UNL     1      -0.661  11.673  22.524  0.00  0.00    +0.000 N 
ATOM     23  H   UNL     1       0.041  11.387  23.207  0.00  0.00    +0.000 HD
BRANCH  22  24
ATOM     24  C   UNL     1      -1.636  12.501  23.120  0.00  0.00    +0.000 A 
ATOM     25  C   UNL     1      -2.905  12.041  23.499  0.00  0.00    +0.000 A 
ATOM     26  C   UNL     1      -3.838  12.881  24.111  0.00  0.00    +0.000 A 
ATOM     27  C   UNL     1      -3.513  14.205  24.380  0.00  0.00    +0.000 A 
ATOM     28  C   UNL     1      -2.238  14.671  24.070  0.00  0.00    +0.000 A 
ATOM     29  C   UNL     1      -1.303  13.819  23.468  0.00  0.00    +0.000 A 
ENDBRANCH  22  24
ENDBRANCH  20  22
ENDBRANCH   1  17
TORSDOF 4
ENDMDL
MODEL 9
REMARK VINA RESULT:      -7.5      3.109      8.365
REMARK  Name = 
REMARK  4 active torsions:
REMARK  status: ('A' for Active; 'I' for Inactive)
REMARK    1  A    between atoms: C_8  and  S_9
REMARK    2  A    between atoms: S_9  and  N_12
REMARK    3  A    between atoms: C_15  and  N_16
REMARK    4  A    between atoms: N_16  and  C_17
REMARK                            x       y       z     vdW  Elec       q    Type
REMARK                         _______ _______ _______ _____ _____    ______ ____
ROOT
ATOM      1  S   UNL     1       6.674   6.667  17.620  0.00  0.00    +0.000 S 
ATOM      2  O   UNL     1       6.403   8.083  17.532  0.00  0.00    +0.000 OA
ATOM      3  O   UNL     1       7.878   6.173  18.257  0.00  0.00    +0.000 OA
ENDROOT
BRANCH   1  11
ATOM      4  O   UNL     1      -0.041   3.026  19.562  0.00  0.00    +0.000 OA
ATOM      5  C   UNL     1       1.194   2.992  19.628  0.00  0.00    +0.000 C 
ATOM      6  C   UNL     1       1.909   1.681  19.410  0.00  0.00    +0.000 C 
ATOM      7  C   UNL     1       3.315   1.685  18.847  0.00  0.00    +0.000 C 
ATOM      8  C   UNL     1       4.283   2.459  19.726  0.00  0.00    +0.000 C 
ATOM      9  C   UNL     1       4.208   3.923  19.390  0.00  0.00    +0.000 A 
ATOM     10  C   UNL     1       5.342   4.566  18.849  0.00  0.00    +0.000 A 
ATOM     11  C   UNL     1       5.290   5.915  18.470  0.00  0.00    +0.000 A 
ATOM     12  C   UNL     1       4.108   6.634  18.626  0.00  0.00    +0.000 A 
ATOM     13  C   UNL     1       3.004   6.018  19.210  0.00  0.00    +0.000 A 
ATOM     14  C   UNL     1       3.032   4.659  19.565  0.00  0.00    +0.000 A 
ATOM     15  N   UNL     1       1.809   4.138  20.023  0.00  0.00    +0.000 N 
ATOM     16  H   UNL     1       1.091   4.832  20.200  0.00  0.00    +0.000 HD
ENDBRANCH   1  11
BRANCH   1  17
ATOM     17  N   UNL     1       6.621   6.025  16.063  0.00  0.00    +0.000 NA
ATOM     18  C   UNL     1       5.319   5.916  15.388  0.00  0.00    +0.000 C 
ATOM     19  C   UNL     1       5.151   4.428  15.140  0.00  0.00    +0.000 C 
ATOM     20  C   UNL     1       6.560   3.964  14.782  0.00  0.00    +0.000 C 
ATOM     21  C   UNL     1       7.434   4.828  15.725  0.00  0.00    +0.000 C 
BRANCH  20  22
ATOM     22  N   UNL     1       6.836   4.197  13.351  0.00  0.00    +0.000 N 
ATOM     23  H   UNL     1       7.831   4.215  13.125  0.00  0.00    +0.000 HD
BRANCH  22  24
ATOM     24  C   UNL     1       6.120   3.425  12.412  0.00  0.00    +0.000 A 
ATOM     25  C   UNL     1       6.594   2.211  11.896  0.00  0.00    +0.000 A 
ATOM     26  C   UNL     1       5.848   1.458  10.985  0.00  0.00    +0.000 A 
ATOM     27  C   UNL     1       4.592   1.896  10.584  0.00  0.00    +0.000 A 
ATOM     28  C   UNL     1       4.072   3.067  11.128  0.00  0.00    +0.000 A 
ATOM     29  C   UNL     1       4.821   3.810  12.050  0.00  0.00    +0.000 A 
ENDBRANCH  22  24
ENDBRANCH  20  22
ENDBRANCH   1  17
TORSDOF 4
ENDMDL
