MODEL 1
REMARK VINA RESULT:      -8.4      0.000      0.000
REMARK  Name = 
REMARK  3 active torsions:
REMARK  status: ('A' for Active; 'I' for Inactive)
REMARK    1  A    between atoms: C_2  and  C_3
REMARK    2  A    between atoms: C_6  and  C_7
REMARK    3  A    between atoms: C_25  and  C_26
REMARK                            x       y       z     vdW  Elec       q    Type
REMARK                         _______ _______ _______ _____ _____    ______ ____
ROOT
ATOM      1  O   UNL     1       1.007  11.664  20.231  0.00  0.00    +0.000 OA
ATOM      2  C   UNL     1       0.591  10.723  19.549  0.00  0.00    +0.000 C 
ATOM      3  N   UNL     1      -0.435  10.910  18.620  0.00  0.00    +0.000 N 
ATOM      4  C   UNL     1      -0.867  12.265  18.289  0.00  0.00    +0.000 C 
ATOM      5  C   UNL     1      -2.310  12.496  18.728  0.00  0.00    +0.000 C 
ATOM      6  N   UNL     1      -3.149  11.387  18.319  0.00  0.00    +0.000 N 
ATOM      7  C   UNL     1      -2.652  10.156  17.976  0.00  0.00    +0.000 A 
ATOM      8  N   UNL     1      -3.653   9.361  17.675  0.00  0.00    +0.000 NA
ATOM      9  N   UNL     1      -4.817  10.069  17.846  0.00  0.00    +0.000 NA
ATOM     10  C   UNL     1      -4.514  11.292  18.249  0.00  0.00    +0.000 A 
ATOM     11  C   UNL     1      -1.200   9.820  17.996  0.00  0.00    +0.000 C 
ENDROOT
BRANCH   2  12
ATOM     12  C   UNL     1       1.168   9.380  19.698  0.00  0.00    +0.000 A 
ATOM     13  C   UNL     1       1.025   8.613  20.837  0.00  0.00    +0.000 A 
ATOM     14  S   UNL     1       1.837   7.121  20.659  0.00  0.00    +0.000 S 
ATOM     15  C   UNL     1       2.316   7.558  19.053  0.00  0.00    +0.000 A 
ATOM     16  N   UNL     1       1.944   8.775  18.710  0.00  0.00    +0.000 NA
BRANCH  15  17
ATOM     17  C   UNL     1       3.070   6.616  18.185  0.00  0.00    +0.000 A 
ATOM     18  C   UNL     1       4.166   7.105  17.441  0.00  0.00    +0.000 A 
ATOM     19  C   UNL     1       4.902   6.283  16.597  0.00  0.00    +0.000 A 
ATOM     20  C   UNL     1       4.571   4.941  16.485  0.00  0.00    +0.000 A 
ATOM     21  C   UNL     1       3.516   4.396  17.228  0.00  0.00    +0.000 A 
ATOM     22  C   UNL     1       3.236   3.024  17.097  0.00  0.00    +0.000 A 
ATOM     23  C   UNL     1       2.213   2.426  17.826  0.00  0.00    +0.000 A 
ATOM     24  C   UNL     1       1.451   3.196  18.690  0.00  0.00    +0.000 A 
ATOM     25  C   UNL     1       1.708   4.566  18.814  0.00  0.00    +0.000 A 
ATOM     26  C   UNL     1       2.748   5.218  18.099  0.00  0.00    +0.000 A 
ENDBRANCH  15  17
ENDBRANCH   2  12
BRANCH  10  27
ATOM     27  C   UNL     1      -5.470  12.376  18.579  0.00  0.00    +0.000 C 
ATOM     28  F   UNL     1      -5.688  13.220  17.532  0.00  0.00    +0.000 F 
ATOM     29  F   UNL     1      -6.688  11.893  18.932  0.00  0.00    +0.000 F 
ATOM     30  F   UNL     1      -5.035  13.154  19.602  0.00  0.00    +0.000 F 
ENDBRANCH  10  27
TORSDOF 3
ENDMDL
MODEL 2
REMARK VINA RESULT:      -8.3      3.416      4.643
REMARK  Name = 
REMARK  3 active torsions:
REMARK  status: ('A' for Active; 'I' for Inactive)
REMARK    1  A    between atoms: C_2  and  C_3
REMARK    2  A    between atoms: C_6  and  C_7
REMARK    3  A    between atoms: C_25  and  C_26
REMARK                            x       y       z     vdW  Elec       q    Type
REMARK                         _______ _______ _______ _____ _____    ______ ____
ROOT
ATOM      1  O   UNL     1      -0.609  10.598  17.840  0.00  0.00    +0.000 OA
ATOM      2  C   UNL     1       0.122  10.590  18.834  0.00  0.00    +0.000 C 
ATOM      3  N   UNL     1       0.238  11.719  19.647  0.00  0.00    +0.000 N 
ATOM      4  C   UNL     1      -0.679  12.840  19.457  0.00  0.00    +0.000 C 
ATOM      5  C   UNL     1       0.076  14.084  18.995  0.00  0.00    +0.000 C 
ATOM      6  N   UNL     1       1.257  14.292  19.809  0.00  0.00    +0.000 N 
ATOM      7  C   UNL     1       1.823  13.307  20.577  0.00  0.00    +0.000 A 
ATOM      8  N   UNL     1       2.886  13.793  21.176  0.00  0.00    +0.000 NA
ATOM      9  N   UNL     1       3.032  15.099  20.779  0.00  0.00    +0.000 NA
ATOM     10  C   UNL     1       2.055  15.398  19.940  0.00  0.00    +0.000 A 
ATOM     11  C   UNL     1       1.294  11.915  20.651  0.00  0.00    +0.000 C 
ENDROOT
BRANCH   2  12
ATOM     12  C   UNL     1       0.892   9.389  19.186  0.00  0.00    +0.000 A 
ATOM     13  C   UNL     1       0.905   8.837  20.452  0.00  0.00    +0.000 A 
ATOM     14  S   UNL     1       1.915   7.461  20.494  0.00  0.00    +0.000 S 
ATOM     15  C   UNL     1       2.266   7.649  18.808  0.00  0.00    +0.000 A 
ATOM     16  N   UNL     1       1.709   8.719  18.276  0.00  0.00    +0.000 NA
BRANCH  15  17
ATOM     17  C   UNL     1       3.113   6.671  18.078  0.00  0.00    +0.000 A 
ATOM     18  C   UNL     1       4.289   7.130  17.445  0.00  0.00    +0.000 A 
ATOM     19  C   UNL     1       5.117   6.271  16.731  0.00  0.00    +0.000 A 
ATOM     20  C   UNL     1       4.799   4.924  16.643  0.00  0.00    +0.000 A 
ATOM     21  C   UNL     1       3.663   4.411  17.283  0.00  0.00    +0.000 A 
ATOM     22  C   UNL     1       3.399   3.034  17.184  0.00  0.00    +0.000 A 
ATOM     23  C   UNL     1       2.297   2.466  17.817  0.00  0.00    +0.000 A 
ATOM     24  C   UNL     1       1.441   3.272  18.549  0.00  0.00    +0.000 A 
ATOM     25  C   UNL     1       1.683   4.647  18.640  0.00  0.00    +0.000 A 
ATOM     26  C   UNL     1       2.801   5.270  18.020  0.00  0.00    +0.000 A 
ENDBRANCH  15  17
ENDBRANCH   2  12
BRANCH  10  27
ATOM     27  C   UNL     1       1.848  16.694  19.249  0.00  0.00    +0.000 C 
ATOM     28  F   UNL     1       1.890  16.578  17.894  0.00  0.00    +0.000 F 
ATOM     29  F   UNL     1       0.642  17.243  19.544  0.00  0.00    +0.000 F 
ATOM     30  F   UNL     1       2.795  17.609  19.576  0.00  0.00    +0.000 F 
ENDBRANCH  10  27
TORSDOF 3
ENDMDL
MODEL 3
REMARK VINA RESULT:      -8.2      3.229      3.699
REMARK  Name = 
REMARK  3 active torsions:
REMARK  status: ('A' for Active; 'I' for Inactive)
REMARK    1  A    between atoms: C_2  and  C_3
REMARK    2  A    between atoms: C_6  and  C_7
REMARK    3  A    between atoms: C_25  and  C_26
REMARK                            x       y       z     vdW  Elec       q    Type
REMARK                         _______ _______ _______ _____ _____    ______ ____
ROOT
ATOM      1  O   UNL     1      -0.506   7.941  21.665  0.00  0.00    +0.000 OA
ATOM      2  C   UNL     1       0.166   8.880  21.230  0.00  0.00    +0.000 C 
ATOM      3  N   UNL     1       0.190  10.110  21.888  0.00  0.00    +0.000 N 
ATOM      4  C   UNL     1      -0.399  10.225  23.220  0.00  0.00    +0.000 C 
ATOM      5  C   UNL     1      -1.601  11.165  23.200  0.00  0.00    +0.000 C 
ATOM      6  N   UNL     1      -1.282  12.383  22.483  0.00  0.00    +0.000 N 
ATOM      7  C   UNL     1      -0.228  12.487  21.611  0.00  0.00    +0.000 A 
ATOM      8  N   UNL     1      -0.212  13.698  21.105  0.00  0.00    +0.000 NA
ATOM      9  N   UNL     1      -1.278  14.387  21.630  0.00  0.00    +0.000 NA
ATOM     10  C   UNL     1      -1.935  13.587  22.454  0.00  0.00    +0.000 A 
ATOM     11  C   UNL     1       0.695  11.359  21.299  0.00  0.00    +0.000 C 
ENDROOT
BRANCH   2  12
ATOM     12  C   UNL     1       0.960   8.724  20.003  0.00  0.00    +0.000 A 
ATOM     13  C   UNL     1       1.024   9.683  19.011  0.00  0.00    +0.000 A 
ATOM     14  S   UNL     1       2.027   9.156  17.733  0.00  0.00    +0.000 S 
ATOM     15  C   UNL     1       2.352   7.680  18.579  0.00  0.00    +0.000 A 
ATOM     16  N   UNL     1       1.691   7.572  19.714  0.00  0.00    +0.000 NA
BRANCH  15  17
ATOM     17  C   UNL     1       3.295   6.667  18.038  0.00  0.00    +0.000 A 
ATOM     18  C   UNL     1       4.570   7.089  17.600  0.00  0.00    +0.000 A 
ATOM     19  C   UNL     1       5.493   6.197  17.068  0.00  0.00    +0.000 A 
ATOM     20  C   UNL     1       5.172   4.852  16.972  0.00  0.00    +0.000 A 
ATOM     21  C   UNL     1       3.935   4.373  17.425  0.00  0.00    +0.000 A 
ATOM     22  C   UNL     1       3.667   2.997  17.327  0.00  0.00    +0.000 A 
ATOM     23  C   UNL     1       2.464   2.464  17.780  0.00  0.00    +0.000 A 
ATOM     24  C   UNL     1       1.509   3.305  18.328  0.00  0.00    +0.000 A 
ATOM     25  C   UNL     1       1.756   4.680  18.413  0.00  0.00    +0.000 A 
ATOM     26  C   UNL     1       2.973   5.268  17.973  0.00  0.00    +0.000 A 
ENDBRANCH  15  17
ENDBRANCH   2  12
BRANCH  10  27
ATOM     27  C   UNL     1      -3.165  13.917  23.213  0.00  0.00    +0.000 C 
ATOM     28  F   UNL     1      -3.583  15.196  23.002  0.00  0.00    +0.000 F 
ATOM     29  F   UNL     1      -4.207  13.118  22.869  0.00  0.00    +0.000 F 
ATOM     30  F   UNL     1      -2.992  13.796  24.553  0.00  0.00    +0.000 F 
ENDBRANCH  10  27
TORSDOF 3
ENDMDL
MODEL 4
REMARK VINA RESULT:      -8.2      5.337      9.246
REMARK  Name = 
REMARK  3 active torsions:
REMARK  status: ('A' for Active; 'I' for Inactive)
REMARK    1  A    between atoms: C_2  and  C_3
REMARK    2  A    between atoms: C_6  and  C_7
REMARK    3  A    between atoms: C_25  and  C_26
REMARK                            x       y       z     vdW  Elec       q    Type
REMARK                         _______ _______ _______ _____ _____    ______ ____
ROOT
ATOM      1  O   UNL     1       1.736   7.794  21.524  0.00  0.00    +0.000 OA
ATOM      2  C   UNL     1       1.689   8.102  20.330  0.00  0.00    +0.000 C 
ATOM      3  N   UNL     1       2.192   7.247  19.348  0.00  0.00    +0.000 N 
ATOM      4  C   UNL     1       2.573   5.883  19.709  0.00  0.00    +0.000 C 
ATOM      5  C   UNL     1       4.074   5.674  19.524  0.00  0.00    +0.000 C 
ATOM      6  N   UNL     1       4.505   6.193  18.242  0.00  0.00    +0.000 N 
ATOM      7  C   UNL     1       3.773   7.093  17.511  0.00  0.00    +0.000 A 
ATOM      8  N   UNL     1       4.433   7.387  16.414  0.00  0.00    +0.000 NA
ATOM      9  N   UNL     1       5.617   6.693  16.437  0.00  0.00    +0.000 NA
ATOM     10  C   UNL     1       5.668   5.980  17.550  0.00  0.00    +0.000 A 
ATOM     11  C   UNL     1       2.463   7.644  17.959  0.00  0.00    +0.000 C 
ENDROOT
BRANCH   2  12
ATOM     12  C   UNL     1       1.098   9.381  19.912  0.00  0.00    +0.000 A 
ATOM     13  C   UNL     1       1.846  10.502  19.610  0.00  0.00    +0.000 A 
ATOM     14  S   UNL     1       0.827  11.802  19.179  0.00  0.00    +0.000 S 
ATOM     15  C   UNL     1      -0.568  10.797  19.388  0.00  0.00    +0.000 A 
ATOM     16  N   UNL     1      -0.278   9.586  19.820  0.00  0.00    +0.000 NA
BRANCH  15  17
ATOM     17  C   UNL     1      -1.936  11.296  19.092  0.00  0.00    +0.000 A 
ATOM     18  C   UNL     1      -2.586  12.106  20.049  0.00  0.00    +0.000 A 
ATOM     19  C   UNL     1      -3.872  12.592  19.844  0.00  0.00    +0.000 A 
ATOM     20  C   UNL     1      -4.539  12.293  18.665  0.00  0.00    +0.000 A 
ATOM     21  C   UNL     1      -3.926  11.525  17.666  0.00  0.00    +0.000 A 
ATOM     22  C   UNL     1      -4.635  11.271  16.480  0.00  0.00    +0.000 A 
ATOM     23  C   UNL     1      -4.067  10.531  15.447  0.00  0.00    +0.000 A 
ATOM     24  C   UNL     1      -2.785  10.028  15.593  0.00  0.00    +0.000 A 
ATOM     25  C   UNL     1      -2.076  10.258  16.777  0.00  0.00    +0.000 A 
ATOM     26  C   UNL     1      -2.610  11.016  17.854  0.00  0.00    +0.000 A 
ENDBRANCH  15  17
ENDBRANCH   2  12
BRANCH  10  27
ATOM     27  C   UNL     1       6.783   5.107  17.989  0.00  0.00    +0.000 C 
ATOM     28  F   UNL     1       7.656   4.824  16.983  0.00  0.00    +0.000 F 
ATOM     29  F   UNL     1       7.520   5.677  18.977  0.00  0.00    +0.000 F 
ATOM     30  F   UNL     1       6.348   3.909  18.455  0.00  0.00    +0.000 F 
ENDBRANCH  10  27
TORSDOF 3
ENDMDL
MODEL 5
REMARK VINA RESULT:      -8.2      4.928      8.846
REMARK  Name = 
REMARK  3 active torsions:
REMARK  status: ('A' for Active; 'I' for Inactive)
REMARK    1  A    between atoms: C_2  and  C_3
REMARK    2  A    between atoms: C_6  and  C_7
REMARK    3  A    between atoms: C_25  and  C_26
REMARK                            x       y       z     vdW  Elec       q    Type
REMARK                         _______ _______ _______ _____ _____    ______ ____
ROOT
ATOM      1  O   UNL     1       2.502   8.835  17.140  0.00  0.00    +0.000 OA
ATOM      2  C   UNL     1       2.177   8.567  18.301  0.00  0.00    +0.000 C 
ATOM      3  N   UNL     1       2.690   7.441  18.947  0.00  0.00    +0.000 N 
ATOM      4  C   UNL     1       3.788   6.698  18.334  0.00  0.00    +0.000 C 
ATOM      5  C   UNL     1       3.342   5.287  17.956  0.00  0.00    +0.000 C 
ATOM      6  N   UNL     1       2.623   4.672  19.053  0.00  0.00    +0.000 N 
ATOM      7  C   UNL     1       2.071   5.386  20.085  0.00  0.00    +0.000 A 
ATOM      8  N   UNL     1       1.470   4.555  20.905  0.00  0.00    +0.000 NA
ATOM      9  N   UNL     1       1.607   3.288  20.394  0.00  0.00    +0.000 NA
ATOM     10  C   UNL     1       2.293   3.359  19.265  0.00  0.00    +0.000 A 
ATOM     11  C   UNL     1       2.141   6.872  20.187  0.00  0.00    +0.000 C 
ENDROOT
BRANCH   2  12
ATOM     12  C   UNL     1       1.240   9.431  19.032  0.00  0.00    +0.000 A 
ATOM     13  C   UNL     1       1.512   9.968  20.275  0.00  0.00    +0.000 A 
ATOM     14  S   UNL     1       0.193  10.905  20.822  0.00  0.00    +0.000 S 
ATOM     15  C   UNL     1      -0.670  10.573  19.358  0.00  0.00    +0.000 A 
ATOM     16  N   UNL     1      -0.027   9.755  18.548  0.00  0.00    +0.000 NA
BRANCH  15  17
ATOM     17  C   UNL     1      -1.999  11.178  19.085  0.00  0.00    +0.000 A 
ATOM     18  C   UNL     1      -2.589  11.996  20.074  0.00  0.00    +0.000 A 
ATOM     19  C   UNL     1      -3.838  12.579  19.891  0.00  0.00    +0.000 A 
ATOM     20  C   UNL     1      -4.526  12.371  18.705  0.00  0.00    +0.000 A 
ATOM     21  C   UNL     1      -3.970  11.598  17.677  0.00  0.00    +0.000 A 
ATOM     22  C   UNL     1      -4.698  11.439  16.485  0.00  0.00    +0.000 A 
ATOM     23  C   UNL     1      -4.185  10.698  15.424  0.00  0.00    +0.000 A 
ATOM     24  C   UNL     1      -2.941  10.101  15.546  0.00  0.00    +0.000 A 
ATOM     25  C   UNL     1      -2.216  10.237  16.735  0.00  0.00    +0.000 A 
ATOM     26  C   UNL     1      -2.694  10.991  17.841  0.00  0.00    +0.000 A 
ENDBRANCH  15  17
ENDBRANCH   2  12
BRANCH  10  27
ATOM     27  C   UNL     1       2.645   2.228  18.373  0.00  0.00    +0.000 C 
ATOM     28  F   UNL     1       2.285   2.450  17.079  0.00  0.00    +0.000 F 
ATOM     29  F   UNL     1       3.981   1.988  18.356  0.00  0.00    +0.000 F 
ATOM     30  F   UNL     1       2.035   1.073  18.739  0.00  0.00    +0.000 F 
ENDBRANCH  10  27
TORSDOF 3
ENDMDL
MODEL 6
REMARK VINA RESULT:      -8.1      0.764      1.039
REMARK  Name = 
REMARK  3 active torsions:
REMARK  status: ('A' for Active; 'I' for Inactive)
REMARK    1  A    between atoms: C_2  and  C_3
REMARK    2  A    between atoms: C_6  and  C_7
REMARK    3  A    between atoms: C_25  and  C_26
REMARK                            x       y       z     vdW  Elec       q    Type
REMARK                         _______ _______ _______ _____ _____    ______ ____
ROOT
ATOM      1  O   UNL     1       0.285  11.073  21.316  0.00  0.00    +0.000 OA
ATOM      2  C   UNL     1       0.283  10.378  20.296  0.00  0.00    +0.000 C 
ATOM      3  N   UNL     1      -0.373  10.804  19.140  0.00  0.00    +0.000 N 
ATOM      4  C   UNL     1      -0.869  12.175  19.058  0.00  0.00    +0.000 C 
ATOM      5  C   UNL     1      -2.392  12.195  18.965  0.00  0.00    +0.000 C 
ATOM      6  N   UNL     1      -2.853  11.237  17.980  0.00  0.00    +0.000 N 
ATOM      7  C   UNL     1      -2.083  10.198  17.524  0.00  0.00    +0.000 A 
ATOM      8  N   UNL     1      -2.781   9.497  16.661  0.00  0.00    +0.000 NA
ATOM      9  N   UNL     1      -4.027  10.066  16.568  0.00  0.00    +0.000 NA
ATOM     10  C   UNL     1      -4.077  11.112  17.377  0.00  0.00    +0.000 A 
ATOM     11  C   UNL     1      -0.694   9.935  17.998  0.00  0.00    +0.000 C 
ENDROOT
BRANCH   2  12
ATOM     12  C   UNL     1       0.975   9.082  20.275  0.00  0.00    +0.000 A 
ATOM     13  C   UNL     1       0.936   8.181  21.321  0.00  0.00    +0.000 A 
ATOM     14  S   UNL     1       1.862   6.795  20.951  0.00  0.00    +0.000 S 
ATOM     15  C   UNL     1       2.248   7.450  19.395  0.00  0.00    +0.000 A 
ATOM     16  N   UNL     1       1.764   8.662  19.204  0.00  0.00    +0.000 NA
BRANCH  15  17
ATOM     17  C   UNL     1       3.046   6.682  18.405  0.00  0.00    +0.000 A 
ATOM     18  C   UNL     1       4.080   7.342  17.704  0.00  0.00    +0.000 A 
ATOM     19  C   UNL     1       4.852   6.687  16.753  0.00  0.00    +0.000 A 
ATOM     20  C   UNL     1       4.623   5.345  16.487  0.00  0.00    +0.000 A 
ATOM     21  C   UNL     1       3.635   4.633  17.179  0.00  0.00    +0.000 A 
ATOM     22  C   UNL     1       3.459   3.269  16.890  0.00  0.00    +0.000 A 
ATOM     23  C   UNL     1       2.506   2.508  17.562  0.00  0.00    +0.000 A 
ATOM     24  C   UNL     1       1.712   3.107  18.526  0.00  0.00    +0.000 A 
ATOM     25  C   UNL     1       1.866   4.469  18.810  0.00  0.00    +0.000 A 
ATOM     26  C   UNL     1       2.831   5.282  18.158  0.00  0.00    +0.000 A 
ENDBRANCH  15  17
ENDBRANCH   2  12
BRANCH  10  27
ATOM     27  C   UNL     1      -5.244  11.996  17.607  0.00  0.00    +0.000 C 
ATOM     28  F   UNL     1      -5.115  12.754  18.730  0.00  0.00    +0.000 F 
ATOM     29  F   UNL     1      -5.433  12.868  16.584  0.00  0.00    +0.000 F 
ATOM     30  F   UNL     1      -6.399  11.298  17.756  0.00  0.00    +0.000 F 
ENDBRANCH  10  27
TORSDOF 3
ENDMDL
MODEL 7
REMARK VINA RESULT:      -8.1      1.666      2.601
REMARK  Name = 
REMARK  3 active torsions:
REMARK  status: ('A' for Active; 'I' for Inactive)
REMARK    1  A    between atoms: C_2  and  C_3
REMARK    2  A    between atoms: C_6  and  C_7
REMARK    3  A    between atoms: C_25  and  C_26
REMARK                            x       y       z     vdW  Elec       q    Type
REMARK                         _______ _______ _______ _____ _____    ______ ____
ROOT
ATOM      1  O   UNL     1       0.584  11.373  21.630  0.00  0.00    +0.000 OA
ATOM      2  C   UNL     1       0.282  11.165  20.452  0.00  0.00    +0.000 C 
ATOM      3  N   UNL     1      -0.720  11.908  19.826  0.00  0.00    +0.000 N 
ATOM      4  C   UNL     1      -1.262  13.089  20.492  0.00  0.00    +0.000 C 
ATOM      5  C   UNL     1      -2.737  12.889  20.833  0.00  0.00    +0.000 C 
ATOM      6  N   UNL     1      -3.453  12.353  19.694  0.00  0.00    +0.000 N 
ATOM      7  C   UNL     1      -2.833  11.735  18.639  0.00  0.00    +0.000 A 
ATOM      8  N   UNL     1      -3.744  11.340  17.781  0.00  0.00    +0.000 NA
ATOM      9  N   UNL     1      -4.974  11.679  18.288  0.00  0.00    +0.000 NA
ATOM     10  C   UNL     1      -4.800  12.280  19.453  0.00  0.00    +0.000 A 
ATOM     11  C   UNL     1      -1.357  11.538  18.553  0.00  0.00    +0.000 C 
ENDROOT
BRANCH   2  12
ATOM     12  C   UNL     1       0.974  10.125  19.677  0.00  0.00    +0.000 A 
ATOM     13  C   UNL     1       1.459  10.325  18.399  0.00  0.00    +0.000 A 
ATOM     14  S   UNL     1       2.188   8.898  17.807  0.00  0.00    +0.000 S 
ATOM     15  C   UNL     1       1.846   8.088  19.299  0.00  0.00    +0.000 A 
ATOM     16  N   UNL     1       1.169   8.829  20.153  0.00  0.00    +0.000 NA
BRANCH  15  17
ATOM     17  C   UNL     1       2.299   6.694  19.547  0.00  0.00    +0.000 A 
ATOM     18  C   UNL     1       1.712   5.966  20.605  0.00  0.00    +0.000 A 
ATOM     19  C   UNL     1       2.101   4.665  20.901  0.00  0.00    +0.000 A 
ATOM     20  C   UNL     1       3.079   4.049  20.135  0.00  0.00    +0.000 A 
ATOM     21  C   UNL     1       3.668   4.713  19.051  0.00  0.00    +0.000 A 
ATOM     22  C   UNL     1       4.638   4.035  18.291  0.00  0.00    +0.000 A 
ATOM     23  C   UNL     1       5.240   4.639  17.192  0.00  0.00    +0.000 A 
ATOM     24  C   UNL     1       4.886   5.932  16.844  0.00  0.00    +0.000 A 
ATOM     25  C   UNL     1       3.936   6.624  17.605  0.00  0.00    +0.000 A 
ATOM     26  C   UNL     1       3.286   6.045  18.729  0.00  0.00    +0.000 A 
ENDBRANCH  15  17
ENDBRANCH   2  12
BRANCH  10  27
ATOM     27  C   UNL     1      -5.864  12.785  20.355  0.00  0.00    +0.000 C 
ATOM     28  F   UNL     1      -7.115  12.552  19.871  0.00  0.00    +0.000 F 
ATOM     29  F   UNL     1      -5.817  12.198  21.578  0.00  0.00    +0.000 F 
ATOM     30  F   UNL     1      -5.781  14.125  20.551  0.00  0.00    +0.000 F 
ENDBRANCH  10  27
TORSDOF 3
ENDMDL
MODEL 8
REMARK VINA RESULT:      -8.0      4.973      8.950
REMARK  Name = 
REMARK  3 active torsions:
REMARK  status: ('A' for Active; 'I' for Inactive)
REMARK    1  A    between atoms: C_2  and  C_3
REMARK    2  A    between atoms: C_6  and  C_7
REMARK    3  A    between atoms: C_25  and  C_26
REMARK                            x       y       z     vdW  Elec       q    Type
REMARK                         _______ _______ _______ _____ _____    ______ ____
ROOT
ATOM      1  O   UNL     1       3.258   8.340  16.581  0.00  0.00    +0.000 OA
ATOM      2  C   UNL     1       2.691   8.303  17.676  0.00  0.00    +0.000 C 
ATOM      3  N   UNL     1       2.943   7.270  18.580  0.00  0.00    +0.000 N 
ATOM      4  C   UNL     1       4.049   6.350  18.329  0.00  0.00    +0.000 C 
ATOM      5  C   UNL     1       3.531   4.934  18.090  0.00  0.00    +0.000 C 
ATOM      6  N   UNL     1       2.552   4.575  19.096  0.00  0.00    +0.000 N 
ATOM      7  C   UNL     1       1.895   5.498  19.869  0.00  0.00    +0.000 A 
ATOM      8  N   UNL     1       1.061   4.871  20.666  0.00  0.00    +0.000 NA
ATOM      9  N   UNL     1       1.153   3.527  20.396  0.00  0.00    +0.000 NA
ATOM     10  C   UNL     1       2.046   3.348  19.436  0.00  0.00    +0.000 A 
ATOM     11  C   UNL     1       2.109   6.969  19.752  0.00  0.00    +0.000 C 
ENDROOT
BRANCH   2  12
ATOM     12  C   UNL     1       1.732   9.350  18.055  0.00  0.00    +0.000 A 
ATOM     13  C   UNL     1       2.082  10.480  18.768  0.00  0.00    +0.000 A 
ATOM     14  S   UNL     1       0.712  11.464  19.039  0.00  0.00    +0.000 S 
ATOM     15  C   UNL     1      -0.281  10.347  18.164  0.00  0.00    +0.000 A 
ATOM     16  N   UNL     1       0.372   9.275  17.759  0.00  0.00    +0.000 NA
BRANCH  15  17
ATOM     17  C   UNL     1      -1.721  10.617  17.917  0.00  0.00    +0.000 A 
ATOM     18  C   UNL     1      -2.337  10.041  16.784  0.00  0.00    +0.000 A 
ATOM     19  C   UNL     1      -3.675  10.268  16.485  0.00  0.00    +0.000 A 
ATOM     20  C   UNL     1      -4.441  11.065  17.322  0.00  0.00    +0.000 A 
ATOM     21  C   UNL     1      -3.889  11.632  18.479  0.00  0.00    +0.000 A 
ATOM     22  C   UNL     1      -4.714  12.413  19.306  0.00  0.00    +0.000 A 
ATOM     23  C   UNL     1      -4.224  12.982  20.478  0.00  0.00    +0.000 A 
ATOM     24  C   UNL     1      -2.900  12.783  20.831  0.00  0.00    +0.000 A 
ATOM     25  C   UNL     1      -2.064  12.023  20.005  0.00  0.00    +0.000 A 
ATOM     26  C   UNL     1      -2.521  11.414  18.805  0.00  0.00    +0.000 A 
ENDBRANCH  15  17
ENDBRANCH   2  12
BRANCH  10  27
ATOM     27  C   UNL     1       2.434   2.056  18.821  0.00  0.00    +0.000 C 
ATOM     28  F   UNL     1       3.744   1.749  19.029  0.00  0.00    +0.000 F 
ATOM     29  F   UNL     1       1.720   1.016  19.323  0.00  0.00    +0.000 F 
ATOM     30  F   UNL     1       2.257   2.051  17.476  0.00  0.00    +0.000 F 
ENDBRANCH  10  27
TORSDOF 3
ENDMDL
MODEL 9
REMARK VINA RESULT:      -8.0      2.977      4.197
REMARK  Name = 
REMARK  3 active torsions:
REMARK  status: ('A' for Active; 'I' for Inactive)
REMARK    1  A    between atoms: C_2  and  C_3
REMARK    2  A    between atoms: C_6  and  C_7
REMARK    3  A    between atoms: C_25  and  C_26
REMARK                            x       y       z     vdW  Elec       q    Type
REMARK                         _______ _______ _______ _____ _____    ______ ____
ROOT
ATOM      1  O   UNL     1       2.044  10.813  18.036  0.00  0.00    +0.000 OA
ATOM      2  C   UNL     1       1.362  10.185  18.851  0.00  0.00    +0.000 C 
ATOM      3  N   UNL     1       0.260  10.777  19.470  0.00  0.00    +0.000 N 
ATOM      4  C   UNL     1      -0.229  12.066  18.989  0.00  0.00    +0.000 C 
ATOM      5  C   UNL     1      -0.063  13.142  20.060  0.00  0.00    +0.000 C 
ATOM      6  N   UNL     1      -0.539  12.660  21.340  0.00  0.00    +0.000 N 
ATOM      7  C   UNL     1      -0.710  11.330  21.627  0.00  0.00    +0.000 A 
ATOM      8  N   UNL     1      -1.128  11.212  22.866  0.00  0.00    +0.000 NA
ATOM      9  N   UNL     1      -1.208  12.472  23.404  0.00  0.00    +0.000 NA
ATOM     10  C   UNL     1      -0.838  13.349  22.486  0.00  0.00    +0.000 A 
ATOM     11  C   UNL     1      -0.416  10.236  20.659  0.00  0.00    +0.000 C 
ENDROOT
BRANCH   2  12
ATOM     12  C   UNL     1       1.696   8.795  19.190  0.00  0.00    +0.000 A 
ATOM     13  C   UNL     1       1.522   8.256  20.450  0.00  0.00    +0.000 A 
ATOM     14  S   UNL     1       2.029   6.625  20.477  0.00  0.00    +0.000 S 
ATOM     15  C   UNL     1       2.430   6.707  18.794  0.00  0.00    +0.000 A 
ATOM     16  N   UNL     1       2.255   7.905  18.273  0.00  0.00    +0.000 NA
BRANCH  15  17
ATOM     17  C   UNL     1       2.916   5.513  18.054  0.00  0.00    +0.000 A 
ATOM     18  C   UNL     1       2.053   4.405  17.908  0.00  0.00    +0.000 A 
ATOM     19  C   UNL     1       2.451   3.251  17.243  0.00  0.00    +0.000 A 
ATOM     20  C   UNL     1       3.720   3.180  16.690  0.00  0.00    +0.000 A 
ATOM     21  C   UNL     1       4.603   4.265  16.774  0.00  0.00    +0.000 A 
ATOM     22  C   UNL     1       5.870   4.151  16.175  0.00  0.00    +0.000 A 
ATOM     23  C   UNL     1       6.779   5.204  16.210  0.00  0.00    +0.000 A 
ATOM     24  C   UNL     1       6.434   6.381  16.853  0.00  0.00    +0.000 A 
ATOM     25  C   UNL     1       5.183   6.500  17.469  0.00  0.00    +0.000 A 
ATOM     26  C   UNL     1       4.219   5.456  17.450  0.00  0.00    +0.000 A 
ENDBRANCH  15  17
ENDBRANCH   2  12
BRANCH  10  27
ATOM     27  C   UNL     1      -0.751  14.820  22.653  0.00  0.00    +0.000 C 
ATOM     28  F   UNL     1      -1.111  15.229  23.901  0.00  0.00    +0.000 F 
ATOM     29  F   UNL     1       0.511  15.282  22.456  0.00  0.00    +0.000 F 
ATOM     30  F   UNL     1      -1.561  15.487  21.792  0.00  0.00    +0.000 F 
ENDBRANCH  10  27
TORSDOF 3
ENDMDL
