MODEL 1
REMARK VINA RESULT:      -8.9      0.000      0.000
REMARK  Name = 
REMARK  7 active torsions:
REMARK  status: ('A' for Active; 'I' for Inactive)
REMARK    1  A    between atoms: C_2  and  C_3
REMARK    2  A    between atoms: C_3  and  C_4
REMARK    3  A    between atoms: C_4  and  C_5
REMARK    4  A    between atoms: C_7  and  C_8
REMARK    5  A    between atoms: N_16  and  C_17
REMARK    6  A    between atoms: C_21  and  C_22
REMARK    7  A    between atoms: C_23  and  C_24
REMARK                            x       y       z     vdW  Elec       q    Type
REMARK                         _______ _______ _______ _____ _____    ______ ____
ROOT
ATOM      1  O   UNL     1       0.623   4.661  20.413  0.00  0.00    +0.000 OA
ATOM      2  C   UNL     1       1.778   4.805  20.814  0.00  0.00    +0.000 C 
ATOM      3  N   UNL     1       2.592   5.898  20.571  0.00  0.00    +0.000 N 
ATOM      4  H   UNL     1       3.574   5.809  20.813  0.00  0.00    +0.000 HD
ENDROOT
BRANCH   3   5
ATOM      5  C   UNL     1       2.238   7.042  19.818  0.00  0.00    +0.000 A 
ATOM      6  C   UNL     1       2.382   7.119  18.432  0.00  0.00    +0.000 A 
ATOM      7  C   UNL     1       2.076   8.296  17.748  0.00  0.00    +0.000 A 
ATOM      8  C   UNL     1       1.594   9.405  18.442  0.00  0.00    +0.000 A 
ATOM      9  C   UNL     1       1.391   9.337  19.825  0.00  0.00    +0.000 A 
ATOM     10  C   UNL     1       1.708   8.145  20.501  0.00  0.00    +0.000 A 
BRANCH   9  11
ATOM     11  C   UNL     1       0.786  10.495  20.506  0.00  0.00    +0.000 C 
ATOM     12  C   UNL     1      -0.042  10.415  21.559  0.00  0.00    +0.000 C 
BRANCH  12  13
ATOM     13  C   UNL     1      -0.642  11.584  22.217  0.00  0.00    +0.000 A 
ATOM     14  C   UNL     1      -1.796  11.438  22.982  0.00  0.00    +0.000 A 
ATOM     15  C   UNL     1      -2.333  12.560  23.608  0.00  0.00    +0.000 A 
ATOM     16  C   UNL     1      -1.707  13.790  23.454  0.00  0.00    +0.000 A 
ATOM     17  C   UNL     1      -0.568  13.848  22.669  0.00  0.00    +0.000 A 
ATOM     18  N   UNL     1      -0.027  12.778  22.049  0.00  0.00    +0.000 NA
ENDBRANCH  12  13
ENDBRANCH   9  11
ENDBRANCH   3   5
BRANCH   2  19
ATOM     19  C   UNL     1       2.421   3.752  21.700  0.00  0.00    +0.000 C 
BRANCH  19  20
ATOM     20  C   UNL     1       2.737   2.476  20.917  0.00  0.00    +0.000 C 
BRANCH  20  21
ATOM     21  C   UNL     1       3.439   2.774  19.645  0.00  0.00    +0.000 A 
ATOM     22  N   UNL     1       4.423   3.612  19.416  0.00  0.00    +0.000 NA
ATOM     23  C   UNL     1       4.598   3.496  18.053  0.00  0.00    +0.000 A 
ATOM     24  N   UNL     1       3.798   2.585  17.474  0.00  0.00    +0.000 NA
ATOM     25  O   UNL     1       3.021   2.110  18.531  0.00  0.00    +0.000 OA
BRANCH  23  26
ATOM     26  C   UNL     1       5.562   4.316  17.333  0.00  0.00    +0.000 A 
ATOM     27  C   UNL     1       5.834   4.056  15.987  0.00  0.00    +0.000 A 
ATOM     28  C   UNL     1       6.768   4.840  15.335  0.00  0.00    +0.000 A 
ATOM     29  N   UNL     1       7.437   5.852  15.925  0.00  0.00    +0.000 NA
ATOM     30  C   UNL     1       7.163   6.087  17.227  0.00  0.00    +0.000 A 
ATOM     31  C   UNL     1       6.245   5.358  17.965  0.00  0.00    +0.000 A 
ENDBRANCH  23  26
ENDBRANCH  20  21
ENDBRANCH  19  20
ENDBRANCH   2  19
TORSDOF 7
ENDMDL
MODEL 2
REMARK VINA RESULT:      -8.8      0.794      1.256
REMARK  Name = 
REMARK  7 active torsions:
REMARK  status: ('A' for Active; 'I' for Inactive)
REMARK    1  A    between atoms: C_2  and  C_3
REMARK    2  A    between atoms: C_3  and  C_4
REMARK    3  A    between atoms: C_4  and  C_5
REMARK    4  A    between atoms: C_7  and  C_8
REMARK    5  A    between atoms: N_16  and  C_17
REMARK    6  A    between atoms: C_21  and  C_22
REMARK    7  A    between atoms: C_23  and  C_24
REMARK                            x       y       z     vdW  Elec       q    Type
REMARK                         _______ _______ _______ _____ _____    ______ ____
ROOT
ATOM      1  O   UNL     1       0.630   4.621  20.492  0.00  0.00    +0.000 OA
ATOM      2  C   UNL     1       1.823   4.667  20.792  0.00  0.00    +0.000 C 
ATOM      3  N   UNL     1       2.716   5.657  20.419  0.00  0.00    +0.000 N 
ATOM      4  H   UNL     1       3.702   5.482  20.587  0.00  0.00    +0.000 HD
ENDROOT
BRANCH   3   5
ATOM      5  C   UNL     1       2.413   6.791  19.629  0.00  0.00    +0.000 A 
ATOM      6  C   UNL     1       2.935   6.993  18.351  0.00  0.00    +0.000 A 
ATOM      7  C   UNL     1       2.651   8.161  17.641  0.00  0.00    +0.000 A 
ATOM      8  C   UNL     1       1.816   9.131  18.194  0.00  0.00    +0.000 A 
ATOM      9  C   UNL     1       1.238   8.929  19.453  0.00  0.00    +0.000 A 
ATOM     10  C   UNL     1       1.537   7.750  20.157  0.00  0.00    +0.000 A 
BRANCH   9  11
ATOM     11  C   UNL     1       0.283   9.931  19.957  0.00  0.00    +0.000 C 
ATOM     12  C   UNL     1       0.540  10.799  20.949  0.00  0.00    +0.000 C 
BRANCH  12  13
ATOM     13  C   UNL     1      -0.432  11.784  21.444  0.00  0.00    +0.000 A 
ATOM     14  C   UNL     1      -1.268  12.449  20.550  0.00  0.00    +0.000 A 
ATOM     15  C   UNL     1      -2.191  13.365  21.048  0.00  0.00    +0.000 A 
ATOM     16  C   UNL     1      -2.254  13.591  22.417  0.00  0.00    +0.000 A 
ATOM     17  C   UNL     1      -1.381  12.893  23.234  0.00  0.00    +0.000 A 
ATOM     18  N   UNL     1      -0.475  12.002  22.779  0.00  0.00    +0.000 NA
ENDBRANCH  12  13
ENDBRANCH   9  11
ENDBRANCH   3   5
BRANCH   2  19
ATOM     19  C   UNL     1       2.434   3.602  21.685  0.00  0.00    +0.000 C 
BRANCH  19  20
ATOM     20  C   UNL     1       3.003   2.441  20.867  0.00  0.00    +0.000 C 
BRANCH  20  21
ATOM     21  C   UNL     1       3.497   2.894  19.544  0.00  0.00    +0.000 A 
ATOM     22  N   UNL     1       4.653   3.429  19.227  0.00  0.00    +0.000 NA
ATOM     23  C   UNL     1       4.498   3.693  17.883  0.00  0.00    +0.000 A 
ATOM     24  N   UNL     1       3.321   3.287  17.378  0.00  0.00    +0.000 NA
ATOM     25  O   UNL     1       2.652   2.763  18.484  0.00  0.00    +0.000 OA
BRANCH  23  26
ATOM     26  C   UNL     1       5.532   4.369  17.112  0.00  0.00    +0.000 A 
ATOM     27  C   UNL     1       6.185   5.483  17.647  0.00  0.00    +0.000 A 
ATOM     28  C   UNL     1       7.149   6.117  16.884  0.00  0.00    +0.000 A 
ATOM     29  N   UNL     1       7.502   5.718  15.644  0.00  0.00    +0.000 NA
ATOM     30  C   UNL     1       6.859   4.641  15.144  0.00  0.00    +0.000 A 
ATOM     31  C   UNL     1       5.881   3.941  15.830  0.00  0.00    +0.000 A 
ENDBRANCH  23  26
ENDBRANCH  20  21
ENDBRANCH  19  20
ENDBRANCH   2  19
TORSDOF 7
ENDMDL
MODEL 3
REMARK VINA RESULT:      -8.6      0.994      1.030
REMARK  Name = 
REMARK  7 active torsions:
REMARK  status: ('A' for Active; 'I' for Inactive)
REMARK    1  A    between atoms: C_2  and  C_3
REMARK    2  A    between atoms: C_3  and  C_4
REMARK    3  A    between atoms: C_4  and  C_5
REMARK    4  A    between atoms: C_7  and  C_8
REMARK    5  A    between atoms: N_16  and  C_17
REMARK    6  A    between atoms: C_21  and  C_22
REMARK    7  A    between atoms: C_23  and  C_24
REMARK                            x       y       z     vdW  Elec       q    Type
REMARK                         _______ _______ _______ _____ _____    ______ ____
ROOT
ATOM      1  O   UNL     1       0.670   3.810  19.752  0.00  0.00    +0.000 OA
ATOM      2  C   UNL     1       1.579   3.951  20.570  0.00  0.00    +0.000 C 
ATOM      3  N   UNL     1       2.313   5.106  20.778  0.00  0.00    +0.000 N 
ATOM      4  H   UNL     1       3.143   5.031  21.357  0.00  0.00    +0.000 HD
ENDROOT
BRANCH   3   5
ATOM      5  C   UNL     1       2.145   6.329  20.086  0.00  0.00    +0.000 A 
ATOM      6  C   UNL     1       2.548   6.520  18.763  0.00  0.00    +0.000 A 
ATOM      7  C   UNL     1       2.415   7.766  18.151  0.00  0.00    +0.000 A 
ATOM      8  C   UNL     1       1.850   8.833  18.848  0.00  0.00    +0.000 A 
ATOM      9  C   UNL     1       1.390   8.654  20.158  0.00  0.00    +0.000 A 
ATOM     10  C   UNL     1       1.535   7.394  20.763  0.00  0.00    +0.000 A 
BRANCH   9  11
ATOM     11  C   UNL     1       0.709   9.777  20.824  0.00  0.00    +0.000 C 
ATOM     12  C   UNL     1      -0.408  10.370  20.371  0.00  0.00    +0.000 C 
BRANCH  12  13
ATOM     13  C   UNL     1      -1.065  11.497  21.047  0.00  0.00    +0.000 A 
ATOM     14  C   UNL     1      -0.734  11.811  22.363  0.00  0.00    +0.000 A 
ATOM     15  C   UNL     1      -1.360  12.894  22.974  0.00  0.00    +0.000 A 
ATOM     16  C   UNL     1      -2.295  13.631  22.257  0.00  0.00    +0.000 A 
ATOM     17  C   UNL     1      -2.571  13.246  20.957  0.00  0.00    +0.000 A 
ATOM     18  N   UNL     1      -1.982  12.200  20.341  0.00  0.00    +0.000 NA
ENDBRANCH  12  13
ENDBRANCH   9  11
ENDBRANCH   3   5
BRANCH   2  19
ATOM     19  C   UNL     1       1.957   2.814  21.503  0.00  0.00    +0.000 C 
BRANCH  19  20
ATOM     20  C   UNL     1       3.387   2.330  21.249  0.00  0.00    +0.000 C 
BRANCH  20  21
ATOM     21  C   UNL     1       3.848   2.681  19.884  0.00  0.00    +0.000 A 
ATOM     22  N   UNL     1       4.807   3.497  19.515  0.00  0.00    +0.000 NA
ATOM     23  C   UNL     1       4.716   3.458  18.140  0.00  0.00    +0.000 A 
ATOM     24  N   UNL     1       3.781   2.611  17.677  0.00  0.00    +0.000 NA
ATOM     25  O   UNL     1       3.198   2.100  18.837  0.00  0.00    +0.000 OA
BRANCH  23  26
ATOM     26  C   UNL     1       5.562   4.287  17.293  0.00  0.00    +0.000 A 
ATOM     27  C   UNL     1       5.737   3.960  15.946  0.00  0.00    +0.000 A 
ATOM     28  C   UNL     1       6.561   4.755  15.171  0.00  0.00    +0.000 A 
ATOM     29  N   UNL     1       7.211   5.840  15.642  0.00  0.00    +0.000 NA
ATOM     30  C   UNL     1       7.031   6.139  16.946  0.00  0.00    +0.000 A 
ATOM     31  C   UNL     1       6.227   5.405  17.802  0.00  0.00    +0.000 A 
ENDBRANCH  23  26
ENDBRANCH  20  21
ENDBRANCH  19  20
ENDBRANCH   2  19
TORSDOF 7
ENDMDL
MODEL 4
REMARK VINA RESULT:      -8.5      1.272      1.777
REMARK  Name = 
REMARK  7 active torsions:
REMARK  status: ('A' for Active; 'I' for Inactive)
REMARK    1  A    between atoms: C_2  and  C_3
REMARK    2  A    between atoms: C_3  and  C_4
REMARK    3  A    between atoms: C_4  and  C_5
REMARK    4  A    between atoms: C_7  and  C_8
REMARK    5  A    between atoms: N_16  and  C_17
REMARK    6  A    between atoms: C_21  and  C_22
REMARK    7  A    between atoms: C_23  and  C_24
REMARK                            x       y       z     vdW  Elec       q    Type
REMARK                         _______ _______ _______ _____ _____    ______ ____
ROOT
ATOM      1  O   UNL     1       0.851   4.346  19.949  0.00  0.00    +0.000 OA
ATOM      2  C   UNL     1       1.807   4.630  20.671  0.00  0.00    +0.000 C 
ATOM      3  N   UNL     1       2.508   5.824  20.658  0.00  0.00    +0.000 N 
ATOM      4  H   UNL     1       3.378   5.858  21.180  0.00  0.00    +0.000 HD
ENDROOT
BRANCH   3   5
ATOM      5  C   UNL     1       2.248   6.928  19.812  0.00  0.00    +0.000 A 
ATOM      6  C   UNL     1       2.660   6.982  18.479  0.00  0.00    +0.000 A 
ATOM      7  C   UNL     1       2.430   8.123  17.708  0.00  0.00    +0.000 A 
ATOM      8  C   UNL     1       1.758   9.215  18.256  0.00  0.00    +0.000 A 
ATOM      9  C   UNL     1       1.289   9.165  19.574  0.00  0.00    +0.000 A 
ATOM     10  C   UNL     1       1.532   8.011  20.339  0.00  0.00    +0.000 A 
BRANCH   9  11
ATOM     11  C   UNL     1       0.498  10.299  20.082  0.00  0.00    +0.000 C 
ATOM     12  C   UNL     1      -0.047  11.256  19.314  0.00  0.00    +0.000 C 
BRANCH  12  13
ATOM     13  C   UNL     1      -0.825  12.384  19.844  0.00  0.00    +0.000 A 
ATOM     14  C   UNL     1      -0.358  13.687  19.690  0.00  0.00    +0.000 A 
ATOM     15  C   UNL     1      -1.124  14.738  20.187  0.00  0.00    +0.000 A 
ATOM     16  C   UNL     1      -2.329  14.461  20.821  0.00  0.00    +0.000 A 
ATOM     17  C   UNL     1      -2.715  13.137  20.937  0.00  0.00    +0.000 A 
ATOM     18  N   UNL     1      -1.991  12.099  20.468  0.00  0.00    +0.000 NA
ENDBRANCH  12  13
ENDBRANCH   9  11
ENDBRANCH   3   5
BRANCH   2  19
ATOM     19  C   UNL     1       2.290   3.653  21.728  0.00  0.00    +0.000 C 
BRANCH  19  20
ATOM     20  C   UNL     1       2.997   2.450  21.099  0.00  0.00    +0.000 C 
BRANCH  20  21
ATOM     21  C   UNL     1       3.630   2.802  19.806  0.00  0.00    +0.000 A 
ATOM     22  N   UNL     1       4.616   3.633  19.562  0.00  0.00    +0.000 NA
ATOM     23  C   UNL     1       4.710   3.586  18.187  0.00  0.00    +0.000 A 
ATOM     24  N   UNL     1       3.860   2.721  17.610  0.00  0.00    +0.000 NA
ATOM     25  O   UNL     1       3.136   2.205  18.685  0.00  0.00    +0.000 OA
BRANCH  23  26
ATOM     26  C   UNL     1       5.648   4.427  17.455  0.00  0.00    +0.000 A 
ATOM     27  C   UNL     1       6.269   5.502  18.096  0.00  0.00    +0.000 A 
ATOM     28  C   UNL     1       7.139   6.295  17.371  0.00  0.00    +0.000 A 
ATOM     29  N   UNL     1       7.430   6.087  16.069  0.00  0.00    +0.000 NA
ATOM     30  C   UNL     1       6.819   5.045  15.467  0.00  0.00    +0.000 A 
ATOM     31  C   UNL     1       5.933   4.195  16.108  0.00  0.00    +0.000 A 
ENDBRANCH  23  26
ENDBRANCH  20  21
ENDBRANCH  19  20
ENDBRANCH   2  19
TORSDOF 7
ENDMDL
MODEL 5
REMARK VINA RESULT:      -8.2      0.751      1.100
REMARK  Name = 
REMARK  7 active torsions:
REMARK  status: ('A' for Active; 'I' for Inactive)
REMARK    1  A    between atoms: C_2  and  C_3
REMARK    2  A    between atoms: C_3  and  C_4
REMARK    3  A    between atoms: C_4  and  C_5
REMARK    4  A    between atoms: C_7  and  C_8
REMARK    5  A    between atoms: N_16  and  C_17
REMARK    6  A    between atoms: C_21  and  C_22
REMARK    7  A    between atoms: C_23  and  C_24
REMARK                            x       y       z     vdW  Elec       q    Type
REMARK                         _______ _______ _______ _____ _____    ______ ____
ROOT
ATOM      1  O   UNL     1       0.922   4.677  19.818  0.00  0.00    +0.000 OA
ATOM      2  C   UNL     1       1.756   4.993  20.666  0.00  0.00    +0.000 C 
ATOM      3  N   UNL     1       2.218   6.275  20.911  0.00  0.00    +0.000 N 
ATOM      4  H   UNL     1       3.028   6.370  21.515  0.00  0.00    +0.000 HD
ENDROOT
BRANCH   3   5
ATOM      5  C   UNL     1       1.811   7.446  20.230  0.00  0.00    +0.000 A 
ATOM      6  C   UNL     1       2.223   7.758  18.933  0.00  0.00    +0.000 A 
ATOM      7  C   UNL     1       1.840   8.958  18.333  0.00  0.00    +0.000 A 
ATOM      8  C   UNL     1       1.015   9.851  19.015  0.00  0.00    +0.000 A 
ATOM      9  C   UNL     1       0.546   9.539  20.296  0.00  0.00    +0.000 A 
ATOM     10  C   UNL     1       0.944   8.328  20.889  0.00  0.00    +0.000 A 
BRANCH   9  11
ATOM     11  C   UNL     1      -0.404  10.461  20.942  0.00  0.00    +0.000 C 
ATOM     12  C   UNL     1      -0.116  11.237  21.999  0.00  0.00    +0.000 C 
BRANCH  12  13
ATOM     13  C   UNL     1      -1.082  12.144  22.634  0.00  0.00    +0.000 A 
ATOM     14  C   UNL     1      -0.794  13.501  22.748  0.00  0.00    +0.000 A 
ATOM     15  C   UNL     1      -1.736  14.340  23.339  0.00  0.00    +0.000 A 
ATOM     16  C   UNL     1      -2.933  13.804  23.796  0.00  0.00    +0.000 A 
ATOM     17  C   UNL     1      -3.135  12.442  23.650  0.00  0.00    +0.000 A 
ATOM     18  N   UNL     1      -2.239  11.606  23.084  0.00  0.00    +0.000 NA
ENDBRANCH  12  13
ENDBRANCH   9  11
ENDBRANCH   3   5
BRANCH   2  19
ATOM     19  C   UNL     1       2.343   3.947  21.596  0.00  0.00    +0.000 C 
BRANCH  19  20
ATOM     20  C   UNL     1       2.647   2.643  20.855  0.00  0.00    +0.000 C 
BRANCH  20  21
ATOM     21  C   UNL     1       3.387   2.890  19.594  0.00  0.00    +0.000 A 
ATOM     22  N   UNL     1       4.363   3.734  19.355  0.00  0.00    +0.000 NA
ATOM     23  C   UNL     1       4.588   3.554  18.007  0.00  0.00    +0.000 A 
ATOM     24  N   UNL     1       3.825   2.599  17.449  0.00  0.00    +0.000 NA
ATOM     25  O   UNL     1       3.020   2.163  18.502  0.00  0.00    +0.000 OA
BRANCH  23  26
ATOM     26  C   UNL     1       5.562   4.356  17.279  0.00  0.00    +0.000 A 
ATOM     27  C   UNL     1       5.856   4.056  15.946  0.00  0.00    +0.000 A 
ATOM     28  C   UNL     1       6.799   4.823  15.287  0.00  0.00    +0.000 A 
ATOM     29  N   UNL     1       7.455   5.855  15.858  0.00  0.00    +0.000 NA
ATOM     30  C   UNL     1       7.159   6.128  17.147  0.00  0.00    +0.000 A 
ATOM     31  C   UNL     1       6.231   5.418  17.891  0.00  0.00    +0.000 A 
ENDBRANCH  23  26
ENDBRANCH  20  21
ENDBRANCH  19  20
ENDBRANCH   2  19
TORSDOF 7
ENDMDL
MODEL 6
REMARK VINA RESULT:      -8.2      3.239      5.203
REMARK  Name = 
REMARK  7 active torsions:
REMARK  status: ('A' for Active; 'I' for Inactive)
REMARK    1  A    between atoms: C_2  and  C_3
REMARK    2  A    between atoms: C_3  and  C_4
REMARK    3  A    between atoms: C_4  and  C_5
REMARK    4  A    between atoms: C_7  and  C_8
REMARK    5  A    between atoms: N_16  and  C_17
REMARK    6  A    between atoms: C_21  and  C_22
REMARK    7  A    between atoms: C_23  and  C_24
REMARK                            x       y       z     vdW  Elec       q    Type
REMARK                         _______ _______ _______ _____ _____    ______ ____
ROOT
ATOM      1  O   UNL     1       4.339   3.850  16.634  0.00  0.00    +0.000 OA
ATOM      2  C   UNL     1       5.235   4.382  17.289  0.00  0.00    +0.000 C 
ATOM      3  N   UNL     1       5.104   4.921  18.557  0.00  0.00    +0.000 N 
ATOM      4  H   UNL     1       5.875   5.481  18.907  0.00  0.00    +0.000 HD
ENDROOT
BRANCH   3   5
ATOM      5  C   UNL     1       3.915   4.954  19.324  0.00  0.00    +0.000 A 
ATOM      6  C   UNL     1       3.378   3.827  19.949  0.00  0.00    +0.000 A 
ATOM      7  C   UNL     1       2.169   3.904  20.641  0.00  0.00    +0.000 A 
ATOM      8  C   UNL     1       1.495   5.120  20.740  0.00  0.00    +0.000 A 
ATOM      9  C   UNL     1       2.038   6.276  20.167  0.00  0.00    +0.000 A 
ATOM     10  C   UNL     1       3.255   6.181  19.469  0.00  0.00    +0.000 A 
BRANCH   9  11
ATOM     11  C   UNL     1       1.346   7.559  20.380  0.00  0.00    +0.000 C 
ATOM     12  C   UNL     1       0.934   8.016  21.573  0.00  0.00    +0.000 C 
BRANCH  12  13
ATOM     13  C   UNL     1       0.236   9.296  21.760  0.00  0.00    +0.000 A 
ATOM     14  C   UNL     1      -0.330   9.607  22.993  0.00  0.00    +0.000 A 
ATOM     15  C   UNL     1      -0.971  10.834  23.148  0.00  0.00    +0.000 A 
ATOM     16  C   UNL     1      -1.028  11.712  22.072  0.00  0.00    +0.000 A 
ATOM     17  C   UNL     1      -0.445  11.320  20.880  0.00  0.00    +0.000 A 
ATOM     18  N   UNL     1       0.179  10.136  20.701  0.00  0.00    +0.000 NA
ENDBRANCH  12  13
ENDBRANCH   9  11
ENDBRANCH   3   5
BRANCH   2  19
ATOM     19  C   UNL     1       6.650   4.451  16.742  0.00  0.00    +0.000 C 
BRANCH  19  20
ATOM     20  C   UNL     1       6.943   5.815  16.112  0.00  0.00    +0.000 C 
BRANCH  20  21
ATOM     21  C   UNL     1       7.491   6.770  17.105  0.00  0.00    +0.000 A 
ATOM     22  N   UNL     1       7.645   8.070  17.011  0.00  0.00    +0.000 NA
ATOM     23  C   UNL     1       8.254   8.383  18.207  0.00  0.00    +0.000 A 
ATOM     24  N   UNL     1       8.417   7.333  19.029  0.00  0.00    +0.000 NA
ATOM     25  O   UNL     1       7.918   6.258  18.294  0.00  0.00    +0.000 OA
BRANCH  23  26
ATOM     26  C   UNL     1       8.685   9.740  18.514  0.00  0.00    +0.000 A 
ATOM     27  C   UNL     1       9.302  10.017  19.737  0.00  0.00    +0.000 A 
ATOM     28  C   UNL     1       9.683  11.318  20.009  0.00  0.00    +0.000 A 
ATOM     29  N   UNL     1       9.497  12.345  19.153  0.00  0.00    +0.000 NA
ATOM     30  C   UNL     1       8.898  12.058  17.977  0.00  0.00    +0.000 A 
ATOM     31  C   UNL     1       8.480  10.789  17.615  0.00  0.00    +0.000 A 
ENDBRANCH  23  26
ENDBRANCH  20  21
ENDBRANCH  19  20
ENDBRANCH   2  19
TORSDOF 7
ENDMDL
MODEL 7
REMARK VINA RESULT:      -8.1      6.022      7.469
REMARK  Name = 
REMARK  7 active torsions:
REMARK  status: ('A' for Active; 'I' for Inactive)
REMARK    1  A    between atoms: C_2  and  C_3
REMARK    2  A    between atoms: C_3  and  C_4
REMARK    3  A    between atoms: C_4  and  C_5
REMARK    4  A    between atoms: C_7  and  C_8
REMARK    5  A    between atoms: N_16  and  C_17
REMARK    6  A    between atoms: C_21  and  C_22
REMARK    7  A    between atoms: C_23  and  C_24
REMARK                            x       y       z     vdW  Elec       q    Type
REMARK                         _______ _______ _______ _____ _____    ______ ____
ROOT
ATOM      1  O   UNL     1       7.749  10.427  17.439  0.00  0.00    +0.000 OA
ATOM      2  C   UNL     1       8.227   9.440  18.001  0.00  0.00    +0.000 C 
ATOM      3  N   UNL     1       9.079   9.460  19.091  0.00  0.00    +0.000 N 
ATOM      4  H   UNL     1       9.533   8.588  19.342  0.00  0.00    +0.000 HD
ENDROOT
BRANCH   3   5
ATOM      5  C   UNL     1       9.551  10.619  19.752  0.00  0.00    +0.000 A 
ATOM      6  C   UNL     1      10.541  11.450  19.224  0.00  0.00    +0.000 A 
ATOM      7  C   UNL     1      11.012  12.546  19.948  0.00  0.00    +0.000 A 
ATOM      8  C   UNL     1      10.478  12.839  21.202  0.00  0.00    +0.000 A 
ATOM      9  C   UNL     1       9.448  12.053  21.731  0.00  0.00    +0.000 A 
ATOM     10  C   UNL     1       8.987  10.950  20.991  0.00  0.00    +0.000 A 
BRANCH   9  11
ATOM     11  C   UNL     1       8.842  12.455  23.012  0.00  0.00    +0.000 C 
ATOM     12  C   UNL     1       8.150  11.637  23.820  0.00  0.00    +0.000 C 
BRANCH  12  13
ATOM     13  C   UNL     1       7.545  12.063  25.090  0.00  0.00    +0.000 A 
ATOM     14  C   UNL     1       6.441  11.384  25.599  0.00  0.00    +0.000 A 
ATOM     15  C   UNL     1       5.899  11.799  26.813  0.00  0.00    +0.000 A 
ATOM     16  C   UNL     1       6.471  12.874  27.481  0.00  0.00    +0.000 A 
ATOM     17  C   UNL     1       7.562  13.496  26.901  0.00  0.00    +0.000 A 
ATOM     18  N   UNL     1       8.106  13.118  25.725  0.00  0.00    +0.000 NA
ENDBRANCH  12  13
ENDBRANCH   9  11
ENDBRANCH   3   5
BRANCH   2  19
ATOM     19  C   UNL     1       7.857   8.040  17.543  0.00  0.00    +0.000 C 
BRANCH  19  20
ATOM     20  C   UNL     1       8.177   6.996  18.615  0.00  0.00    +0.000 C 
BRANCH  20  21
ATOM     21  C   UNL     1       7.066   6.030  18.786  0.00  0.00    +0.000 A 
ATOM     22  N   UNL     1       6.004   5.843  18.038  0.00  0.00    +0.000 NA
ATOM     23  C   UNL     1       5.319   4.869  18.733  0.00  0.00    +0.000 A 
ATOM     24  N   UNL     1       5.956   4.432  19.832  0.00  0.00    +0.000 NA
ATOM     25  O   UNL     1       7.114   5.209  19.872  0.00  0.00    +0.000 OA
BRANCH  23  26
ATOM     26  C   UNL     1       4.014   4.392  18.297  0.00  0.00    +0.000 A 
ATOM     27  C   UNL     1       2.946   5.286  18.186  0.00  0.00    +0.000 A 
ATOM     28  C   UNL     1       1.713   4.801  17.788  0.00  0.00    +0.000 A 
ATOM     29  N   UNL     1       1.480   3.505  17.495  0.00  0.00    +0.000 NA
ATOM     30  C   UNL     1       2.524   2.656  17.610  0.00  0.00    +0.000 A 
ATOM     31  C   UNL     1       3.794   3.045  18.001  0.00  0.00    +0.000 A 
ENDBRANCH  23  26
ENDBRANCH  20  21
ENDBRANCH  19  20
ENDBRANCH   2  19
TORSDOF 7
ENDMDL
MODEL 8
REMARK VINA RESULT:      -8.0      1.318      1.726
REMARK  Name = 
REMARK  7 active torsions:
REMARK  status: ('A' for Active; 'I' for Inactive)
REMARK    1  A    between atoms: C_2  and  C_3
REMARK    2  A    between atoms: C_3  and  C_4
REMARK    3  A    between atoms: C_4  and  C_5
REMARK    4  A    between atoms: C_7  and  C_8
REMARK    5  A    between atoms: N_16  and  C_17
REMARK    6  A    between atoms: C_21  and  C_22
REMARK    7  A    between atoms: C_23  and  C_24
REMARK                            x       y       z     vdW  Elec       q    Type
REMARK                         _______ _______ _______ _____ _____    ______ ____
ROOT
ATOM      1  O   UNL     1       0.798   4.168  19.831  0.00  0.00    +0.000 OA
ATOM      2  C   UNL     1       1.865   4.339  20.421  0.00  0.00    +0.000 C 
ATOM      3  N   UNL     1       2.625   5.496  20.407  0.00  0.00    +0.000 N 
ATOM      4  H   UNL     1       3.563   5.441  20.791  0.00  0.00    +0.000 HD
ENDROOT
BRANCH   3   5
ATOM      5  C   UNL     1       2.307   6.687  19.712  0.00  0.00    +0.000 A 
ATOM      6  C   UNL     1       2.560   6.868  18.351  0.00  0.00    +0.000 A 
ATOM      7  C   UNL     1       2.283   8.087  17.731  0.00  0.00    +0.000 A 
ATOM      8  C   UNL     1       1.721   9.133  18.461  0.00  0.00    +0.000 A 
ATOM      9  C   UNL     1       1.409   8.960  19.814  0.00  0.00    +0.000 A 
ATOM     10  C   UNL     1       1.698   7.728  20.426  0.00  0.00    +0.000 A 
BRANCH   9  11
ATOM     11  C   UNL     1       0.725  10.054  20.524  0.00  0.00    +0.000 C 
ATOM     12  C   UNL     1      -0.512  10.492  20.242  0.00  0.00    +0.000 C 
BRANCH  12  13
ATOM     13  C   UNL     1      -1.172  11.593  20.957  0.00  0.00    +0.000 A 
ATOM     14  C   UNL     1      -1.595  12.723  20.262  0.00  0.00    +0.000 A 
ATOM     15  C   UNL     1      -2.233  13.743  20.962  0.00  0.00    +0.000 A 
ATOM     16  C   UNL     1      -2.430  13.609  22.331  0.00  0.00    +0.000 A 
ATOM     17  C   UNL     1      -1.971  12.456  22.945  0.00  0.00    +0.000 A 
ATOM     18  N   UNL     1      -1.347  11.453  22.292  0.00  0.00    +0.000 NA
ENDBRANCH  12  13
ENDBRANCH   9  11
ENDBRANCH   3   5
BRANCH   2  19
ATOM     19  C   UNL     1       2.442   3.244  21.301  0.00  0.00    +0.000 C 
BRANCH  19  20
ATOM     20  C   UNL     1       3.405   2.345  20.521  0.00  0.00    +0.000 C 
BRANCH  20  21
ATOM     21  C   UNL     1       4.298   3.136  19.640  0.00  0.00    +0.000 A 
ATOM     22  N   UNL     1       4.322   3.208  18.330  0.00  0.00    +0.000 NA
ATOM     23  C   UNL     1       5.397   4.040  18.099  0.00  0.00    +0.000 A 
ATOM     24  N   UNL     1       5.976   4.508  19.217  0.00  0.00    +0.000 NA
ATOM     25  O   UNL     1       5.251   3.901  20.242  0.00  0.00    +0.000 OA
BRANCH  23  26
ATOM     26  C   UNL     1       5.849   4.349  16.749  0.00  0.00    +0.000 A 
ATOM     27  C   UNL     1       7.127   4.878  16.545  0.00  0.00    +0.000 A 
ATOM     28  C   UNL     1       7.521   5.180  15.254  0.00  0.00    +0.000 A 
ATOM     29  N   UNL     1       6.740   4.989  14.170  0.00  0.00    +0.000 NA
ATOM     30  C   UNL     1       5.509   4.479  14.388  0.00  0.00    +0.000 A 
ATOM     31  C   UNL     1       5.023   4.146  15.641  0.00  0.00    +0.000 A 
ENDBRANCH  23  26
ENDBRANCH  20  21
ENDBRANCH  19  20
ENDBRANCH   2  19
TORSDOF 7
ENDMDL
MODEL 9
REMARK VINA RESULT:      -7.9      3.430      5.503
REMARK  Name = 
REMARK  7 active torsions:
REMARK  status: ('A' for Active; 'I' for Inactive)
REMARK    1  A    between atoms: C_2  and  C_3
REMARK    2  A    between atoms: C_3  and  C_4
REMARK    3  A    between atoms: C_4  and  C_5
REMARK    4  A    between atoms: C_7  and  C_8
REMARK    5  A    between atoms: N_16  and  C_17
REMARK    6  A    between atoms: C_21  and  C_22
REMARK    7  A    between atoms: C_23  and  C_24
REMARK                            x       y       z     vdW  Elec       q    Type
REMARK                         _______ _______ _______ _____ _____    ______ ____
ROOT
ATOM      1  O   UNL     1       4.559   4.140  16.757  0.00  0.00    +0.000 OA
ATOM      2  C   UNL     1       5.390   4.485  17.597  0.00  0.00    +0.000 C 
ATOM      3  N   UNL     1       5.142   4.711  18.940  0.00  0.00    +0.000 N 
ATOM      4  H   UNL     1       5.876   5.158  19.480  0.00  0.00    +0.000 HD
ENDROOT
BRANCH   3   5
ATOM      5  C   UNL     1       3.888   4.582  19.583  0.00  0.00    +0.000 A 
ATOM      6  C   UNL     1       3.395   3.365  20.059  0.00  0.00    +0.000 A 
ATOM      7  C   UNL     1       2.124   3.286  20.629  0.00  0.00    +0.000 A 
ATOM      8  C   UNL     1       1.340   4.432  20.756  0.00  0.00    +0.000 A 
ATOM      9  C   UNL     1       1.832   5.673  20.335  0.00  0.00    +0.000 A 
ATOM     10  C   UNL     1       3.112   5.736  19.758  0.00  0.00    +0.000 A 
BRANCH   9  11
ATOM     11  C   UNL     1       1.014   6.873  20.578  0.00  0.00    +0.000 C 
ATOM     12  C   UNL     1       1.391   7.914  21.336  0.00  0.00    +0.000 C 
BRANCH  12  13
ATOM     13  C   UNL     1       0.554   9.098  21.573  0.00  0.00    +0.000 A 
ATOM     14  C   UNL     1       0.176   9.910  20.507  0.00  0.00    +0.000 A 
ATOM     15  C   UNL     1      -0.632  11.016  20.758  0.00  0.00    +0.000 A 
ATOM     16  C   UNL     1      -1.038  11.280  22.060  0.00  0.00    +0.000 A 
ATOM     17  C   UNL     1      -0.611  10.426  23.062  0.00  0.00    +0.000 A 
ATOM     18  N   UNL     1       0.174   9.349  22.848  0.00  0.00    +0.000 NA
ENDBRANCH  12  13
ENDBRANCH   9  11
ENDBRANCH   3   5
BRANCH   2  19
ATOM     19  C   UNL     1       6.849   4.656  17.211  0.00  0.00    +0.000 C 
BRANCH  19  20
ATOM     20  C   UNL     1       7.076   5.956  16.436  0.00  0.00    +0.000 C 
BRANCH  20  21
ATOM     21  C   UNL     1       7.624   7.024  17.307  0.00  0.00    +0.000 A 
ATOM     22  N   UNL     1       7.731   8.311  17.077  0.00  0.00    +0.000 NA
ATOM     23  C   UNL     1       8.368   8.763  18.213  0.00  0.00    +0.000 A 
ATOM     24  N   UNL     1       8.594   7.808  19.130  0.00  0.00    +0.000 NA
ATOM     25  O   UNL     1       8.107   6.649  18.525  0.00  0.00    +0.000 OA
BRANCH  23  26
ATOM     26  C   UNL     1       8.764  10.156  18.366  0.00  0.00    +0.000 A 
ATOM     27  C   UNL     1       9.689  10.516  19.350  0.00  0.00    +0.000 A 
ATOM     28  C   UNL     1      10.031  11.849  19.484  0.00  0.00    +0.000 A 
ATOM     29  N   UNL     1       9.522  12.832  18.712  0.00  0.00    +0.000 NA
ATOM     30  C   UNL     1       8.629  12.466  17.768  0.00  0.00    +0.000 A 
ATOM     31  C   UNL     1       8.223  11.159  17.557  0.00  0.00    +0.000 A 
ENDBRANCH  23  26
ENDBRANCH  20  21
ENDBRANCH  19  20
ENDBRANCH   2  19
TORSDOF 7
ENDMDL
