MODEL 1
REMARK VINA RESULT:      -8.1      0.000      0.000
REMARK  Name = 
REMARK  4 active torsions:
REMARK  status: ('A' for Active; 'I' for Inactive)
REMARK    1  A    between atoms: C_2  and  C_19
REMARK    2  A    between atoms: N_3  and  C_4
REMARK    3  A    between atoms: N_14  and  C_15
REMARK    4  A    between atoms: C_15  and  C_16
REMARK                            x       y       z     vdW  Elec       q    Type
REMARK                         _______ _______ _______ _____ _____    ______ ____
ROOT
ATOM      1  C   UNL     1       1.628   7.420  20.286  0.00  0.00    +0.000 A 
ATOM      2  C   UNL     1       2.673   7.506  19.369  0.00  0.00    +0.000 A 
ATOM      3  C   UNL     1       3.438   6.386  19.044  0.00  0.00    +0.000 A 
ATOM      4  C   UNL     1       3.154   5.142  19.608  0.00  0.00    +0.000 A 
ATOM      5  C   UNL     1       2.134   5.064  20.575  0.00  0.00    +0.000 A 
ATOM      6  C   UNL     1       1.398   6.206  20.935  0.00  0.00    +0.000 A 
ATOM      7  C   UNL     1       1.855   3.736  21.216  0.00  0.00    +0.000 C 
ATOM      8  C   UNL     1       1.926   2.673  20.146  0.00  0.00    +0.000 C 
ATOM      9  C   UNL     1       3.263   2.695  19.432  0.00  0.00    +0.000 C 
ATOM     10  O   UNL     1       3.730   1.640  18.995  0.00  0.00    +0.000 OA
ATOM     11  N   UNL     1       3.835   3.951  19.201  0.00  0.00    +0.000 N 
ENDROOT
BRANCH   1  14
ATOM     12  O   UNL     1       1.821   9.298  22.505  0.00  0.00    +0.000 OA
ATOM     13  C   UNL     1       0.916   9.352  21.676  0.00  0.00    +0.000 C 
ATOM     14  N   UNL     1       0.783   8.516  20.579  0.00  0.00    +0.000 N 
ATOM     15  H   UNL     1       0.096   8.761  19.873  0.00  0.00    +0.000 HD
BRANCH  13  16
ATOM     16  C   UNL     1      -0.095  10.427  21.850  0.00  0.00    +0.000 A 
ATOM     17  C   UNL     1      -0.838  10.439  23.042  0.00  0.00    +0.000 A 
ATOM     18  C   UNL     1      -1.833  11.391  23.249  0.00  0.00    +0.000 A 
ATOM     19  C   UNL     1      -2.082  12.335  22.260  0.00  0.00    +0.000 A 
ATOM     20  F   UNL     1      -3.050  13.245  22.452  0.00  0.00    +0.000 F 
ATOM     21  C   UNL     1      -1.357  12.350  21.079  0.00  0.00    +0.000 A 
ATOM     22  C   UNL     1      -0.361  11.398  20.879  0.00  0.00    +0.000 A 
ATOM     23  F   UNL     1       0.334  11.436  19.731  0.00  0.00    +0.000 F 
ENDBRANCH  13  16
ENDBRANCH   1  14
BRANCH  11  24
ATOM     24  C   UNL     1       4.963   4.017  18.269  0.00  0.00    +0.000 C 
BRANCH  24  25
ATOM     25  C   UNL     1       4.656   4.188  16.803  0.00  0.00    +0.000 C 
ATOM     26  C   UNL     1       5.710   3.881  15.762  0.00  0.00    +0.000 C 
ATOM     27  C   UNL     1       5.154   5.272  15.873  0.00  0.00    +0.000 C 
ENDBRANCH  24  25
ENDBRANCH  11  24
TORSDOF 4
ENDMDL
MODEL 2
REMARK VINA RESULT:      -8.1      0.929      1.331
REMARK  Name = 
REMARK  4 active torsions:
REMARK  status: ('A' for Active; 'I' for Inactive)
REMARK    1  A    between atoms: C_2  and  C_19
REMARK    2  A    between atoms: N_3  and  C_4
REMARK    3  A    between atoms: N_14  and  C_15
REMARK    4  A    between atoms: C_15  and  C_16
REMARK                            x       y       z     vdW  Elec       q    Type
REMARK                         _______ _______ _______ _____ _____    ______ ____
ROOT
ATOM      1  C   UNL     1       1.661   7.266  20.176  0.00  0.00    +0.000 A 
ATOM      2  C   UNL     1       2.702   7.360  19.255  0.00  0.00    +0.000 A 
ATOM      3  C   UNL     1       3.488   6.252  18.942  0.00  0.00    +0.000 A 
ATOM      4  C   UNL     1       3.231   5.010  19.523  0.00  0.00    +0.000 A 
ATOM      5  C   UNL     1       2.216   4.924  20.494  0.00  0.00    +0.000 A 
ATOM      6  C   UNL     1       1.458   6.056  20.842  0.00  0.00    +0.000 A 
ATOM      7  C   UNL     1       1.966   3.600  21.154  0.00  0.00    +0.000 C 
ATOM      8  C   UNL     1       2.055   2.525  20.097  0.00  0.00    +0.000 C 
ATOM      9  C   UNL     1       3.389   2.563  19.379  0.00  0.00    +0.000 C 
ATOM     10  O   UNL     1       3.875   1.513  18.954  0.00  0.00    +0.000 OA
ATOM     11  N   UNL     1       3.935   3.828  19.130  0.00  0.00    +0.000 N 
ENDROOT
BRANCH   1  14
ATOM     12  O   UNL     1       1.877   9.234  22.314  0.00  0.00    +0.000 OA
ATOM     13  C   UNL     1       0.943   9.230  21.517  0.00  0.00    +0.000 C 
ATOM     14  N   UNL     1       0.795   8.348  20.458  0.00  0.00    +0.000 N 
ATOM     15  H   UNL     1       0.078   8.546  19.769  0.00  0.00    +0.000 HD
BRANCH  13  16
ATOM     16  C   UNL     1      -0.093  10.283  21.686  0.00  0.00    +0.000 A 
ATOM     17  C   UNL     1      -0.395  11.088  20.576  0.00  0.00    +0.000 A 
ATOM     18  C   UNL     1      -1.321  12.123  20.679  0.00  0.00    +0.000 A 
ATOM     19  C   UNL     1      -1.947  12.349  21.899  0.00  0.00    +0.000 A 
ATOM     20  F   UNL     1      -2.831  13.355  22.004  0.00  0.00    +0.000 F 
ATOM     21  C   UNL     1      -1.673  11.564  23.007  0.00  0.00    +0.000 A 
ATOM     22  C   UNL     1      -0.749  10.528  22.897  0.00  0.00    +0.000 A 
ATOM     23  F   UNL     1      -0.505   9.775  23.981  0.00  0.00    +0.000 F 
ENDBRANCH  13  16
ENDBRANCH   1  14
BRANCH  11  24
ATOM     24  C   UNL     1       5.058   3.905  18.192  0.00  0.00    +0.000 C 
BRANCH  24  25
ATOM     25  C   UNL     1       4.744   4.106  16.732  0.00  0.00    +0.000 C 
ATOM     26  C   UNL     1       5.798   3.832  15.680  0.00  0.00    +0.000 C 
ATOM     27  C   UNL     1       5.229   5.216  15.826  0.00  0.00    +0.000 C 
ENDBRANCH  24  25
ENDBRANCH  11  24
TORSDOF 4
ENDMDL
MODEL 3
REMARK VINA RESULT:      -8.1      3.777      8.873
REMARK  Name = 
REMARK  4 active torsions:
REMARK  status: ('A' for Active; 'I' for Inactive)
REMARK    1  A    between atoms: C_2  and  C_19
REMARK    2  A    between atoms: N_3  and  C_4
REMARK    3  A    between atoms: N_14  and  C_15
REMARK    4  A    between atoms: C_15  and  C_16
REMARK                            x       y       z     vdW  Elec       q    Type
REMARK                         _______ _______ _______ _____ _____    ______ ____
ROOT
ATOM      1  C   UNL     1       1.873   8.630  18.703  0.00  0.00    +0.000 A 
ATOM      2  C   UNL     1       1.140   9.275  17.709  0.00  0.00    +0.000 A 
ATOM      3  C   UNL     1       0.032  10.058  18.027  0.00  0.00    +0.000 A 
ATOM      4  C   UNL     1      -0.353  10.242  19.355  0.00  0.00    +0.000 A 
ATOM      5  C   UNL     1       0.351   9.548  20.357  0.00  0.00    +0.000 A 
ATOM      6  C   UNL     1       1.438   8.719  20.026  0.00  0.00    +0.000 A 
ATOM      7  C   UNL     1      -0.088   9.707  21.782  0.00  0.00    +0.000 C 
ATOM      8  C   UNL     1      -0.432  11.160  22.008  0.00  0.00    +0.000 C 
ATOM      9  C   UNL     1      -1.485  11.638  21.029  0.00  0.00    +0.000 C 
ATOM     10  O   UNL     1      -2.282  12.511  21.380  0.00  0.00    +0.000 OA
ATOM     11  N   UNL     1      -1.405  11.139  19.724  0.00  0.00    +0.000 N 
ENDROOT
BRANCH   1  14
ATOM     12  O   UNL     1       2.099   5.828  17.935  0.00  0.00    +0.000 OA
ATOM     13  C   UNL     1       3.082   6.547  18.094  0.00  0.00    +0.000 C 
ATOM     14  N   UNL     1       3.047   7.892  18.424  0.00  0.00    +0.000 N 
ATOM     15  H   UNL     1       3.911   8.421  18.361  0.00  0.00    +0.000 HD
BRANCH  13  16
ATOM     16  C   UNL     1       4.414   5.924  17.879  0.00  0.00    +0.000 A 
ATOM     17  C   UNL     1       4.954   5.158  18.925  0.00  0.00    +0.000 A 
ATOM     18  C   UNL     1       6.219   4.586  18.807  0.00  0.00    +0.000 A 
ATOM     19  C   UNL     1       6.942   4.780  17.636  0.00  0.00    +0.000 A 
ATOM     20  F   UNL     1       8.166   4.240  17.525  0.00  0.00    +0.000 F 
ATOM     21  C   UNL     1       6.428   5.525  16.586  0.00  0.00    +0.000 A 
ATOM     22  C   UNL     1       5.162   6.092  16.709  0.00  0.00    +0.000 A 
ATOM     23  F   UNL     1       4.680   6.802  15.677  0.00  0.00    +0.000 F 
ENDBRANCH  13  16
ENDBRANCH   1  14
BRANCH  11  24
ATOM     24  C   UNL     1      -2.216  11.800  18.698  0.00  0.00    +0.000 C 
BRANCH  24  25
ATOM     25  C   UNL     1      -3.413  11.058  18.160  0.00  0.00    +0.000 C 
ATOM     26  C   UNL     1      -3.423  10.562  16.730  0.00  0.00    +0.000 C 
ATOM     27  C   UNL     1      -4.451  11.561  17.182  0.00  0.00    +0.000 C 
ENDBRANCH  24  25
ENDBRANCH  11  24
TORSDOF 4
ENDMDL
MODEL 4
REMARK VINA RESULT:      -8.1      1.349      1.712
REMARK  Name = 
REMARK  4 active torsions:
REMARK  status: ('A' for Active; 'I' for Inactive)
REMARK    1  A    between atoms: C_2  and  C_19
REMARK    2  A    between atoms: N_3  and  C_4
REMARK    3  A    between atoms: N_14  and  C_15
REMARK    4  A    between atoms: C_15  and  C_16
REMARK                            x       y       z     vdW  Elec       q    Type
REMARK                         _______ _______ _______ _____ _____    ______ ____
ROOT
ATOM      1  C   UNL     1       1.736   7.886  19.809  0.00  0.00    +0.000 A 
ATOM      2  C   UNL     1       2.226   7.732  18.514  0.00  0.00    +0.000 A 
ATOM      3  C   UNL     1       2.705   6.500  18.070  0.00  0.00    +0.000 A 
ATOM      4  C   UNL     1       2.676   5.381  18.903  0.00  0.00    +0.000 A 
ATOM      5  C   UNL     1       2.233   5.548  20.229  0.00  0.00    +0.000 A 
ATOM      6  C   UNL     1       1.797   6.803  20.687  0.00  0.00    +0.000 A 
ATOM      7  C   UNL     1       2.242   4.357  21.142  0.00  0.00    +0.000 C 
ATOM      8  C   UNL     1       1.760   3.160  20.357  0.00  0.00    +0.000 C 
ATOM      9  C   UNL     1       2.601   2.936  19.116  0.00  0.00    +0.000 C 
ATOM     10  O   UNL     1       2.766   1.787  18.700  0.00  0.00    +0.000 OA
ATOM     11  N   UNL     1       3.041   4.078  18.438  0.00  0.00    +0.000 N 
ENDROOT
BRANCH   1  14
ATOM     12  O   UNL     1      -0.616   8.254  21.490  0.00  0.00    +0.000 OA
ATOM     13  C   UNL     1       0.026   9.201  21.042  0.00  0.00    +0.000 C 
ATOM     14  N   UNL     1       1.171   9.099  20.268  0.00  0.00    +0.000 N 
ATOM     15  H   UNL     1       1.710   9.943  20.100  0.00  0.00    +0.000 HD
BRANCH  13  16
ATOM     16  C   UNL     1      -0.449  10.565  21.393  0.00  0.00    +0.000 A 
ATOM     17  C   UNL     1      -0.511  11.521  20.366  0.00  0.00    +0.000 A 
ATOM     18  C   UNL     1      -0.903  12.829  20.636  0.00  0.00    +0.000 A 
ATOM     19  C   UNL     1      -1.236  13.179  21.939  0.00  0.00    +0.000 A 
ATOM     20  F   UNL     1      -1.602  14.444  22.204  0.00  0.00    +0.000 F 
ATOM     21  C   UNL     1      -1.192  12.253  22.969  0.00  0.00    +0.000 A 
ATOM     22  C   UNL     1      -0.802  10.945  22.692  0.00  0.00    +0.000 A 
ATOM     23  F   UNL     1      -0.774  10.063  23.703  0.00  0.00    +0.000 F 
ENDBRANCH  13  16
ENDBRANCH   1  14
BRANCH  11  24
ATOM     24  C   UNL     1       3.595   3.893  17.095  0.00  0.00    +0.000 C 
BRANCH  24  25
ATOM     25  C   UNL     1       5.080   4.077  16.914  0.00  0.00    +0.000 C 
ATOM     26  C   UNL     1       5.615   5.278  16.164  0.00  0.00    +0.000 C 
ATOM     27  C   UNL     1       5.889   3.893  15.649  0.00  0.00    +0.000 C 
ENDBRANCH  24  25
ENDBRANCH  11  24
TORSDOF 4
ENDMDL
MODEL 5
REMARK VINA RESULT:      -8.0      1.375      1.479
REMARK  Name = 
REMARK  4 active torsions:
REMARK  status: ('A' for Active; 'I' for Inactive)
REMARK    1  A    between atoms: C_2  and  C_19
REMARK    2  A    between atoms: N_3  and  C_4
REMARK    3  A    between atoms: N_14  and  C_15
REMARK    4  A    between atoms: C_15  and  C_16
REMARK                            x       y       z     vdW  Elec       q    Type
REMARK                         _______ _______ _______ _____ _____    ______ ____
ROOT
ATOM      1  C   UNL     1       1.742   7.703  20.225  0.00  0.00    +0.000 A 
ATOM      2  C   UNL     1       2.344   7.731  18.970  0.00  0.00    +0.000 A 
ATOM      3  C   UNL     1       2.723   6.553  18.328  0.00  0.00    +0.000 A 
ATOM      4  C   UNL     1       2.479   5.311  18.915  0.00  0.00    +0.000 A 
ATOM      5  C   UNL     1       1.921   5.282  20.207  0.00  0.00    +0.000 A 
ATOM      6  C   UNL     1       1.586   6.475  20.871  0.00  0.00    +0.000 A 
ATOM      7  C   UNL     1       1.697   3.951  20.861  0.00  0.00    +0.000 C 
ATOM      8  C   UNL     1       1.166   2.998  19.817  0.00  0.00    +0.000 C 
ATOM      9  C   UNL     1       2.101   2.902  18.628  0.00  0.00    +0.000 C 
ATOM     10  O   UNL     1       2.177   1.840  18.005  0.00  0.00    +0.000 OA
ATOM     11  N   UNL     1       2.738   4.082  18.230  0.00  0.00    +0.000 N 
ENDROOT
BRANCH   1  14
ATOM     12  O   UNL     1       0.002   9.779  19.150  0.00  0.00    +0.000 OA
ATOM     13  C   UNL     1       0.471   9.837  20.284  0.00  0.00    +0.000 C 
ATOM     14  N   UNL     1       1.274   8.872  20.870  0.00  0.00    +0.000 N 
ATOM     15  H   UNL     1       1.460   8.946  21.865  0.00  0.00    +0.000 HD
BRANCH  13  16
ATOM     16  C   UNL     1       0.114  11.026  21.101  0.00  0.00    +0.000 A 
ATOM     17  C   UNL     1      -0.762  10.836  22.184  0.00  0.00    +0.000 A 
ATOM     18  C   UNL     1      -1.174  11.916  22.961  0.00  0.00    +0.000 A 
ATOM     19  C   UNL     1      -0.705  13.187  22.654  0.00  0.00    +0.000 A 
ATOM     20  F   UNL     1      -1.111  14.231  23.395  0.00  0.00    +0.000 F 
ATOM     21  C   UNL     1       0.166  13.400  21.597  0.00  0.00    +0.000 A 
ATOM     22  C   UNL     1       0.577  12.316  20.826  0.00  0.00    +0.000 A 
ATOM     23  F   UNL     1       1.427  12.544  19.812  0.00  0.00    +0.000 F 
ENDBRANCH  13  16
ENDBRANCH   1  14
BRANCH  11  24
ATOM     24  C   UNL     1       3.406   4.082  16.926  0.00  0.00    +0.000 C 
BRANCH  24  25
ATOM     25  C   UNL     1       4.911   4.152  16.905  0.00  0.00    +0.000 C 
ATOM     26  C   UNL     1       5.613   5.284  16.186  0.00  0.00    +0.000 C 
ATOM     27  C   UNL     1       5.836   3.865  15.743  0.00  0.00    +0.000 C 
ENDBRANCH  24  25
ENDBRANCH  11  24
TORSDOF 4
ENDMDL
MODEL 6
REMARK VINA RESULT:      -8.0      1.441      1.930
REMARK  Name = 
REMARK  4 active torsions:
REMARK  status: ('A' for Active; 'I' for Inactive)
REMARK    1  A    between atoms: C_2  and  C_19
REMARK    2  A    between atoms: N_3  and  C_4
REMARK    3  A    between atoms: N_14  and  C_15
REMARK    4  A    between atoms: C_15  and  C_16
REMARK                            x       y       z     vdW  Elec       q    Type
REMARK                         _______ _______ _______ _____ _____    ______ ____
ROOT
ATOM      1  C   UNL     1       1.541   8.510  19.525  0.00  0.00    +0.000 A 
ATOM      2  C   UNL     1       2.255   8.671  18.341  0.00  0.00    +0.000 A 
ATOM      3  C   UNL     1       3.058   7.647  17.840  0.00  0.00    +0.000 A 
ATOM      4  C   UNL     1       3.141   6.420  18.500  0.00  0.00    +0.000 A 
ATOM      5  C   UNL     1       2.464   6.274  19.726  0.00  0.00    +0.000 A 
ATOM      6  C   UNL     1       1.695   7.328  20.250  0.00  0.00    +0.000 A 
ATOM      7  C   UNL     1       2.587   4.972  20.461  0.00  0.00    +0.000 C 
ATOM      8  C   UNL     1       2.512   3.853  19.449  0.00  0.00    +0.000 C 
ATOM      9  C   UNL     1       3.571   4.006  18.376  0.00  0.00    +0.000 C 
ATOM     10  O   UNL     1       4.049   2.996  17.854  0.00  0.00    +0.000 OA
ATOM     11  N   UNL     1       3.853   5.308  17.949  0.00  0.00    +0.000 N 
ENDROOT
BRANCH   1  14
ATOM     12  O   UNL     1       1.633   9.886  22.093  0.00  0.00    +0.000 OA
ATOM     13  C   UNL     1       0.743  10.088  21.270  0.00  0.00    +0.000 C 
ATOM     14  N   UNL     1       0.657   9.497  20.020  0.00  0.00    +0.000 N 
ATOM     15  H   UNL     1      -0.023   9.868  19.363  0.00  0.00    +0.000 HD
BRANCH  13  16
ATOM     16  C   UNL     1      -0.304  11.077  21.639  0.00  0.00    +0.000 A 
ATOM     17  C   UNL     1      -0.478  12.189  20.799  0.00  0.00    +0.000 A 
ATOM     18  C   UNL     1      -1.409  13.176  21.112  0.00  0.00    +0.000 A 
ATOM     19  C   UNL     1      -2.168  13.047  22.269  0.00  0.00    +0.000 A 
ATOM     20  F   UNL     1      -3.057  14.004  22.579  0.00  0.00    +0.000 F 
ATOM     21  C   UNL     1      -2.022  11.955  23.110  0.00  0.00    +0.000 A 
ATOM     22  C   UNL     1      -1.092  10.969  22.790  0.00  0.00    +0.000 A 
ATOM     23  F   UNL     1      -0.971   9.917  23.614  0.00  0.00    +0.000 F 
ENDBRANCH  13  16
ENDBRANCH   1  14
BRANCH  11  24
ATOM     24  C   UNL     1       4.644   5.460  16.725  0.00  0.00    +0.000 C 
BRANCH  24  25
ATOM     25  C   UNL     1       6.130   5.665  16.869  0.00  0.00    +0.000 C 
ATOM     26  C   UNL     1       7.097   4.606  16.384  0.00  0.00    +0.000 C 
ATOM     27  C   UNL     1       7.070   4.984  17.838  0.00  0.00    +0.000 C 
ENDBRANCH  24  25
ENDBRANCH  11  24
TORSDOF 4
ENDMDL
MODEL 7
REMARK VINA RESULT:      -8.0      0.924      1.054
REMARK  Name = 
REMARK  4 active torsions:
REMARK  status: ('A' for Active; 'I' for Inactive)
REMARK    1  A    between atoms: C_2  and  C_19
REMARK    2  A    between atoms: N_3  and  C_4
REMARK    3  A    between atoms: N_14  and  C_15
REMARK    4  A    between atoms: C_15  and  C_16
REMARK                            x       y       z     vdW  Elec       q    Type
REMARK                         _______ _______ _______ _____ _____    ______ ____
ROOT
ATOM      1  C   UNL     1       1.536   8.085  19.888  0.00  0.00    +0.000 A 
ATOM      2  C   UNL     1       2.224   8.129  18.678  0.00  0.00    +0.000 A 
ATOM      3  C   UNL     1       2.885   7.004  18.186  0.00  0.00    +0.000 A 
ATOM      4  C   UNL     1       2.847   5.795  18.881  0.00  0.00    +0.000 A 
ATOM      5  C   UNL     1       2.199   5.763  20.130  0.00  0.00    +0.000 A 
ATOM      6  C   UNL     1       1.576   6.913  20.645  0.00  0.00    +0.000 A 
ATOM      7  C   UNL     1       2.194   4.476  20.901  0.00  0.00    +0.000 C 
ATOM      8  C   UNL     1       1.955   3.346  19.928  0.00  0.00    +0.000 C 
ATOM      9  C   UNL     1       2.988   3.344  18.819  0.00  0.00    +0.000 C 
ATOM     10  O   UNL     1       3.328   2.271  18.314  0.00  0.00    +0.000 OA
ATOM     11  N   UNL     1       3.405   4.592  18.343  0.00  0.00    +0.000 N 
ENDROOT
BRANCH   1  14
ATOM     12  O   UNL     1       1.756   9.398  22.481  0.00  0.00    +0.000 OA
ATOM     13  C   UNL     1       0.927   9.738  21.640  0.00  0.00    +0.000 C 
ATOM     14  N   UNL     1       0.790   9.183  20.378  0.00  0.00    +0.000 N 
ATOM     15  H   UNL     1       0.189   9.656  19.712  0.00  0.00    +0.000 HD
BRANCH  13  16
ATOM     16  C   UNL     1       0.024  10.862  22.001  0.00  0.00    +0.000 A 
ATOM     17  C   UNL     1      -1.000  10.606  22.928  0.00  0.00    +0.000 A 
ATOM     18  C   UNL     1      -1.910  11.601  23.275  0.00  0.00    +0.000 A 
ATOM     19  C   UNL     1      -1.791  12.857  22.691  0.00  0.00    +0.000 A 
ATOM     20  F   UNL     1      -2.675  13.815  23.015  0.00  0.00    +0.000 F 
ATOM     21  C   UNL     1      -0.786  13.138  21.781  0.00  0.00    +0.000 A 
ATOM     22  C   UNL     1       0.123  12.139  21.441  0.00  0.00    +0.000 A 
ATOM     23  F   UNL     1       1.094  12.435  20.562  0.00  0.00    +0.000 F 
ENDBRANCH  13  16
ENDBRANCH   1  14
BRANCH  11  24
ATOM     24  C   UNL     1       4.167   4.617  17.092  0.00  0.00    +0.000 C 
BRANCH  24  25
ATOM     25  C   UNL     1       5.670   4.678  17.184  0.00  0.00    +0.000 C 
ATOM     26  C   UNL     1       6.427   5.831  16.560  0.00  0.00    +0.000 C 
ATOM     27  C   UNL     1       6.676   4.428  16.082  0.00  0.00    +0.000 C 
ENDBRANCH  24  25
ENDBRANCH  11  24
TORSDOF 4
ENDMDL
MODEL 8
REMARK VINA RESULT:      -7.9      1.019      1.124
REMARK  Name = 
REMARK  4 active torsions:
REMARK  status: ('A' for Active; 'I' for Inactive)
REMARK    1  A    between atoms: C_2  and  C_19
REMARK    2  A    between atoms: N_3  and  C_4
REMARK    3  A    between atoms: N_14  and  C_15
REMARK    4  A    between atoms: C_15  and  C_16
REMARK                            x       y       z     vdW  Elec       q    Type
REMARK                         _______ _______ _______ _____ _____    ______ ____
ROOT
ATOM      1  C   UNL     1       1.716   7.874  19.797  0.00  0.00    +0.000 A 
ATOM      2  C   UNL     1       2.223   7.703  18.510  0.00  0.00    +0.000 A 
ATOM      3  C   UNL     1       2.704   6.465  18.086  0.00  0.00    +0.000 A 
ATOM      4  C   UNL     1       2.663   5.356  18.933  0.00  0.00    +0.000 A 
ATOM      5  C   UNL     1       2.203   5.539  20.250  0.00  0.00    +0.000 A 
ATOM      6  C   UNL     1       1.764   6.801  20.688  0.00  0.00    +0.000 A 
ATOM      7  C   UNL     1       2.198   4.360  21.177  0.00  0.00    +0.000 C 
ATOM      8  C   UNL     1       1.723   3.154  20.401  0.00  0.00    +0.000 C 
ATOM      9  C   UNL     1       2.579   2.914  19.174  0.00  0.00    +0.000 C 
ATOM     10  O   UNL     1       2.747   1.760  18.773  0.00  0.00    +0.000 OA
ATOM     11  N   UNL     1       3.030   4.047  18.487  0.00  0.00    +0.000 N 
ENDROOT
BRANCH   1  14
ATOM     12  O   UNL     1      -0.627   8.265  21.485  0.00  0.00    +0.000 OA
ATOM     13  C   UNL     1       0.008   9.205  21.013  0.00  0.00    +0.000 C 
ATOM     14  N   UNL     1       1.148   9.093  20.234  0.00  0.00    +0.000 N 
ATOM     15  H   UNL     1       1.681   9.935  20.045  0.00  0.00    +0.000 HD
BRANCH  13  16
ATOM     16  C   UNL     1      -0.472  10.573  21.339  0.00  0.00    +0.000 A 
ATOM     17  C   UNL     1      -0.729  10.872  22.688  0.00  0.00    +0.000 A 
ATOM     18  C   UNL     1      -1.226  12.120  23.057  0.00  0.00    +0.000 A 
ATOM     19  C   UNL     1      -1.463  13.071  22.072  0.00  0.00    +0.000 A 
ATOM     20  F   UNL     1      -1.953  14.270  22.424  0.00  0.00    +0.000 F 
ATOM     21  C   UNL     1      -1.209  12.805  20.735  0.00  0.00    +0.000 A 
ATOM     22  C   UNL     1      -0.710  11.556  20.373  0.00  0.00    +0.000 A 
ATOM     23  F   UNL     1      -0.465  11.322  19.074  0.00  0.00    +0.000 F 
ENDBRANCH  13  16
ENDBRANCH   1  14
BRANCH  11  24
ATOM     24  C   UNL     1       3.601   3.845  17.154  0.00  0.00    +0.000 C 
BRANCH  24  25
ATOM     25  C   UNL     1       5.071   4.124  16.967  0.00  0.00    +0.000 C 
ATOM     26  C   UNL     1       5.525   5.245  16.057  0.00  0.00    +0.000 C 
ATOM     27  C   UNL     1       5.922   3.828  15.753  0.00  0.00    +0.000 C 
ENDBRANCH  24  25
ENDBRANCH  11  24
TORSDOF 4
ENDMDL
MODEL 9
REMARK VINA RESULT:      -7.9      3.751      8.976
REMARK  Name = 
REMARK  4 active torsions:
REMARK  status: ('A' for Active; 'I' for Inactive)
REMARK    1  A    between atoms: C_2  and  C_19
REMARK    2  A    between atoms: N_3  and  C_4
REMARK    3  A    between atoms: N_14  and  C_15
REMARK    4  A    between atoms: C_15  and  C_16
REMARK                            x       y       z     vdW  Elec       q    Type
REMARK                         _______ _______ _______ _____ _____    ______ ____
ROOT
ATOM      1  C   UNL     1       1.779   8.701  18.646  0.00  0.00    +0.000 A 
ATOM      2  C   UNL     1       1.019   9.350  17.676  0.00  0.00    +0.000 A 
ATOM      3  C   UNL     1      -0.080  10.133  18.029  0.00  0.00    +0.000 A 
ATOM      4  C   UNL     1      -0.427  10.310  19.369  0.00  0.00    +0.000 A 
ATOM      5  C   UNL     1       0.305   9.610  20.347  0.00  0.00    +0.000 A 
ATOM      6  C   UNL     1       1.382   8.783  19.982  0.00  0.00    +0.000 A 
ATOM      7  C   UNL     1      -0.093   9.762  21.785  0.00  0.00    +0.000 C 
ATOM      8  C   UNL     1      -0.430  11.215  22.028  0.00  0.00    +0.000 C 
ATOM      9  C   UNL     1      -1.510  11.698  21.081  0.00  0.00    +0.000 C 
ATOM     10  O   UNL     1      -2.297  12.569  21.459  0.00  0.00    +0.000 OA
ATOM     11  N   UNL     1      -1.468  11.205  19.772  0.00  0.00    +0.000 N 
ENDROOT
BRANCH   1  14
ATOM     12  O   UNL     1       2.004   5.860  18.036  0.00  0.00    +0.000 OA
ATOM     13  C   UNL     1       2.982   6.602  18.082  0.00  0.00    +0.000 C 
ATOM     14  N   UNL     1       2.945   7.964  18.330  0.00  0.00    +0.000 N 
ATOM     15  H   UNL     1       3.792   8.501  18.174  0.00  0.00    +0.000 HD
BRANCH  13  16
ATOM     16  C   UNL     1       4.307   5.986  17.811  0.00  0.00    +0.000 A 
ATOM     17  C   UNL     1       4.863   6.166  16.534  0.00  0.00    +0.000 A 
ATOM     18  C   UNL     1       6.080   5.577  16.199  0.00  0.00    +0.000 A 
ATOM     19  C   UNL     1       6.742   4.808  17.148  0.00  0.00    +0.000 A 
ATOM     20  F   UNL     1       7.909   4.228  16.823  0.00  0.00    +0.000 F 
ATOM     21  C   UNL     1       6.219   4.621  18.418  0.00  0.00    +0.000 A 
ATOM     22  C   UNL     1       5.004   5.216  18.748  0.00  0.00    +0.000 A 
ATOM     23  F   UNL     1       4.520   5.029  19.986  0.00  0.00    +0.000 F 
ENDBRANCH  13  16
ENDBRANCH   1  14
BRANCH  11  24
ATOM     24  C   UNL     1      -2.308  11.871  18.773  0.00  0.00    +0.000 C 
BRANCH  24  25
ATOM     25  C   UNL     1      -3.512  11.127  18.257  0.00  0.00    +0.000 C 
ATOM     26  C   UNL     1      -3.549  10.633  16.827  0.00  0.00    +0.000 C 
ATOM     27  C   UNL     1      -4.570  11.629  17.299  0.00  0.00    +0.000 C 
ENDBRANCH  24  25
ENDBRANCH  11  24
TORSDOF 4
ENDMDL
