MODEL 1
REMARK VINA RESULT:      -6.8      0.000      0.000
REMARK  Name = 
REMARK  4 active torsions:
REMARK  status: ('A' for Active; 'I' for Inactive)
REMARK    1  A    between atoms: C_1  and  C_2
REMARK    2  A    between atoms: C_4  and  C_5
REMARK    3  A    between atoms: N_8  and  C_9
REMARK    4  A    between atoms: C_16  and  C_17
REMARK                            x       y       z     vdW  Elec       q    Type
REMARK                         _______ _______ _______ _____ _____    ______ ____
ROOT
ATOM      1  C   UNL     1      -3.532  12.656  20.786  0.00  0.00    +0.000 A 
ATOM      2  N   UNL     1      -3.687  13.316  21.965  0.00  0.00    +0.000 NA
ATOM      3  C   UNL     1      -4.910  13.603  22.414  0.00  0.00    +0.000 A 
ATOM      4  N   UNL     1      -6.061  13.296  21.836  0.00  0.00    +0.000 NA
ATOM      5  C   UNL     1      -5.900  12.641  20.675  0.00  0.00    +0.000 A 
ATOM      6  S   UNL     1      -7.288  12.201  19.799  0.00  0.00    +0.000 S 
ATOM      7  C   UNL     1      -6.351  11.538  18.549  0.00  0.00    +0.000 A 
ATOM      8  C   UNL     1      -4.982  11.622  18.771  0.00  0.00    +0.000 A 
ATOM      9  C   UNL     1      -4.702  12.277  20.061  0.00  0.00    +0.000 A 
ENDROOT
BRANCH   1  13
ATOM     10  C   UNL     1       0.114  12.140  18.872  0.00  0.00    +0.000 C 
ATOM     11  C   UNL     1      -0.845  13.317  18.571  0.00  0.00    +0.000 C 
ATOM     12  C   UNL     1      -1.630  13.759  19.789  0.00  0.00    +0.000 C 
ATOM     13  N   UNL     1      -2.240  12.531  20.292  0.00  0.00    +0.000 N 
ATOM     14  C   UNL     1      -1.290  11.748  21.070  0.00  0.00    +0.000 C 
ATOM     15  C   UNL     1      -0.167  11.278  20.136  0.00  0.00    +0.000 C 
BRANCH  10  19
ATOM     16  C   UNL     1       4.200  14.903  19.869  0.00  0.00    +0.000 C 
ATOM     17  C   UNL     1       3.281  13.910  19.276  0.00  0.00    +0.000 A 
ATOM     18  C   UNL     1       2.205  13.273  19.919  0.00  0.00    +0.000 A 
ATOM     19  C   UNL     1       1.498  12.691  18.897  0.00  0.00    +0.000 A 
ATOM     20  N   UNL     1       2.261  12.834  17.773  0.00  0.00    +0.000 N 
ATOM     21  N   UNL     1       3.338  13.604  17.975  0.00  0.00    +0.000 NA
ATOM     22  H   UNL     1       2.066  12.514  16.828  0.00  0.00    +0.000 HD
ENDBRANCH  10  19
ENDBRANCH   1  13
BRANCH   8  23
ATOM     23  C   UNL     1      -4.109  11.082  17.723  0.00  0.00    +0.000 A 
ATOM     24  C   UNL     1      -3.040  10.241  18.030  0.00  0.00    +0.000 A 
ATOM     25  C   UNL     1      -2.217   9.726  17.014  0.00  0.00    +0.000 A 
ATOM     26  C   UNL     1      -2.437  10.071  15.682  0.00  0.00    +0.000 A 
ATOM     27  C   UNL     1      -3.454  10.963  15.366  0.00  0.00    +0.000 A 
ATOM     28  C   UNL     1      -4.287  11.457  16.376  0.00  0.00    +0.000 A 
ENDBRANCH   8  23
TORSDOF 3
ENDMDL
MODEL 2
REMARK VINA RESULT:      -6.3      3.073      6.948
REMARK  Name = 
REMARK  4 active torsions:
REMARK  status: ('A' for Active; 'I' for Inactive)
REMARK    1  A    between atoms: C_1  and  C_2
REMARK    2  A    between atoms: C_4  and  C_5
REMARK    3  A    between atoms: N_8  and  C_9
REMARK    4  A    between atoms: C_16  and  C_17
REMARK                            x       y       z     vdW  Elec       q    Type
REMARK                         _______ _______ _______ _____ _____    ______ ____
ROOT
ATOM      1  C   UNL     1       1.574  13.580  20.023  0.00  0.00    +0.000 A 
ATOM      2  N   UNL     1       2.710  13.686  19.282  0.00  0.00    +0.000 NA
ATOM      3  C   UNL     1       3.631  14.596  19.599  0.00  0.00    +0.000 A 
ATOM      4  N   UNL     1       3.589  15.451  20.610  0.00  0.00    +0.000 NA
ATOM      5  C   UNL     1       2.467  15.337  21.338  0.00  0.00    +0.000 A 
ATOM      6  S   UNL     1       2.255  16.386  22.658  0.00  0.00    +0.000 S 
ATOM      7  C   UNL     1       0.727  15.731  22.998  0.00  0.00    +0.000 A 
ATOM      8  C   UNL     1       0.354  14.706  22.137  0.00  0.00    +0.000 A 
ATOM      9  C   UNL     1       1.407  14.454  21.139  0.00  0.00    +0.000 A 
ENDROOT
BRANCH   1  13
ATOM     10  C   UNL     1      -1.607  11.091  19.066  0.00  0.00    +0.000 C 
ATOM     11  C   UNL     1      -1.738  12.629  19.191  0.00  0.00    +0.000 C 
ATOM     12  C   UNL     1      -0.478  13.359  18.772  0.00  0.00    +0.000 C 
ATOM     13  N   UNL     1       0.584  12.728  19.550  0.00  0.00    +0.000 N 
ATOM     14  C   UNL     1       1.001  11.468  18.951  0.00  0.00    +0.000 C 
ATOM     15  C   UNL     1      -0.175  10.485  19.017  0.00  0.00    +0.000 C 
BRANCH  10  19
ATOM     16  C   UNL     1      -3.085   9.937  14.396  0.00  0.00    +0.000 C 
ATOM     17  C   UNL     1      -3.088  10.213  15.847  0.00  0.00    +0.000 A 
ATOM     18  C   UNL     1      -2.027  10.001  16.744  0.00  0.00    +0.000 A 
ATOM     19  C   UNL     1      -2.406  10.675  17.879  0.00  0.00    +0.000 A 
ATOM     20  N   UNL     1      -3.699  11.065  17.680  0.00  0.00    +0.000 N 
ATOM     21  N   UNL     1      -4.125  10.824  16.433  0.00  0.00    +0.000 NA
ATOM     22  H   UNL     1      -4.312  11.576  18.309  0.00  0.00    +0.000 HD
ENDBRANCH  10  19
ENDBRANCH   1  13
BRANCH   8  23
ATOM     23  C   UNL     1      -0.965  14.103  22.362  0.00  0.00    +0.000 A 
ATOM     24  C   UNL     1      -2.139  14.834  22.181  0.00  0.00    +0.000 A 
ATOM     25  C   UNL     1      -3.394  14.239  22.394  0.00  0.00    +0.000 A 
ATOM     26  C   UNL     1      -3.488  12.917  22.819  0.00  0.00    +0.000 A 
ATOM     27  C   UNL     1      -2.328  12.196  23.073  0.00  0.00    +0.000 A 
ATOM     28  C   UNL     1      -1.078  12.781  22.838  0.00  0.00    +0.000 A 
ENDBRANCH   8  23
TORSDOF 3
ENDMDL
MODEL 3
REMARK VINA RESULT:      -6.3      2.900      5.353
REMARK  Name = 
REMARK  4 active torsions:
REMARK  status: ('A' for Active; 'I' for Inactive)
REMARK    1  A    between atoms: C_1  and  C_2
REMARK    2  A    between atoms: C_4  and  C_5
REMARK    3  A    between atoms: N_8  and  C_9
REMARK    4  A    between atoms: C_16  and  C_17
REMARK                            x       y       z     vdW  Elec       q    Type
REMARK                         _______ _______ _______ _____ _____    ______ ____
ROOT
ATOM      1  C   UNL     1      -4.283  12.296  19.354  0.00  0.00    +0.000 A 
ATOM      2  N   UNL     1      -5.545  12.709  19.059  0.00  0.00    +0.000 NA
ATOM      3  C   UNL     1      -6.039  12.521  17.835  0.00  0.00    +0.000 A 
ATOM      4  N   UNL     1      -5.433  11.936  16.813  0.00  0.00    +0.000 NA
ATOM      5  C   UNL     1      -4.190  11.528  17.114  0.00  0.00    +0.000 A 
ATOM      6  S   UNL     1      -3.271  10.780  15.895  0.00  0.00    +0.000 S 
ATOM      7  C   UNL     1      -1.932  10.627  16.927  0.00  0.00    +0.000 A 
ATOM      8  C   UNL     1      -2.154  11.122  18.207  0.00  0.00    +0.000 A 
ATOM      9  C   UNL     1      -3.521  11.656  18.331  0.00  0.00    +0.000 A 
ENDROOT
BRANCH   1  13
ATOM     10  C   UNL     1      -2.356  13.073  22.947  0.00  0.00    +0.000 C 
ATOM     11  C   UNL     1      -1.845  13.587  21.580  0.00  0.00    +0.000 C 
ATOM     12  C   UNL     1      -2.970  13.885  20.609  0.00  0.00    +0.000 C 
ATOM     13  N   UNL     1      -3.767  12.662  20.590  0.00  0.00    +0.000 N 
ATOM     14  C   UNL     1      -4.653  12.592  21.744  0.00  0.00    +0.000 C 
ATOM     15  C   UNL     1      -3.795  12.485  23.011  0.00  0.00    +0.000 C 
BRANCH  10  19
ATOM     16  C   UNL     1      -0.486  16.272  26.352  0.00  0.00    +0.000 C 
ATOM     17  C   UNL     1      -1.411  15.558  25.449  0.00  0.00    +0.000 A 
ATOM     18  C   UNL     1      -1.084  14.944  24.227  0.00  0.00    +0.000 A 
ATOM     19  C   UNL     1      -2.186  14.182  23.928  0.00  0.00    +0.000 A 
ATOM     20  N   UNL     1      -3.146  14.521  24.839  0.00  0.00    +0.000 N 
ATOM     21  N   UNL     1      -2.683  15.335  25.797  0.00  0.00    +0.000 NA
ATOM     22  H   UNL     1      -4.096  14.171  24.920  0.00  0.00    +0.000 HD
ENDBRANCH  10  19
ENDBRANCH   1  13
BRANCH   8  23
ATOM     23  C   UNL     1      -1.033  11.037  19.150  0.00  0.00    +0.000 A 
ATOM     24  C   UNL     1       0.083  11.866  19.029  0.00  0.00    +0.000 A 
ATOM     25  C   UNL     1       1.145  11.776  19.944  0.00  0.00    +0.000 A 
ATOM     26  C   UNL     1       1.117  10.837  20.973  0.00  0.00    +0.000 A 
ATOM     27  C   UNL     1       0.046   9.957  21.065  0.00  0.00    +0.000 A 
ATOM     28  C   UNL     1      -1.022  10.062  20.167  0.00  0.00    +0.000 A 
ENDBRANCH   8  23
TORSDOF 3
ENDMDL
MODEL 4
REMARK VINA RESULT:      -6.3      3.372      7.113
REMARK  Name = 
REMARK  4 active torsions:
REMARK  status: ('A' for Active; 'I' for Inactive)
REMARK    1  A    between atoms: C_1  and  C_2
REMARK    2  A    between atoms: C_4  and  C_5
REMARK    3  A    between atoms: N_8  and  C_9
REMARK    4  A    between atoms: C_16  and  C_17
REMARK                            x       y       z     vdW  Elec       q    Type
REMARK                         _______ _______ _______ _____ _____    ______ ____
ROOT
ATOM      1  C   UNL     1       0.494  14.843  21.759  0.00  0.00    +0.000 A 
ATOM      2  N   UNL     1       0.845  15.764  22.696  0.00  0.00    +0.000 NA
ATOM      3  C   UNL     1       2.075  16.280  22.698  0.00  0.00    +0.000 A 
ATOM      4  N   UNL     1       3.052  16.009  21.845  0.00  0.00    +0.000 NA
ATOM      5  C   UNL     1       2.696  15.102  20.922  0.00  0.00    +0.000 A 
ATOM      6  S   UNL     1       3.854  14.629  19.771  0.00  0.00    +0.000 S 
ATOM      7  C   UNL     1       2.776  13.524  19.066  0.00  0.00    +0.000 A 
ATOM      8  C   UNL     1       1.525  13.499  19.672  0.00  0.00    +0.000 A 
ATOM      9  C   UNL     1       1.466  14.460  20.786  0.00  0.00    +0.000 A 
ENDROOT
BRANCH   1  13
ATOM     10  C   UNL     1      -2.971  12.573  22.025  0.00  0.00    +0.000 C 
ATOM     11  C   UNL     1      -1.770  12.408  22.988  0.00  0.00    +0.000 C 
ATOM     12  C   UNL     1      -1.039  13.711  23.241  0.00  0.00    +0.000 C 
ATOM     13  N   UNL     1      -0.740  14.225  21.907  0.00  0.00    +0.000 N 
ATOM     14  C   UNL     1      -1.902  14.879  21.321  0.00  0.00    +0.000 C 
ATOM     15  C   UNL     1      -2.996  13.826  21.103  0.00  0.00    +0.000 C 
BRANCH  10  19
ATOM     16  C   UNL     1      -7.366  13.569  24.262  0.00  0.00    +0.000 C 
ATOM     17  C   UNL     1      -6.101  12.916  23.871  0.00  0.00    +0.000 A 
ATOM     18  C   UNL     1      -5.464  13.001  22.621  0.00  0.00    +0.000 A 
ATOM     19  C   UNL     1      -4.211  12.486  22.846  0.00  0.00    +0.000 A 
ATOM     20  N   UNL     1      -4.233  11.961  24.106  0.00  0.00    +0.000 N 
ATOM     21  N   UNL     1      -5.366  12.241  24.762  0.00  0.00    +0.000 NA
ATOM     22  H   UNL     1      -3.488  11.485  24.608  0.00  0.00    +0.000 HD
ENDBRANCH  10  19
ENDBRANCH   1  13
BRANCH   8  23
ATOM     23  C   UNL     1       0.546  12.554  19.123  0.00  0.00    +0.000 A 
ATOM     24  C   UNL     1      -0.562  12.994  18.399  0.00  0.00    +0.000 A 
ATOM     25  C   UNL     1      -1.487  12.076  17.875  0.00  0.00    +0.000 A 
ATOM     26  C   UNL     1      -1.330  10.709  18.094  0.00  0.00    +0.000 A 
ATOM     27  C   UNL     1      -0.272  10.259  18.872  0.00  0.00    +0.000 A 
ATOM     28  C   UNL     1       0.663  11.172  19.375  0.00  0.00    +0.000 A 
ENDBRANCH   8  23
TORSDOF 3
ENDMDL
MODEL 5
REMARK VINA RESULT:      -6.2      2.884      5.195
REMARK  Name = 
REMARK  4 active torsions:
REMARK  status: ('A' for Active; 'I' for Inactive)
REMARK    1  A    between atoms: C_1  and  C_2
REMARK    2  A    between atoms: C_4  and  C_5
REMARK    3  A    between atoms: N_8  and  C_9
REMARK    4  A    between atoms: C_16  and  C_17
REMARK                            x       y       z     vdW  Elec       q    Type
REMARK                         _______ _______ _______ _____ _____    ______ ____
ROOT
ATOM      1  C   UNL     1      -4.568  12.360  19.720  0.00  0.00    +0.000 A 
ATOM      2  N   UNL     1      -5.909  12.574  19.650  0.00  0.00    +0.000 NA
ATOM      3  C   UNL     1      -6.566  12.329  18.516  0.00  0.00    +0.000 A 
ATOM      4  N   UNL     1      -6.057  11.862  17.387  0.00  0.00    +0.000 NA
ATOM      5  C   UNL     1      -4.733  11.649  17.465  0.00  0.00    +0.000 A 
ATOM      6  S   UNL     1      -3.928  11.073  16.084  0.00  0.00    +0.000 S 
ATOM      7  C   UNL     1      -2.429  11.117  16.878  0.00  0.00    +0.000 A 
ATOM      8  C   UNL     1      -2.506  11.552  18.195  0.00  0.00    +0.000 A 
ATOM      9  C   UNL     1      -3.898  11.863  18.561  0.00  0.00    +0.000 A 
ENDROOT
BRANCH   1  13
ATOM     10  C   UNL     1      -2.204  13.395  22.971  0.00  0.00    +0.000 C 
ATOM     11  C   UNL     1      -2.048  14.032  21.569  0.00  0.00    +0.000 C 
ATOM     12  C   UNL     1      -3.363  14.137  20.824  0.00  0.00    +0.000 C 
ATOM     13  N   UNL     1      -3.915  12.785  20.869  0.00  0.00    +0.000 N 
ATOM     14  C   UNL     1      -4.553  12.518  22.151  0.00  0.00    +0.000 C 
ATOM     15  C   UNL     1      -3.477  12.543  23.244  0.00  0.00    +0.000 C 
BRANCH  10  19
ATOM     16  C   UNL     1      -0.480  16.487  26.547  0.00  0.00    +0.000 C 
ATOM     17  C   UNL     1      -1.358  15.821  25.564  0.00  0.00    +0.000 A 
ATOM     18  C   UNL     1      -0.960  15.199  24.368  0.00  0.00    +0.000 A 
ATOM     19  C   UNL     1      -2.066  14.489  23.973  0.00  0.00    +0.000 A 
ATOM     20  N   UNL     1      -3.082  14.867  24.804  0.00  0.00    +0.000 N 
ATOM     21  N   UNL     1      -2.664  15.653  25.804  0.00  0.00    +0.000 NA
ATOM     22  H   UNL     1      -4.051  14.560  24.803  0.00  0.00    +0.000 HD
ENDBRANCH  10  19
ENDBRANCH   1  13
BRANCH   8  23
ATOM     23  C   UNL     1      -1.244  11.630  18.939  0.00  0.00    +0.000 A 
ATOM     24  C   UNL     1      -0.978  10.779  20.012  0.00  0.00    +0.000 A 
ATOM     25  C   UNL     1       0.238  10.862  20.710  0.00  0.00    +0.000 A 
ATOM     26  C   UNL     1       1.190  11.817  20.361  0.00  0.00    +0.000 A 
ATOM     27  C   UNL     1       0.913  12.718  19.342  0.00  0.00    +0.000 A 
ATOM     28  C   UNL     1      -0.289  12.620  18.632  0.00  0.00    +0.000 A 
ENDBRANCH   8  23
TORSDOF 3
ENDMDL
MODEL 6
REMARK VINA RESULT:      -6.2      3.595      7.073
REMARK  Name = 
REMARK  4 active torsions:
REMARK  status: ('A' for Active; 'I' for Inactive)
REMARK    1  A    between atoms: C_1  and  C_2
REMARK    2  A    between atoms: C_4  and  C_5
REMARK    3  A    between atoms: N_8  and  C_9
REMARK    4  A    between atoms: C_16  and  C_17
REMARK                            x       y       z     vdW  Elec       q    Type
REMARK                         _______ _______ _______ _____ _____    ______ ____
ROOT
ATOM      1  C   UNL     1      -0.201  15.129  19.768  0.00  0.00    +0.000 A 
ATOM      2  N   UNL     1      -0.466  16.461  19.712  0.00  0.00    +0.000 NA
ATOM      3  C   UNL     1       0.400  17.289  19.127  0.00  0.00    +0.000 A 
ATOM      4  N   UNL     1       1.544  16.963  18.545  0.00  0.00    +0.000 NA
ATOM      5  C   UNL     1       1.795  15.645  18.601  0.00  0.00    +0.000 A 
ATOM      6  S   UNL     1       3.243  15.073  17.918  0.00  0.00    +0.000 S 
ATOM      7  C   UNL     1       2.898  13.481  18.398  0.00  0.00    +0.000 A 
ATOM      8  C   UNL     1       1.687  13.348  19.066  0.00  0.00    +0.000 A 
ATOM      9  C   UNL     1       1.009  14.650  19.181  0.00  0.00    +0.000 A 
ENDROOT
BRANCH   1  13
ATOM     10  C   UNL     1      -2.343  12.624  22.292  0.00  0.00    +0.000 C 
ATOM     11  C   UNL     1      -1.714  13.961  22.753  0.00  0.00    +0.000 C 
ATOM     12  C   UNL     1      -1.696  15.009  21.659  0.00  0.00    +0.000 C 
ATOM     13  N   UNL     1      -1.057  14.342  20.528  0.00  0.00    +0.000 N 
ATOM     14  C   UNL     1      -1.996  13.482  19.822  0.00  0.00    +0.000 C 
ATOM     15  C   UNL     1      -2.419  12.346  20.763  0.00  0.00    +0.000 C 
BRANCH  10  19
ATOM     16  C   UNL     1      -6.994  13.621  23.934  0.00  0.00    +0.000 C 
ATOM     17  C   UNL     1      -5.699  12.955  23.690  0.00  0.00    +0.000 A 
ATOM     18  C   UNL     1      -4.887  13.089  22.551  0.00  0.00    +0.000 A 
ATOM     19  C   UNL     1      -3.690  12.528  22.921  0.00  0.00    +0.000 A 
ATOM     20  N   UNL     1      -3.903  11.936  24.133  0.00  0.00    +0.000 N 
ATOM     21  N   UNL     1      -5.113  12.212  24.637  0.00  0.00    +0.000 NA
ATOM     22  H   UNL     1      -3.248  11.413  24.708  0.00  0.00    +0.000 HD
ENDBRANCH  10  19
ENDBRANCH   1  13
BRANCH   8  23
ATOM     23  C   UNL     1       1.332  12.001  19.524  0.00  0.00    +0.000 A 
ATOM     24  C   UNL     1       1.091  10.965  18.620  0.00  0.00    +0.000 A 
ATOM     25  C   UNL     1       0.757   9.679  19.075  0.00  0.00    +0.000 A 
ATOM     26  C   UNL     1       0.633   9.420  20.438  0.00  0.00    +0.000 A 
ATOM     27  C   UNL     1       0.800  10.456  21.349  0.00  0.00    +0.000 A 
ATOM     28  C   UNL     1       1.155  11.732  20.896  0.00  0.00    +0.000 A 
ENDBRANCH   8  23
TORSDOF 3
ENDMDL
MODEL 7
REMARK VINA RESULT:      -6.1      3.276      6.129
REMARK  Name = 
REMARK  4 active torsions:
REMARK  status: ('A' for Active; 'I' for Inactive)
REMARK    1  A    between atoms: C_1  and  C_2
REMARK    2  A    between atoms: C_4  and  C_5
REMARK    3  A    between atoms: N_8  and  C_9
REMARK    4  A    between atoms: C_16  and  C_17
REMARK                            x       y       z     vdW  Elec       q    Type
REMARK                         _______ _______ _______ _____ _____    ______ ____
ROOT
ATOM      1  C   UNL     1      -3.774  12.692  20.185  0.00  0.00    +0.000 A 
ATOM      2  N   UNL     1      -2.762  12.288  19.372  0.00  0.00    +0.000 NA
ATOM      3  C   UNL     1      -3.026  11.549  18.293  0.00  0.00    +0.000 A 
ATOM      4  N   UNL     1      -4.218  11.148  17.877  0.00  0.00    +0.000 NA
ATOM      5  C   UNL     1      -5.211  11.555  18.683  0.00  0.00    +0.000 A 
ATOM      6  S   UNL     1      -6.801  11.095  18.294  0.00  0.00    +0.000 S 
ATOM      7  C   UNL     1      -7.415  11.861  19.679  0.00  0.00    +0.000 A 
ATOM      8  C   UNL     1      -6.442  12.485  20.450  0.00  0.00    +0.000 A 
ATOM      9  C   UNL     1      -5.109  12.316  19.847  0.00  0.00    +0.000 A 
ENDROOT
BRANCH   1  13
ATOM     10  C   UNL     1      -3.016  14.213  23.972  0.00  0.00    +0.000 C 
ATOM     11  C   UNL     1      -2.421  12.881  23.455  0.00  0.00    +0.000 C 
ATOM     12  C   UNL     1      -2.155  12.896  21.964  0.00  0.00    +0.000 C 
ATOM     13  N   UNL     1      -3.424  13.318  21.374  0.00  0.00    +0.000 N 
ATOM     14  C   UNL     1      -3.591  14.762  21.456  0.00  0.00    +0.000 C 
ATOM     15  C   UNL     1      -3.692  15.157  22.936  0.00  0.00    +0.000 C 
BRANCH  10  19
ATOM     16  C   UNL     1      -0.476  17.224  27.103  0.00  0.00    +0.000 C 
ATOM     17  C   UNL     1      -0.806  16.259  26.035  0.00  0.00    +0.000 A 
ATOM     18  C   UNL     1      -1.899  15.376  26.011  0.00  0.00    +0.000 A 
ATOM     19  C   UNL     1      -1.936  14.921  24.716  0.00  0.00    +0.000 A 
ATOM     20  N   UNL     1      -0.798  15.378  24.116  0.00  0.00    +0.000 N 
ATOM     21  N   UNL     1      -0.109  16.224  24.893  0.00  0.00    +0.000 NA
ATOM     22  H   UNL     1      -0.478  15.229  23.163  0.00  0.00    +0.000 HD
ENDBRANCH  10  19
ENDBRANCH   1  13
BRANCH   8  23
ATOM     23  C   UNL     1      -6.899  13.155  21.673  0.00  0.00    +0.000 A 
ATOM     24  C   UNL     1      -7.426  14.447  21.640  0.00  0.00    +0.000 A 
ATOM     25  C   UNL     1      -7.865  15.072  22.819  0.00  0.00    +0.000 A 
ATOM     26  C   UNL     1      -7.756  14.424  24.047  0.00  0.00    +0.000 A 
ATOM     27  C   UNL     1      -7.169  13.167  24.107  0.00  0.00    +0.000 A 
ATOM     28  C   UNL     1      -6.753  12.535  22.929  0.00  0.00    +0.000 A 
ENDBRANCH   8  23
TORSDOF 3
ENDMDL
MODEL 8
REMARK VINA RESULT:      -6.1     10.587     13.116
REMARK  Name = 
REMARK  4 active torsions:
REMARK  status: ('A' for Active; 'I' for Inactive)
REMARK    1  A    between atoms: C_1  and  C_2
REMARK    2  A    between atoms: C_4  and  C_5
REMARK    3  A    between atoms: N_8  and  C_9
REMARK    4  A    between atoms: C_16  and  C_17
REMARK                            x       y       z     vdW  Elec       q    Type
REMARK                         _______ _______ _______ _____ _____    ______ ____
ROOT
ATOM      1  C   UNL     1      10.602  14.432  18.155  0.00  0.00    +0.000 A 
ATOM      2  N   UNL     1      11.245  14.704  16.988  0.00  0.00    +0.000 NA
ATOM      3  C   UNL     1      11.521  15.965  16.656  0.00  0.00    +0.000 A 
ATOM      4  N   UNL     1      11.251  17.051  17.363  0.00  0.00    +0.000 NA
ATOM      5  C   UNL     1      10.620  16.774  18.516  0.00  0.00    +0.000 A 
ATOM      6  S   UNL     1      10.181  18.070  19.524  0.00  0.00    +0.000 S 
ATOM      7  C   UNL     1       9.446  17.021  20.638  0.00  0.00    +0.000 A 
ATOM      8  C   UNL     1       9.528  15.680  20.281  0.00  0.00    +0.000 A 
ATOM      9  C   UNL     1      10.248  15.523  19.005  0.00  0.00    +0.000 A 
ENDROOT
BRANCH   1  13
ATOM     10  C   UNL     1       9.185  10.680  19.225  0.00  0.00    +0.000 C 
ATOM     11  C   UNL     1       8.270  11.825  18.726  0.00  0.00    +0.000 C 
ATOM     12  C   UNL     1       8.954  12.724  17.717  0.00  0.00    +0.000 C 
ATOM     13  N   UNL     1      10.199  13.121  18.369  0.00  0.00    +0.000 N 
ATOM     14  C   UNL     1      11.207  12.075  18.263  0.00  0.00    +0.000 C 
ATOM     15  C   UNL     1      10.721  10.850  19.049  0.00  0.00    +0.000 C 
BRANCH  10  19
ATOM     16  C   UNL     1       6.413   7.206  16.866  0.00  0.00    +0.000 C 
ATOM     17  C   UNL     1       7.503   7.875  17.604  0.00  0.00    +0.000 A 
ATOM     18  C   UNL     1       7.867   9.230  17.518  0.00  0.00    +0.000 A 
ATOM     19  C   UNL     1       8.708   9.422  18.586  0.00  0.00    +0.000 A 
ATOM     20  N   UNL     1       8.950   8.185  19.110  0.00  0.00    +0.000 N 
ATOM     21  N   UNL     1       8.198   7.230  18.547  0.00  0.00    +0.000 NA
ATOM     22  H   UNL     1       9.538   7.934  19.901  0.00  0.00    +0.000 HD
ENDBRANCH  10  19
ENDBRANCH   1  13
BRANCH   8  23
ATOM     23  C   UNL     1       8.899  14.716  21.190  0.00  0.00    +0.000 A 
ATOM     24  C   UNL     1       9.633  13.683  21.775  0.00  0.00    +0.000 A 
ATOM     25  C   UNL     1       9.018  12.772  22.649  0.00  0.00    +0.000 A 
ATOM     26  C   UNL     1       7.656  12.865  22.926  0.00  0.00    +0.000 A 
ATOM     27  C   UNL     1       6.897  13.844  22.298  0.00  0.00    +0.000 A 
ATOM     28  C   UNL     1       7.514  14.766  21.445  0.00  0.00    +0.000 A 
ENDBRANCH   8  23
TORSDOF 3
ENDMDL
MODEL 9
REMARK VINA RESULT:      -6.1      3.170      4.999
REMARK  Name = 
REMARK  4 active torsions:
REMARK  status: ('A' for Active; 'I' for Inactive)
REMARK    1  A    between atoms: C_1  and  C_2
REMARK    2  A    between atoms: C_4  and  C_5
REMARK    3  A    between atoms: N_8  and  C_9
REMARK    4  A    between atoms: C_16  and  C_17
REMARK                            x       y       z     vdW  Elec       q    Type
REMARK                         _______ _______ _______ _____ _____    ______ ____
ROOT
ATOM      1  C   UNL     1      -2.431  12.906  22.342  0.00  0.00    +0.000 A 
ATOM      2  N   UNL     1      -3.072  12.022  23.152  0.00  0.00    +0.000 NA
ATOM      3  C   UNL     1      -3.803  12.463  24.176  0.00  0.00    +0.000 A 
ATOM      4  N   UNL     1      -4.011  13.726  24.519  0.00  0.00    +0.000 NA
ATOM      5  C   UNL     1      -3.377  14.592  23.712  0.00  0.00    +0.000 A 
ATOM      6  S   UNL     1      -3.526  16.253  24.041  0.00  0.00    +0.000 S 
ATOM      7  C   UNL     1      -2.494  16.652  22.754  0.00  0.00    +0.000 A 
ATOM      8  C   UNL     1      -2.030  15.549  22.047  0.00  0.00    +0.000 A 
ATOM      9  C   UNL     1      -2.570  14.301  22.613  0.00  0.00    +0.000 A 
ENDROOT
BRANCH   1  13
ATOM     10  C   UNL     1       0.509  11.700  19.671  0.00  0.00    +0.000 C 
ATOM     11  C   UNL     1       0.583  11.435  21.194  0.00  0.00    +0.000 C 
ATOM     12  C   UNL     1      -0.781  11.224  21.819  0.00  0.00    +0.000 C 
ATOM     13  N   UNL     1      -1.558  12.385  21.395  0.00  0.00    +0.000 N 
ATOM     14  C   UNL     1      -2.051  12.223  20.035  0.00  0.00    +0.000 C 
ATOM     15  C   UNL     1      -0.848  12.184  19.083  0.00  0.00    +0.000 C 
BRANCH  10  19
ATOM     16  C   UNL     1       2.591   7.237  18.639  0.00  0.00    +0.000 C 
ATOM     17  C   UNL     1       1.923   8.546  18.497  0.00  0.00    +0.000 A 
ATOM     18  C   UNL     1       1.108   9.181  19.450  0.00  0.00    +0.000 A 
ATOM     19  C   UNL     1       0.981  10.465  18.983  0.00  0.00    +0.000 A 
ATOM     20  N   UNL     1       1.532  10.476  17.734  0.00  0.00    +0.000 N 
ATOM     21  N   UNL     1       2.143   9.323  17.430  0.00  0.00    +0.000 NA
ATOM     22  H   UNL     1       1.608  11.250  17.080  0.00  0.00    +0.000 HD
ENDBRANCH  10  19
ENDBRANCH   1  13
BRANCH   8  23
ATOM     23  C   UNL     1      -1.119  15.818  20.929  0.00  0.00    +0.000 A 
ATOM     24  C   UNL     1       0.203  15.370  20.944  0.00  0.00    +0.000 A 
ATOM     25  C   UNL     1       1.061  15.631  19.863  0.00  0.00    +0.000 A 
ATOM     26  C   UNL     1       0.615  16.366  18.767  0.00  0.00    +0.000 A 
ATOM     27  C   UNL     1      -0.675  16.879  18.766  0.00  0.00    +0.000 A 
ATOM     28  C   UNL     1      -1.537  16.600  19.834  0.00  0.00    +0.000 A 
ENDBRANCH   8  23
TORSDOF 3
ENDMDL
