MODEL 1
REMARK VINA RESULT:      -9.6      0.000      0.000
REMARK  Name = 
REMARK  6 active torsions:
REMARK  status: ('A' for Active; 'I' for Inactive)
REMARK    1  A    between atoms: C_1  and  O_2
REMARK    2  A    between atoms: O_2  and  C_3
REMARK    3  A    between atoms: C_6  and  S_7
REMARK    4  A    between atoms: S_7  and  N_10
REMARK    5  A    between atoms: C_17  and  N_18
REMARK    6  A    between atoms: C_19  and  C_21
REMARK                            x       y       z     vdW  Elec       q    Type
REMARK                         _______ _______ _______ _____ _____    ______ ____
ROOT
ATOM      1  C   UNL     1       2.629   4.527  18.011  0.00  0.00    +0.000 A 
ATOM      2  C   UNL     1       3.343   3.584  17.232  0.00  0.00    +0.000 A 
ATOM      3  C   UNL     1       4.592   3.860  16.700  0.00  0.00    +0.000 A 
ATOM      4  C   UNL     1       5.136   5.118  16.895  0.00  0.00    +0.000 A 
ATOM      5  C   UNL     1       4.463   6.068  17.680  0.00  0.00    +0.000 A 
ATOM      6  C   UNL     1       3.180   5.820  18.231  0.00  0.00    +0.000 A 
ENDROOT
BRANCH   6   7
ATOM      7  N   UNL     1       2.495   6.851  18.978  0.00  0.00    +0.000 N 
ATOM      8  C   UNL     1       2.163   8.142  18.487  0.00  0.00    +0.000 C 
ATOM      9  O   UNL     1       2.409   8.518  17.342  0.00  0.00    +0.000 OA
ATOM     10  H   UNL     1       2.140   6.603  19.901  0.00  0.00    +0.000 HD
BRANCH   8  11
ATOM     11  C   UNL     1       1.418   9.024  19.391  0.00  0.00    +0.000 A 
ATOM     12  C   UNL     1       0.958  10.347  19.273  0.00  0.00    +0.000 A 
ATOM     13  C   UNL     1       0.303  10.658  20.508  0.00  0.00    +0.000 A 
ATOM     14  C   UNL     1      -0.347  11.767  21.109  0.00  0.00    +0.000 A 
ATOM     15  C   UNL     1      -0.846  11.617  22.421  0.00  0.00    +0.000 A 
ATOM     16  C   UNL     1      -0.750  10.405  23.108  0.00  0.00    +0.000 A 
ATOM     17  C   UNL     1      -0.152   9.298  22.513  0.00  0.00    +0.000 A 
ATOM     18  C   UNL     1       0.374   9.482  21.245  0.00  0.00    +0.000 A 
ATOM     19  O   UNL     1       1.035   8.516  20.578  0.00  0.00    +0.000 OA
ENDBRANCH   8  11
ENDBRANCH   6   7
BRANCH   4  20
ATOM     20  S   UNL     1       6.778   5.430  16.240  0.00  0.00    +0.000 S 
ATOM     21  O   UNL     1       7.042   6.855  16.411  0.00  0.00    +0.000 OA
ATOM     22  O   UNL     1       7.647   4.442  16.833  0.00  0.00    +0.000 OA
BRANCH  20  23
ATOM     23  N   UNL     1       6.666   5.090  14.560  0.00  0.00    +0.000 NA
ATOM     24  C   UNL     1       7.834   5.504  13.740  0.00  0.00    +0.000 C 
ATOM     25  C   UNL     1       7.636   5.252  12.248  0.00  0.00    +0.000 C 
ATOM     26  C   UNL     1       7.152   3.837  11.978  0.00  0.00    +0.000 C 
ATOM     27  C   UNL     1       5.838   3.619  12.709  0.00  0.00    +0.000 C 
ATOM     28  C   UNL     1       5.988   3.820  14.213  0.00  0.00    +0.000 C 
ENDBRANCH  20  23
ENDBRANCH   4  20
BRANCH   1  30
ATOM     29  C   UNL     1       1.220   2.755  18.707  0.00  0.00    +0.000 C 
ATOM     30  O   UNL     1       1.387   4.178  18.512  0.00  0.00    +0.000 OA
ENDBRANCH   1  30
TORSDOF 5
ENDMDL
MODEL 2
REMARK VINA RESULT:      -9.6      4.597      7.627
REMARK  Name = 
REMARK  6 active torsions:
REMARK  status: ('A' for Active; 'I' for Inactive)
REMARK    1  A    between atoms: C_1  and  O_2
REMARK    2  A    between atoms: O_2  and  C_3
REMARK    3  A    between atoms: C_6  and  S_7
REMARK    4  A    between atoms: S_7  and  N_10
REMARK    5  A    between atoms: C_17  and  N_18
REMARK    6  A    between atoms: C_19  and  C_21
REMARK                            x       y       z     vdW  Elec       q    Type
REMARK                         _______ _______ _______ _____ _____    ______ ____
ROOT
ATOM      1  C   UNL     1       6.513   5.507  15.831  0.00  0.00    +0.000 A 
ATOM      2  C   UNL     1       5.787   4.315  15.588  0.00  0.00    +0.000 A 
ATOM      3  C   UNL     1       4.568   4.056  16.191  0.00  0.00    +0.000 A 
ATOM      4  C   UNL     1       4.067   4.971  17.102  0.00  0.00    +0.000 A 
ATOM      5  C   UNL     1       4.752   6.172  17.349  0.00  0.00    +0.000 A 
ATOM      6  C   UNL     1       6.007   6.463  16.755  0.00  0.00    +0.000 A 
ENDROOT
BRANCH   6   7
ATOM      7  N   UNL     1       6.708   7.683  17.090  0.00  0.00    +0.000 N 
ATOM      8  C   UNL     1       7.743   7.799  18.055  0.00  0.00    +0.000 C 
ATOM      9  O   UNL     1       8.178   6.849  18.705  0.00  0.00    +0.000 OA
ATOM     10  H   UNL     1       6.507   8.507  16.525  0.00  0.00    +0.000 HD
BRANCH   8  11
ATOM     11  C   UNL     1       8.363   9.119  18.207  0.00  0.00    +0.000 A 
ATOM     12  C   UNL     1       8.300  10.300  17.447  0.00  0.00    +0.000 A 
ATOM     13  C   UNL     1       9.145  11.251  18.107  0.00  0.00    +0.000 A 
ATOM     14  C   UNL     1       9.585  12.584  17.914  0.00  0.00    +0.000 A 
ATOM     15  C   UNL     1      10.481  13.135  18.856  0.00  0.00    +0.000 A 
ATOM     16  C   UNL     1      10.900  12.414  19.977  0.00  0.00    +0.000 A 
ATOM     17  C   UNL     1      10.442  11.120  20.199  0.00  0.00    +0.000 A 
ATOM     18  C   UNL     1       9.602  10.583  19.237  0.00  0.00    +0.000 A 
ATOM     19  O   UNL     1       9.136   9.321  19.292  0.00  0.00    +0.000 OA
ENDBRANCH   8  11
ENDBRANCH   6   7
BRANCH   4  20
ATOM     20  S   UNL     1       2.461   4.635  17.828  0.00  0.00    +0.000 S 
ATOM     21  O   UNL     1       1.793   5.921  17.999  0.00  0.00    +0.000 OA
ATOM     22  O   UNL     1       1.863   3.595  17.028  0.00  0.00    +0.000 OA
BRANCH  20  23
ATOM     23  N   UNL     1       2.795   3.979  19.379  0.00  0.00    +0.000 NA
ATOM     24  C   UNL     1       1.690   4.071  20.369  0.00  0.00    +0.000 C 
ATOM     25  C   UNL     1       2.080   3.548  21.749  0.00  0.00    +0.000 C 
ATOM     26  C   UNL     1       2.733   2.179  21.666  0.00  0.00    +0.000 C 
ATOM     27  C   UNL     1       3.971   2.276  20.792  0.00  0.00    +0.000 C 
ATOM     28  C   UNL     1       3.633   2.758  19.385  0.00  0.00    +0.000 C 
ENDBRANCH  20  23
ENDBRANCH   4  20
BRANCH   1  30
ATOM     29  C   UNL     1       7.738   5.216  13.825  0.00  0.00    +0.000 C 
ATOM     30  O   UNL     1       7.724   5.697  15.189  0.00  0.00    +0.000 OA
ENDBRANCH   1  30
TORSDOF 5
ENDMDL
MODEL 3
REMARK VINA RESULT:      -9.5      4.310      7.406
REMARK  Name = 
REMARK  6 active torsions:
REMARK  status: ('A' for Active; 'I' for Inactive)
REMARK    1  A    between atoms: C_1  and  O_2
REMARK    2  A    between atoms: O_2  and  C_3
REMARK    3  A    between atoms: C_6  and  S_7
REMARK    4  A    between atoms: S_7  and  N_10
REMARK    5  A    between atoms: C_17  and  N_18
REMARK    6  A    between atoms: C_19  and  C_21
REMARK                            x       y       z     vdW  Elec       q    Type
REMARK                         _______ _______ _______ _____ _____    ______ ____
ROOT
ATOM      1  C   UNL     1       6.901   5.158  15.190  0.00  0.00    +0.000 A 
ATOM      2  C   UNL     1       6.345   3.898  14.861  0.00  0.00    +0.000 A 
ATOM      3  C   UNL     1       5.290   3.348  15.570  0.00  0.00    +0.000 A 
ATOM      4  C   UNL     1       4.797   4.032  16.667  0.00  0.00    +0.000 A 
ATOM      5  C   UNL     1       5.312   5.294  17.007  0.00  0.00    +0.000 A 
ATOM      6  C   UNL     1       6.398   5.880  16.307  0.00  0.00    +0.000 A 
ENDROOT
BRANCH   6   7
ATOM      7  N   UNL     1       6.939   7.151  16.732  0.00  0.00    +0.000 N 
ATOM      8  C   UNL     1       7.730   7.363  17.892  0.00  0.00    +0.000 C 
ATOM      9  O   UNL     1       8.066   6.463  18.662  0.00  0.00    +0.000 OA
ATOM     10  H   UNL     1       6.821   7.944  16.103  0.00  0.00    +0.000 HD
BRANCH   8  11
ATOM     11  C   UNL     1       8.227   8.724  18.118  0.00  0.00    +0.000 A 
ATOM     12  C   UNL     1       8.105   9.921  17.391  0.00  0.00    +0.000 A 
ATOM     13  C   UNL     1       8.830  10.915  18.124  0.00  0.00    +0.000 A 
ATOM     14  C   UNL     1       9.165  12.287  17.995  0.00  0.00    +0.000 A 
ATOM     15  C   UNL     1       9.960  12.877  19.002  0.00  0.00    +0.000 A 
ATOM     16  C   UNL     1      10.377  12.157  20.123  0.00  0.00    +0.000 A 
ATOM     17  C   UNL     1      10.020  10.822  20.281  0.00  0.00    +0.000 A 
ATOM     18  C   UNL     1       9.281  10.250  19.258  0.00  0.00    +0.000 A 
ATOM     19  O   UNL     1       8.921   8.952  19.250  0.00  0.00    +0.000 OA
ENDBRANCH   8  11
ENDBRANCH   6   7
BRANCH   4  20
ATOM     20  S   UNL     1       3.395   3.322  17.535  0.00  0.00    +0.000 S 
ATOM     21  O   UNL     1       2.268   3.336  16.608  0.00  0.00    +0.000 OA
ATOM     22  O   UNL     1       3.859   2.085  18.113  0.00  0.00    +0.000 OA
BRANCH  20  23
ATOM     23  N   UNL     1       3.060   4.410  18.821  0.00  0.00    +0.000 NA
ATOM     24  C   UNL     1       2.546   5.745  18.418  0.00  0.00    +0.000 C 
ATOM     25  C   UNL     1       2.351   6.691  19.599  0.00  0.00    +0.000 C 
ATOM     26  C   UNL     1       1.568   6.032  20.722  0.00  0.00    +0.000 C 
ATOM     27  C   UNL     1       2.315   4.793  21.182  0.00  0.00    +0.000 C 
ATOM     28  C   UNL     1       2.505   3.793  20.047  0.00  0.00    +0.000 C 
ENDBRANCH  20  23
ENDBRANCH   4  20
BRANCH   1  30
ATOM     29  C   UNL     1       7.915   5.222  13.050  0.00  0.00    +0.000 C 
ATOM     30  O   UNL     1       7.953   5.644  14.433  0.00  0.00    +0.000 OA
ENDBRANCH   1  30
TORSDOF 5
ENDMDL
MODEL 4
REMARK VINA RESULT:      -9.4      0.604      1.151
REMARK  Name = 
REMARK  6 active torsions:
REMARK  status: ('A' for Active; 'I' for Inactive)
REMARK    1  A    between atoms: C_1  and  O_2
REMARK    2  A    between atoms: O_2  and  C_3
REMARK    3  A    between atoms: C_6  and  S_7
REMARK    4  A    between atoms: S_7  and  N_10
REMARK    5  A    between atoms: C_17  and  N_18
REMARK    6  A    between atoms: C_19  and  C_21
REMARK                            x       y       z     vdW  Elec       q    Type
REMARK                         _______ _______ _______ _____ _____    ______ ____
ROOT
ATOM      1  C   UNL     1       2.780   4.189  18.081  0.00  0.00    +0.000 A 
ATOM      2  C   UNL     1       3.487   3.356  17.180  0.00  0.00    +0.000 A 
ATOM      3  C   UNL     1       4.704   3.724  16.631  0.00  0.00    +0.000 A 
ATOM      4  C   UNL     1       5.221   4.972  16.936  0.00  0.00    +0.000 A 
ATOM      5  C   UNL     1       4.556   5.813  17.842  0.00  0.00    +0.000 A 
ATOM      6  C   UNL     1       3.304   5.469  18.414  0.00  0.00    +0.000 A 
ENDROOT
BRANCH   6   7
ATOM      7  N   UNL     1       2.623   6.395  19.291  0.00  0.00    +0.000 N 
ATOM      8  C   UNL     1       2.201   7.704  18.939  0.00  0.00    +0.000 C 
ATOM      9  O   UNL     1       2.352   8.190  17.818  0.00  0.00    +0.000 OA
ATOM     10  H   UNL     1       2.343   6.050  20.208  0.00  0.00    +0.000 HD
BRANCH   8  11
ATOM     11  C   UNL     1       1.477   8.466  19.962  0.00  0.00    +0.000 A 
ATOM     12  C   UNL     1       1.257   8.257  21.334  0.00  0.00    +0.000 A 
ATOM     13  C   UNL     1       0.454   9.354  21.786  0.00  0.00    +0.000 A 
ATOM     14  C   UNL     1      -0.163   9.786  22.987  0.00  0.00    +0.000 A 
ATOM     15  C   UNL     1      -0.915  10.981  22.959  0.00  0.00    +0.000 A 
ATOM     16  C   UNL     1      -1.023  11.751  21.799  0.00  0.00    +0.000 A 
ATOM     17  C   UNL     1      -0.388  11.359  20.626  0.00  0.00    +0.000 A 
ATOM     18  C   UNL     1       0.304  10.160  20.663  0.00  0.00    +0.000 A 
ATOM     19  O   UNL     1       0.912   9.629  19.585  0.00  0.00    +0.000 OA
ENDBRANCH   8  11
ENDBRANCH   6   7
BRANCH   4  20
ATOM     20  S   UNL     1       6.825   5.402  16.253  0.00  0.00    +0.000 S 
ATOM     21  O   UNL     1       6.999   6.838  16.445  0.00  0.00    +0.000 OA
ATOM     22  O   UNL     1       7.769   4.464  16.811  0.00  0.00    +0.000 OA
BRANCH  20  23
ATOM     23  N   UNL     1       6.700   5.084  14.570  0.00  0.00    +0.000 NA
ATOM     24  C   UNL     1       7.851   5.530  13.743  0.00  0.00    +0.000 C 
ATOM     25  C   UNL     1       7.639   5.296  12.250  0.00  0.00    +0.000 C 
ATOM     26  C   UNL     1       7.177   3.876  11.965  0.00  0.00    +0.000 C 
ATOM     27  C   UNL     1       5.877   3.624  12.708  0.00  0.00    +0.000 C 
ATOM     28  C   UNL     1       6.041   3.807  14.213  0.00  0.00    +0.000 C 
ENDBRANCH  20  23
ENDBRANCH   4  20
BRANCH   1  30
ATOM     29  C   UNL     1       1.708   2.803  19.673  0.00  0.00    +0.000 C 
ATOM     30  O   UNL     1       1.571   3.751  18.590  0.00  0.00    +0.000 OA
ENDBRANCH   1  30
TORSDOF 5
ENDMDL
MODEL 5
REMARK VINA RESULT:      -9.1      4.504      7.553
REMARK  Name = 
REMARK  6 active torsions:
REMARK  status: ('A' for Active; 'I' for Inactive)
REMARK    1  A    between atoms: C_1  and  O_2
REMARK    2  A    between atoms: O_2  and  C_3
REMARK    3  A    between atoms: C_6  and  S_7
REMARK    4  A    between atoms: S_7  and  N_10
REMARK    5  A    between atoms: C_17  and  N_18
REMARK    6  A    between atoms: C_19  and  C_21
REMARK                            x       y       z     vdW  Elec       q    Type
REMARK                         _______ _______ _______ _____ _____    ______ ____
ROOT
ATOM      1  C   UNL     1       6.526   5.555  15.781  0.00  0.00    +0.000 A 
ATOM      2  C   UNL     1       5.807   4.368  15.500  0.00  0.00    +0.000 A 
ATOM      3  C   UNL     1       4.593   4.079  16.100  0.00  0.00    +0.000 A 
ATOM      4  C   UNL     1       4.091   4.957  17.044  0.00  0.00    +0.000 A 
ATOM      5  C   UNL     1       4.768   6.154  17.330  0.00  0.00    +0.000 A 
ATOM      6  C   UNL     1       6.017   6.475  16.740  0.00  0.00    +0.000 A 
ENDROOT
BRANCH   6   7
ATOM      7  N   UNL     1       6.711   7.687  17.114  0.00  0.00    +0.000 N 
ATOM      8  C   UNL     1       7.740   7.780  18.088  0.00  0.00    +0.000 C 
ATOM      9  O   UNL     1       8.177   6.813  18.712  0.00  0.00    +0.000 OA
ATOM     10  H   UNL     1       6.510   8.527  16.573  0.00  0.00    +0.000 HD
BRANCH   8  11
ATOM     11  C   UNL     1       8.354   9.098  18.281  0.00  0.00    +0.000 A 
ATOM     12  C   UNL     1       9.427   9.548  19.068  0.00  0.00    +0.000 A 
ATOM     13  C   UNL     1       9.535  10.958  18.838  0.00  0.00    +0.000 A 
ATOM     14  C   UNL     1      10.325  12.045  19.290  0.00  0.00    +0.000 A 
ATOM     15  C   UNL     1      10.046  13.331  18.779  0.00  0.00    +0.000 A 
ATOM     16  C   UNL     1       9.051  13.539  17.823  0.00  0.00    +0.000 A 
ATOM     17  C   UNL     1       8.296  12.475  17.341  0.00  0.00    +0.000 A 
ATOM     18  C   UNL     1       8.554  11.230  17.891  0.00  0.00    +0.000 A 
ATOM     19  O   UNL     1       7.857  10.125  17.564  0.00  0.00    +0.000 OA
ENDBRANCH   8  11
ENDBRANCH   6   7
BRANCH   4  20
ATOM     20  S   UNL     1       2.490   4.584  17.766  0.00  0.00    +0.000 S 
ATOM     21  O   UNL     1       1.785   5.853  17.920  0.00  0.00    +0.000 OA
ATOM     22  O   UNL     1       1.925   3.519  16.974  0.00  0.00    +0.000 OA
BRANCH  20  23
ATOM     23  N   UNL     1       2.834   3.954  19.326  0.00  0.00    +0.000 NA
ATOM     24  C   UNL     1       1.751   4.101  20.334  0.00  0.00    +0.000 C 
ATOM     25  C   UNL     1       2.152   3.599  21.718  0.00  0.00    +0.000 C 
ATOM     26  C   UNL     1       2.763   2.210  21.655  0.00  0.00    +0.000 C 
ATOM     27  C   UNL     1       3.987   2.250  20.757  0.00  0.00    +0.000 C 
ATOM     28  C   UNL     1       3.637   2.710  19.345  0.00  0.00    +0.000 C 
ENDBRANCH  20  23
ENDBRANCH   4  20
BRANCH   1  30
ATOM     29  C   UNL     1       7.766   5.277  13.783  0.00  0.00    +0.000 C 
ATOM     30  O   UNL     1       7.732   5.777  15.140  0.00  0.00    +0.000 OA
ENDBRANCH   1  30
TORSDOF 5
ENDMDL
MODEL 6
REMARK VINA RESULT:      -9.0      4.207      7.356
REMARK  Name = 
REMARK  6 active torsions:
REMARK  status: ('A' for Active; 'I' for Inactive)
REMARK    1  A    between atoms: C_1  and  O_2
REMARK    2  A    between atoms: O_2  and  C_3
REMARK    3  A    between atoms: C_6  and  S_7
REMARK    4  A    between atoms: S_7  and  N_10
REMARK    5  A    between atoms: C_17  and  N_18
REMARK    6  A    between atoms: C_19  and  C_21
REMARK                            x       y       z     vdW  Elec       q    Type
REMARK                         _______ _______ _______ _____ _____    ______ ____
ROOT
ATOM      1  C   UNL     1       6.924   5.162  15.214  0.00  0.00    +0.000 A 
ATOM      2  C   UNL     1       6.370   3.908  14.859  0.00  0.00    +0.000 A 
ATOM      3  C   UNL     1       5.305   3.349  15.546  0.00  0.00    +0.000 A 
ATOM      4  C   UNL     1       4.799   4.016  16.647  0.00  0.00    +0.000 A 
ATOM      5  C   UNL     1       5.312   5.272  17.013  0.00  0.00    +0.000 A 
ATOM      6  C   UNL     1       6.407   5.868  16.336  0.00  0.00    +0.000 A 
ENDROOT
BRANCH   6   7
ATOM      7  N   UNL     1       6.945   7.131  16.788  0.00  0.00    +0.000 N 
ATOM      8  C   UNL     1       7.713   7.326  17.966  0.00  0.00    +0.000 C 
ATOM      9  O   UNL     1       8.030   6.415  18.730  0.00  0.00    +0.000 OA
ATOM     10  H   UNL     1       6.842   7.932  16.166  0.00  0.00    +0.000 HD
BRANCH   8  11
ATOM     11  C   UNL     1       8.211   8.682  18.217  0.00  0.00    +0.000 A 
ATOM     12  C   UNL     1       9.185   9.198  19.088  0.00  0.00    +0.000 A 
ATOM     13  C   UNL     1       9.205  10.615  18.879  0.00  0.00    +0.000 A 
ATOM     14  C   UNL     1       9.876  11.750  19.400  0.00  0.00    +0.000 A 
ATOM     15  C   UNL     1       9.542  13.020  18.882  0.00  0.00    +0.000 A 
ATOM     16  C   UNL     1       8.608  13.169  17.855  0.00  0.00    +0.000 A 
ATOM     17  C   UNL     1       7.973  12.059  17.307  0.00  0.00    +0.000 A 
ATOM     18  C   UNL     1       8.281  10.828  17.863  0.00  0.00    +0.000 A 
ATOM     19  O   UNL     1       7.694   9.680  17.474  0.00  0.00    +0.000 OA
ENDBRANCH   8  11
ENDBRANCH   6   7
BRANCH   4  20
ATOM     20  S   UNL     1       3.385   3.295  17.486  0.00  0.00    +0.000 S 
ATOM     21  O   UNL     1       2.260   3.364  16.560  0.00  0.00    +0.000 OA
ATOM     22  O   UNL     1       3.829   2.029  18.015  0.00  0.00    +0.000 OA
BRANCH  20  23
ATOM     23  N   UNL     1       3.068   4.337  18.814  0.00  0.00    +0.000 NA
ATOM     24  C   UNL     1       2.525   5.676  18.467  0.00  0.00    +0.000 C 
ATOM     25  C   UNL     1       2.346   6.581  19.682  0.00  0.00    +0.000 C 
ATOM     26  C   UNL     1       1.600   5.875  20.802  0.00  0.00    +0.000 C 
ATOM     27  C   UNL     1       2.376   4.633  21.204  0.00  0.00    +0.000 C 
ATOM     28  C   UNL     1       2.552   3.672  20.032  0.00  0.00    +0.000 C 
ENDBRANCH  20  23
ENDBRANCH   4  20
BRANCH   1  30
ATOM     29  C   UNL     1       7.965   5.258  13.088  0.00  0.00    +0.000 C 
ATOM     30  O   UNL     1       7.986   5.658  14.478  0.00  0.00    +0.000 OA
ENDBRANCH   1  30
TORSDOF 5
ENDMDL
MODEL 7
REMARK VINA RESULT:      -9.0      1.065      1.392
REMARK  Name = 
REMARK  6 active torsions:
REMARK  status: ('A' for Active; 'I' for Inactive)
REMARK    1  A    between atoms: C_1  and  O_2
REMARK    2  A    between atoms: O_2  and  C_3
REMARK    3  A    between atoms: C_6  and  S_7
REMARK    4  A    between atoms: S_7  and  N_10
REMARK    5  A    between atoms: C_17  and  N_18
REMARK    6  A    between atoms: C_19  and  C_21
REMARK                            x       y       z     vdW  Elec       q    Type
REMARK                         _______ _______ _______ _____ _____    ______ ____
ROOT
ATOM      1  C   UNL     1       2.817   4.808  18.125  0.00  0.00    +0.000 A 
ATOM      2  C   UNL     1       3.671   3.714  17.843  0.00  0.00    +0.000 A 
ATOM      3  C   UNL     1       4.917   3.879  17.260  0.00  0.00    +0.000 A 
ATOM      4  C   UNL     1       5.317   5.152  16.894  0.00  0.00    +0.000 A 
ATOM      5  C   UNL     1       4.503   6.261  17.179  0.00  0.00    +0.000 A 
ATOM      6  C   UNL     1       3.219   6.125  17.767  0.00  0.00    +0.000 A 
ENDROOT
BRANCH   6   7
ATOM      7  N   UNL     1       2.388   7.288  17.980  0.00  0.00    +0.000 N 
ATOM      8  C   UNL     1       2.025   7.820  19.246  0.00  0.00    +0.000 C 
ATOM      9  O   UNL     1       2.409   7.352  20.317  0.00  0.00    +0.000 OA
ATOM     10  H   UNL     1       2.112   7.824  17.158  0.00  0.00    +0.000 HD
BRANCH   8  11
ATOM     11  C   UNL     1       1.215   9.042  19.245  0.00  0.00    +0.000 A 
ATOM     12  C   UNL     1       0.793   9.910  18.224  0.00  0.00    +0.000 A 
ATOM     13  C   UNL     1       0.030  10.943  18.860  0.00  0.00    +0.000 A 
ATOM     14  C   UNL     1      -0.652  12.130  18.493  0.00  0.00    +0.000 A 
ATOM     15  C   UNL     1      -1.276  12.884  19.511  0.00  0.00    +0.000 A 
ATOM     16  C   UNL     1      -1.267  12.465  20.843  0.00  0.00    +0.000 A 
ATOM     17  C   UNL     1      -0.636  11.280  21.209  0.00  0.00    +0.000 A 
ATOM     18  C   UNL     1       0.010  10.582  20.202  0.00  0.00    +0.000 A 
ATOM     19  O   UNL     1       0.713   9.455  20.425  0.00  0.00    +0.000 OA
ENDBRANCH   8  11
ENDBRANCH   6   7
BRANCH   4  20
ATOM     20  S   UNL     1       6.957   5.344  16.190  0.00  0.00    +0.000 S 
ATOM     21  O   UNL     1       7.341   6.739  16.375  0.00  0.00    +0.000 OA
ATOM     22  O   UNL     1       7.762   4.279  16.738  0.00  0.00    +0.000 OA
BRANCH  20  23
ATOM     23  N   UNL     1       6.765   5.046  14.510  0.00  0.00    +0.000 NA
ATOM     24  C   UNL     1       7.910   5.440  13.649  0.00  0.00    +0.000 C 
ATOM     25  C   UNL     1       7.641   5.228  12.163  0.00  0.00    +0.000 C 
ATOM     26  C   UNL     1       7.101   3.836  11.884  0.00  0.00    +0.000 C 
ATOM     27  C   UNL     1       5.812   3.643  12.665  0.00  0.00    +0.000 C 
ATOM     28  C   UNL     1       6.032   3.806  14.165  0.00  0.00    +0.000 C 
ENDBRANCH  20  23
ENDBRANCH   4  20
BRANCH   1  30
ATOM     29  C   UNL     1       1.587   3.426  19.603  0.00  0.00    +0.000 C 
ATOM     30  O   UNL     1       1.588   4.565  18.712  0.00  0.00    +0.000 OA
ENDBRANCH   1  30
TORSDOF 5
ENDMDL
MODEL 8
REMARK VINA RESULT:      -8.9      0.863      1.519
REMARK  Name = 
REMARK  6 active torsions:
REMARK  status: ('A' for Active; 'I' for Inactive)
REMARK    1  A    between atoms: C_1  and  O_2
REMARK    2  A    between atoms: O_2  and  C_3
REMARK    3  A    between atoms: C_6  and  S_7
REMARK    4  A    between atoms: S_7  and  N_10
REMARK    5  A    between atoms: C_17  and  N_18
REMARK    6  A    between atoms: C_19  and  C_21
REMARK                            x       y       z     vdW  Elec       q    Type
REMARK                         _______ _______ _______ _____ _____    ______ ____
ROOT
ATOM      1  C   UNL     1       2.736   4.430  18.058  0.00  0.00    +0.000 A 
ATOM      2  C   UNL     1       3.509   3.430  17.419  0.00  0.00    +0.000 A 
ATOM      3  C   UNL     1       4.747   3.699  16.858  0.00  0.00    +0.000 A 
ATOM      4  C   UNL     1       5.219   4.999  16.878  0.00  0.00    +0.000 A 
ATOM      5  C   UNL     1       4.487   6.010  17.522  0.00  0.00    +0.000 A 
ATOM      6  C   UNL     1       3.213   5.770  18.099  0.00  0.00    +0.000 A 
ENDROOT
BRANCH   6   7
ATOM      7  N   UNL     1       2.464   6.854  18.693  0.00  0.00    +0.000 N 
ATOM      8  C   UNL     1       2.093   6.946  20.061  0.00  0.00    +0.000 C 
ATOM      9  O   UNL     1       2.396   6.106  20.907  0.00  0.00    +0.000 OA
ATOM     10  H   UNL     1       2.264   7.662  18.105  0.00  0.00    +0.000 HD
BRANCH   8  11
ATOM     11  C   UNL     1       1.379   8.159  20.474  0.00  0.00    +0.000 A 
ATOM     12  C   UNL     1       0.869   8.595  21.708  0.00  0.00    +0.000 A 
ATOM     13  C   UNL     1       0.259   9.869  21.467  0.00  0.00    +0.000 A 
ATOM     14  C   UNL     1      -0.459  10.851  22.195  0.00  0.00    +0.000 A 
ATOM     15  C   UNL     1      -0.910  11.997  21.504  0.00  0.00    +0.000 A 
ATOM     16  C   UNL     1      -0.631  12.193  20.150  0.00  0.00    +0.000 A 
ATOM     17  C   UNL     1       0.108  11.256  19.435  0.00  0.00    +0.000 A 
ATOM     18  C   UNL     1       0.499  10.118  20.120  0.00  0.00    +0.000 A 
ATOM     19  O   UNL     1       1.163   9.102  19.537  0.00  0.00    +0.000 OA
ENDBRANCH   8  11
ENDBRANCH   6   7
BRANCH   4  20
ATOM     20  S   UNL     1       6.849   5.309  16.191  0.00  0.00    +0.000 S 
ATOM     21  O   UNL     1       7.132   6.726  16.388  0.00  0.00    +0.000 OA
ATOM     22  O   UNL     1       7.720   4.299  16.741  0.00  0.00    +0.000 OA
BRANCH  20  23
ATOM     23  N   UNL     1       6.693   5.009  14.507  0.00  0.00    +0.000 NA
ATOM     24  C   UNL     1       7.839   5.443  13.667  0.00  0.00    +0.000 C 
ATOM     25  C   UNL     1       7.602   5.226  12.175  0.00  0.00    +0.000 C 
ATOM     26  C   UNL     1       7.112   3.817  11.885  0.00  0.00    +0.000 C 
ATOM     27  C   UNL     1       5.818   3.580  12.644  0.00  0.00    +0.000 C 
ATOM     28  C   UNL     1       6.007   3.747  14.148  0.00  0.00    +0.000 C 
ENDBRANCH  20  23
ENDBRANCH   4  20
BRANCH   1  30
ATOM     29  C   UNL     1       1.208   2.674  18.496  0.00  0.00    +0.000 C 
ATOM     30  O   UNL     1       1.510   4.085  18.599  0.00  0.00    +0.000 OA
ENDBRANCH   1  30
TORSDOF 5
ENDMDL
MODEL 9
REMARK VINA RESULT:      -8.9      0.966      1.511
REMARK  Name = 
REMARK  6 active torsions:
REMARK  status: ('A' for Active; 'I' for Inactive)
REMARK    1  A    between atoms: C_1  and  O_2
REMARK    2  A    between atoms: O_2  and  C_3
REMARK    3  A    between atoms: C_6  and  S_7
REMARK    4  A    between atoms: S_7  and  N_10
REMARK    5  A    between atoms: C_17  and  N_18
REMARK    6  A    between atoms: C_19  and  C_21
REMARK                            x       y       z     vdW  Elec       q    Type
REMARK                         _______ _______ _______ _____ _____    ______ ____
ROOT
ATOM      1  C   UNL     1       2.703   4.543  18.205  0.00  0.00    +0.000 A 
ATOM      2  C   UNL     1       3.525   3.548  17.621  0.00  0.00    +0.000 A 
ATOM      3  C   UNL     1       4.752   3.844  17.050  0.00  0.00    +0.000 A 
ATOM      4  C   UNL     1       5.164   5.164  17.004  0.00  0.00    +0.000 A 
ATOM      5  C   UNL     1       4.382   6.172  17.593  0.00  0.00    +0.000 A 
ATOM      6  C   UNL     1       3.118   5.904  18.177  0.00  0.00    +0.000 A 
ENDROOT
BRANCH   6   7
ATOM      7  N   UNL     1       2.317   6.982  18.712  0.00  0.00    +0.000 N 
ATOM      8  C   UNL     1       2.189   8.276  18.139  0.00  0.00    +0.000 C 
ATOM      9  O   UNL     1       2.739   8.614  17.092  0.00  0.00    +0.000 OA
ATOM     10  H   UNL     1       1.725   6.772  19.514  0.00  0.00    +0.000 HD
BRANCH   8  11
ATOM     11  C   UNL     1       1.283   9.212  18.811  0.00  0.00    +0.000 A 
ATOM     12  C   UNL     1       1.137   9.610  20.151  0.00  0.00    +0.000 A 
ATOM     13  C   UNL     1       0.057  10.550  20.180  0.00  0.00    +0.000 A 
ATOM     14  C   UNL     1      -0.652  11.315  21.140  0.00  0.00    +0.000 A 
ATOM     15  C   UNL     1      -1.714  12.130  20.692  0.00  0.00    +0.000 A 
ATOM     16  C   UNL     1      -2.043  12.226  19.338  0.00  0.00    +0.000 A 
ATOM     17  C   UNL     1      -1.328  11.513  18.382  0.00  0.00    +0.000 A 
ATOM     18  C   UNL     1      -0.322  10.683  18.849  0.00  0.00    +0.000 A 
ATOM     19  O   UNL     1       0.407   9.888  18.042  0.00  0.00    +0.000 OA
ENDBRANCH   8  11
ENDBRANCH   6   7
BRANCH   4  20
ATOM     20  S   UNL     1       6.781   5.512  16.306  0.00  0.00    +0.000 S 
ATOM     21  O   UNL     1       7.006   6.948  16.446  0.00  0.00    +0.000 OA
ATOM     22  O   UNL     1       7.691   4.563  16.898  0.00  0.00    +0.000 OA
BRANCH  20  23
ATOM     23  N   UNL     1       6.642   5.138  14.636  0.00  0.00    +0.000 NA
ATOM     24  C   UNL     1       7.824   5.473  13.800  0.00  0.00    +0.000 C 
ATOM     25  C   UNL     1       7.604   5.195  12.316  0.00  0.00    +0.000 C 
ATOM     26  C   UNL     1       7.050   3.800  12.084  0.00  0.00    +0.000 C 
ATOM     27  C   UNL     1       5.732   3.664  12.826  0.00  0.00    +0.000 C 
ATOM     28  C   UNL     1       5.901   3.895  14.324  0.00  0.00    +0.000 C 
ENDBRANCH  20  23
ENDBRANCH   4  20
BRANCH   1  30
ATOM     29  C   UNL     1       1.249   2.746  18.719  0.00  0.00    +0.000 C 
ATOM     30  O   UNL     1       1.491   4.171  18.759  0.00  0.00    +0.000 OA
ENDBRANCH   1  30
TORSDOF 5
ENDMDL
