MODEL 1
REMARK VINA RESULT:      -9.2      0.000      0.000
REMARK  Name = 
REMARK  6 active torsions:
REMARK  status: ('A' for Active; 'I' for Inactive)
REMARK    1  A    between atoms: C_2  and  C_16
REMARK    2  A    between atoms: N_3  and  C_4
REMARK    3  A    between atoms: C_8  and  C_9
REMARK    4  A    between atoms: N_11  and  C_12
REMARK    5  A    between atoms: C_19  and  O_20
REMARK    6  A    between atoms: O_20  and  C_21
REMARK                            x       y       z     vdW  Elec       q    Type
REMARK                         _______ _______ _______ _____ _____    ______ ____
ROOT
ATOM      1  O   UNL     1       2.951   5.316  18.430  0.00  0.00    +0.000 OA
ATOM      2  C   UNL     1       3.338   6.475  18.307  0.00  0.00    +0.000 C 
ATOM      3  N   UNL     1       4.597   6.880  17.909  0.00  0.00    +0.000 N 
ATOM      4  H   UNL     1       4.843   7.853  18.054  0.00  0.00    +0.000 HD
ENDROOT
BRANCH   3   5
ATOM      5  C   UNL     1       5.638   6.026  17.476  0.00  0.00    +0.000 A 
ATOM      6  C   UNL     1       6.548   5.420  18.348  0.00  0.00    +0.000 A 
ATOM      7  C   UNL     1       7.571   4.598  17.864  0.00  0.00    +0.000 A 
ATOM      8  C   UNL     1       7.691   4.362  16.495  0.00  0.00    +0.000 A 
ATOM      9  C   UNL     1       6.773   4.940  15.613  0.00  0.00    +0.000 A 
ATOM     10  C   UNL     1       5.753   5.774  16.104  0.00  0.00    +0.000 A 
BRANCH   9  11
ATOM     11  C   UNL     1       6.860   4.737  14.141  0.00  0.00    +0.000 C 
ATOM     12  O   UNL     1       7.588   5.460  13.473  0.00  0.00    +0.000 OA
ATOM     13  N   UNL     1       6.060   3.741  13.610  0.00  0.00    +0.000 N 
ATOM     14  H   UNL     1       5.392   3.267  14.205  0.00  0.00    +0.000 HD
BRANCH  13  15
ATOM     15  C   UNL     1       6.015   3.486  12.205  0.00  0.00    +0.000 C 
ATOM     16  C   UNL     1       4.701   3.264  11.511  0.00  0.00    +0.000 C 
ATOM     17  C   UNL     1       5.663   2.125  11.671  0.00  0.00    +0.000 C 
ENDBRANCH  13  15
ENDBRANCH   9  11
ENDBRANCH   3   5
BRANCH   2  18
ATOM     18  C   UNL     1       2.381   7.553  18.672  0.00  0.00    +0.000 A 
ATOM     19  C   UNL     1       2.034   8.479  17.678  0.00  0.00    +0.000 A 
ATOM     20  C   UNL     1       1.227   9.577  17.983  0.00  0.00    +0.000 A 
ATOM     21  C   UNL     1       0.718   9.731  19.274  0.00  0.00    +0.000 A 
ATOM     22  C   UNL     1       1.079   8.819  20.272  0.00  0.00    +0.000 A 
ATOM     23  C   UNL     1       1.910   7.730  19.978  0.00  0.00    +0.000 A 
BRANCH  21  24
ATOM     24  O   UNL     1      -0.068  10.786  19.680  0.00  0.00    +0.000 OA
BRANCH  24  25
ATOM     25  C   UNL     1      -1.324  10.969  19.145  0.00  0.00    +0.000 A 
ATOM     26  C   UNL     1      -1.925  10.106  18.221  0.00  0.00    +0.000 A 
ATOM     27  C   UNL     1      -3.203  10.385  17.733  0.00  0.00    +0.000 A 
ATOM     28  C   UNL     1      -3.896  11.489  18.215  0.00  0.00    +0.000 A 
ATOM     29  F   UNL     1      -5.126  11.747  17.752  0.00  0.00    +0.000 F 
ATOM     30  C   UNL     1      -3.336  12.321  19.177  0.00  0.00    +0.000 A 
ATOM     31  C   UNL     1      -2.045  12.061  19.643  0.00  0.00    +0.000 A 
ENDBRANCH  24  25
ENDBRANCH  21  24
ENDBRANCH   2  18
TORSDOF 6
ENDMDL
MODEL 2
REMARK VINA RESULT:      -9.1      0.443      1.009
REMARK  Name = 
REMARK  6 active torsions:
REMARK  status: ('A' for Active; 'I' for Inactive)
REMARK    1  A    between atoms: C_2  and  C_16
REMARK    2  A    between atoms: N_3  and  C_4
REMARK    3  A    between atoms: C_8  and  C_9
REMARK    4  A    between atoms: N_11  and  C_12
REMARK    5  A    between atoms: C_19  and  O_20
REMARK    6  A    between atoms: O_20  and  C_21
REMARK                            x       y       z     vdW  Elec       q    Type
REMARK                         _______ _______ _______ _____ _____    ______ ____
ROOT
ATOM      1  O   UNL     1       3.076   5.741  18.949  0.00  0.00    +0.000 OA
ATOM      2  C   UNL     1       3.391   6.828  18.474  0.00  0.00    +0.000 C 
ATOM      3  N   UNL     1       4.546   7.110  17.770  0.00  0.00    +0.000 N 
ATOM      4  H   UNL     1       4.778   8.086  17.621  0.00  0.00    +0.000 HD
ENDROOT
BRANCH   3   5
ATOM      5  C   UNL     1       5.529   6.166  17.388  0.00  0.00    +0.000 A 
ATOM      6  C   UNL     1       6.347   5.496  18.302  0.00  0.00    +0.000 A 
ATOM      7  C   UNL     1       7.316   4.586  17.867  0.00  0.00    +0.000 A 
ATOM      8  C   UNL     1       7.473   4.325  16.506  0.00  0.00    +0.000 A 
ATOM      9  C   UNL     1       6.644   4.968  15.583  0.00  0.00    +0.000 A 
ATOM     10  C   UNL     1       5.678   5.891  16.023  0.00  0.00    +0.000 A 
BRANCH   9  11
ATOM     11  C   UNL     1       6.774   4.743  14.117  0.00  0.00    +0.000 C 
ATOM     12  O   UNL     1       7.466   5.499  13.448  0.00  0.00    +0.000 OA
ATOM     13  N   UNL     1       6.053   3.685  13.593  0.00  0.00    +0.000 N 
ATOM     14  H   UNL     1       5.406   3.179  14.184  0.00  0.00    +0.000 HD
BRANCH  13  15
ATOM     15  C   UNL     1       6.054   3.400  12.192  0.00  0.00    +0.000 C 
ATOM     16  C   UNL     1       4.761   3.183  11.457  0.00  0.00    +0.000 C 
ATOM     17  C   UNL     1       5.698   2.033  11.675  0.00  0.00    +0.000 C 
ENDBRANCH  13  15
ENDBRANCH   9  11
ENDBRANCH   3   5
BRANCH   2  18
ATOM     18  C   UNL     1       2.472   7.971  18.720  0.00  0.00    +0.000 A 
ATOM     19  C   UNL     1       1.843   8.041  19.971  0.00  0.00    +0.000 A 
ATOM     20  C   UNL     1       0.887   9.025  20.229  0.00  0.00    +0.000 A 
ATOM     21  C   UNL     1       0.588   9.979  19.254  0.00  0.00    +0.000 A 
ATOM     22  C   UNL     1       1.199   9.898  17.998  0.00  0.00    +0.000 A 
ATOM     23  C   UNL     1       2.140   8.897  17.725  0.00  0.00    +0.000 A 
BRANCH  21  24
ATOM     24  O   UNL     1      -0.351  10.975  19.403  0.00  0.00    +0.000 OA
BRANCH  24  25
ATOM     25  C   UNL     1      -1.572  10.885  18.771  0.00  0.00    +0.000 A 
ATOM     26  C   UNL     1      -1.939   9.853  17.899  0.00  0.00    +0.000 A 
ATOM     27  C   UNL     1      -3.201   9.858  17.302  0.00  0.00    +0.000 A 
ATOM     28  C   UNL     1      -4.109  10.859  17.626  0.00  0.00    +0.000 A 
ATOM     29  F   UNL     1      -5.323  10.853  17.059  0.00  0.00    +0.000 F 
ATOM     30  C   UNL     1      -3.781  11.856  18.536  0.00  0.00    +0.000 A 
ATOM     31  C   UNL     1      -2.507  11.871  19.109  0.00  0.00    +0.000 A 
ENDBRANCH  24  25
ENDBRANCH  21  24
ENDBRANCH   2  18
TORSDOF 6
ENDMDL
MODEL 3
REMARK VINA RESULT:      -8.6      2.037      2.639
REMARK  Name = 
REMARK  6 active torsions:
REMARK  status: ('A' for Active; 'I' for Inactive)
REMARK    1  A    between atoms: C_2  and  C_16
REMARK    2  A    between atoms: N_3  and  C_4
REMARK    3  A    between atoms: C_8  and  C_9
REMARK    4  A    between atoms: N_11  and  C_12
REMARK    5  A    between atoms: C_19  and  O_20
REMARK    6  A    between atoms: O_20  and  C_21
REMARK                            x       y       z     vdW  Elec       q    Type
REMARK                         _______ _______ _______ _____ _____    ______ ____
ROOT
ATOM      1  O   UNL     1       2.973   5.661  19.022  0.00  0.00    +0.000 OA
ATOM      2  C   UNL     1       3.240   6.759  18.544  0.00  0.00    +0.000 C 
ATOM      3  N   UNL     1       4.380   7.089  17.837  0.00  0.00    +0.000 N 
ATOM      4  H   UNL     1       4.568   8.074  17.685  0.00  0.00    +0.000 HD
ENDROOT
BRANCH   3   5
ATOM      5  C   UNL     1       5.402   6.187  17.456  0.00  0.00    +0.000 A 
ATOM      6  C   UNL     1       6.263   5.571  18.369  0.00  0.00    +0.000 A 
ATOM      7  C   UNL     1       7.269   4.702  17.934  0.00  0.00    +0.000 A 
ATOM      8  C   UNL     1       7.421   4.429  16.576  0.00  0.00    +0.000 A 
ATOM      9  C   UNL     1       6.551   5.018  15.654  0.00  0.00    +0.000 A 
ATOM     10  C   UNL     1       5.548   5.899  16.094  0.00  0.00    +0.000 A 
BRANCH   9  11
ATOM     11  C   UNL     1       6.674   4.776  14.190  0.00  0.00    +0.000 C 
ATOM     12  O   UNL     1       7.591   5.295  13.566  0.00  0.00    +0.000 OA
ATOM     13  N   UNL     1       5.692   3.990  13.613  0.00  0.00    +0.000 N 
ATOM     14  H   UNL     1       4.897   3.698  14.167  0.00  0.00    +0.000 HD
BRANCH  13  15
ATOM     15  C   UNL     1       5.671   3.731  12.208  0.00  0.00    +0.000 C 
ATOM     16  C   UNL     1       4.450   3.143  11.559  0.00  0.00    +0.000 C 
ATOM     17  C   UNL     1       5.701   2.324  11.675  0.00  0.00    +0.000 C 
ENDBRANCH  13  15
ENDBRANCH   9  11
ENDBRANCH   3   5
BRANCH   2  18
ATOM     18  C   UNL     1       2.272   7.861  18.789  0.00  0.00    +0.000 A 
ATOM     19  C   UNL     1       1.788   8.024  20.094  0.00  0.00    +0.000 A 
ATOM     20  C   UNL     1       0.797   8.968  20.370  0.00  0.00    +0.000 A 
ATOM     21  C   UNL     1       0.317   9.793  19.351  0.00  0.00    +0.000 A 
ATOM     22  C   UNL     1       0.783   9.617  18.044  0.00  0.00    +0.000 A 
ATOM     23  C   UNL     1       1.759   8.655  17.756  0.00  0.00    +0.000 A 
BRANCH  21  24
ATOM     24  O   UNL     1      -0.671  10.737  19.516  0.00  0.00    +0.000 OA
BRANCH  24  25
ATOM     25  C   UNL     1      -0.499  11.783  20.396  0.00  0.00    +0.000 A 
ATOM     26  C   UNL     1       0.209  12.954  20.107  0.00  0.00    +0.000 A 
ATOM     27  C   UNL     1       0.333  13.954  21.074  0.00  0.00    +0.000 A 
ATOM     28  C   UNL     1      -0.302  13.803  22.300  0.00  0.00    +0.000 A 
ATOM     29  F   UNL     1      -0.190  14.770  23.222  0.00  0.00    +0.000 F 
ATOM     30  C   UNL     1      -1.059  12.673  22.581  0.00  0.00    +0.000 A 
ATOM     31  C   UNL     1      -1.156  11.657  21.626  0.00  0.00    +0.000 A 
ENDBRANCH  24  25
ENDBRANCH  21  24
ENDBRANCH   2  18
TORSDOF 6
ENDMDL
MODEL 4
REMARK VINA RESULT:      -8.6      6.323      9.966
REMARK  Name = 
REMARK  6 active torsions:
REMARK  status: ('A' for Active; 'I' for Inactive)
REMARK    1  A    between atoms: C_2  and  C_16
REMARK    2  A    between atoms: N_3  and  C_4
REMARK    3  A    between atoms: C_8  and  C_9
REMARK    4  A    between atoms: N_11  and  C_12
REMARK    5  A    between atoms: C_19  and  O_20
REMARK    6  A    between atoms: O_20  and  C_21
REMARK                            x       y       z     vdW  Elec       q    Type
REMARK                         _______ _______ _______ _____ _____    ______ ____
ROOT
ATOM      1  O   UNL     1       7.928  10.095  17.398  0.00  0.00    +0.000 OA
ATOM      2  C   UNL     1       8.305   9.237  18.192  0.00  0.00    +0.000 C 
ATOM      3  N   UNL     1       9.209   9.415  19.221  0.00  0.00    +0.000 N 
ATOM      4  H   UNL     1       9.588   8.584  19.661  0.00  0.00    +0.000 HD
ENDROOT
BRANCH   3   5
ATOM      5  C   UNL     1       9.789  10.649  19.603  0.00  0.00    +0.000 A 
ATOM      6  C   UNL     1      10.879  11.223  18.941  0.00  0.00    +0.000 A 
ATOM      7  C   UNL     1      11.425  12.436  19.374  0.00  0.00    +0.000 A 
ATOM      8  C   UNL     1      10.879  13.098  20.473  0.00  0.00    +0.000 A 
ATOM      9  C   UNL     1       9.773  12.549  21.128  0.00  0.00    +0.000 A 
ATOM     10  C   UNL     1       9.234  11.324  20.696  0.00  0.00    +0.000 A 
BRANCH   9  11
ATOM     11  C   UNL     1       9.157  13.201  22.315  0.00  0.00    +0.000 C 
ATOM     12  O   UNL     1       9.424  14.369  22.570  0.00  0.00    +0.000 OA
ATOM     13  N   UNL     1       8.329  12.409  23.091  0.00  0.00    +0.000 N 
ATOM     14  H   UNL     1       8.252  11.420  22.889  0.00  0.00    +0.000 HD
BRANCH  13  15
ATOM     15  C   UNL     1       7.722  12.906  24.285  0.00  0.00    +0.000 C 
ATOM     16  C   UNL     1       8.434  12.800  25.604  0.00  0.00    +0.000 C 
ATOM     17  C   UNL     1       7.211  11.970  25.346  0.00  0.00    +0.000 C 
ENDBRANCH  13  15
ENDBRANCH   9  11
ENDBRANCH   3   5
BRANCH   2  18
ATOM     18  C   UNL     1       7.783   7.858  18.001  0.00  0.00    +0.000 A 
ATOM     19  C   UNL     1       6.766   7.672  17.055  0.00  0.00    +0.000 A 
ATOM     20  C   UNL     1       6.157   6.424  16.905  0.00  0.00    +0.000 A 
ATOM     21  C   UNL     1       6.596   5.338  17.665  0.00  0.00    +0.000 A 
ATOM     22  C   UNL     1       7.598   5.527  18.624  0.00  0.00    +0.000 A 
ATOM     23  C   UNL     1       8.194   6.782  18.797  0.00  0.00    +0.000 A 
BRANCH  21  24
ATOM     24  O   UNL     1       6.050   4.076  17.606  0.00  0.00    +0.000 OA
BRANCH  24  25
ATOM     25  C   UNL     1       4.765   3.849  18.048  0.00  0.00    +0.000 A 
ATOM     26  C   UNL     1       4.389   3.793  19.394  0.00  0.00    +0.000 A 
ATOM     27  C   UNL     1       3.058   3.548  19.738  0.00  0.00    +0.000 A 
ATOM     28  C   UNL     1       2.103   3.421  18.738  0.00  0.00    +0.000 A 
ATOM     29  F   UNL     1       0.825   3.198  19.072  0.00  0.00    +0.000 F 
ATOM     30  C   UNL     1       2.451   3.534  17.397  0.00  0.00    +0.000 A 
ATOM     31  C   UNL     1       3.788   3.747  17.050  0.00  0.00    +0.000 A 
ENDBRANCH  24  25
ENDBRANCH  21  24
ENDBRANCH   2  18
TORSDOF 6
ENDMDL
MODEL 5
REMARK VINA RESULT:      -8.5      0.698      1.174
REMARK  Name = 
REMARK  6 active torsions:
REMARK  status: ('A' for Active; 'I' for Inactive)
REMARK    1  A    between atoms: C_2  and  C_16
REMARK    2  A    between atoms: N_3  and  C_4
REMARK    3  A    between atoms: C_8  and  C_9
REMARK    4  A    between atoms: N_11  and  C_12
REMARK    5  A    between atoms: C_19  and  O_20
REMARK    6  A    between atoms: O_20  and  C_21
REMARK                            x       y       z     vdW  Elec       q    Type
REMARK                         _______ _______ _______ _____ _____    ______ ____
ROOT
ATOM      1  O   UNL     1       3.769   5.969  19.708  0.00  0.00    +0.000 OA
ATOM      2  C   UNL     1       3.608   6.765  18.789  0.00  0.00    +0.000 C 
ATOM      3  N   UNL     1       4.370   6.855  17.640  0.00  0.00    +0.000 N 
ATOM      4  H   UNL     1       4.262   7.686  17.069  0.00  0.00    +0.000 HD
ENDROOT
BRANCH   3   5
ATOM      5  C   UNL     1       5.417   5.975  17.275  0.00  0.00    +0.000 A 
ATOM      6  C   UNL     1       6.248   5.342  18.205  0.00  0.00    +0.000 A 
ATOM      7  C   UNL     1       7.280   4.496  17.788  0.00  0.00    +0.000 A 
ATOM      8  C   UNL     1       7.489   4.261  16.430  0.00  0.00    +0.000 A 
ATOM      9  C   UNL     1       6.649   4.866  15.490  0.00  0.00    +0.000 A 
ATOM     10  C   UNL     1       5.619   5.725  15.913  0.00  0.00    +0.000 A 
BRANCH   9  11
ATOM     11  C   UNL     1       6.832   4.666  14.027  0.00  0.00    +0.000 C 
ATOM     12  O   UNL     1       7.564   5.421  13.400  0.00  0.00    +0.000 OA
ATOM     13  N   UNL     1       6.111   3.633  13.453  0.00  0.00    +0.000 N 
ATOM     14  H   UNL     1       5.431   3.130  14.009  0.00  0.00    +0.000 HD
BRANCH  13  15
ATOM     15  C   UNL     1       6.161   3.375  12.049  0.00  0.00    +0.000 C 
ATOM     16  C   UNL     1       5.449   2.188  11.465  0.00  0.00    +0.000 C 
ATOM     17  C   UNL     1       6.948   2.218  11.497  0.00  0.00    +0.000 C 
ENDBRANCH  13  15
ENDBRANCH   9  11
ENDBRANCH   3   5
BRANCH   2  18
ATOM     18  C   UNL     1       2.523   7.770  18.942  0.00  0.00    +0.000 A 
ATOM     19  C   UNL     1       2.304   8.658  17.880  0.00  0.00    +0.000 A 
ATOM     20  C   UNL     1       1.375   9.694  18.002  0.00  0.00    +0.000 A 
ATOM     21  C   UNL     1       0.620   9.819  19.170  0.00  0.00    +0.000 A 
ATOM     22  C   UNL     1       0.852   8.946  20.239  0.00  0.00    +0.000 A 
ATOM     23  C   UNL     1       1.800   7.921  20.131  0.00  0.00    +0.000 A 
BRANCH  21  24
ATOM     24  O   UNL     1      -0.304  10.814  19.396  0.00  0.00    +0.000 OA
BRANCH  24  25
ATOM     25  C   UNL     1      -1.454  10.886  18.640  0.00  0.00    +0.000 A 
ATOM     26  C   UNL     1      -2.485  11.808  18.852  0.00  0.00    +0.000 A 
ATOM     27  C   UNL     1      -3.616  11.792  18.034  0.00  0.00    +0.000 A 
ATOM     28  C   UNL     1      -3.682  10.898  16.972  0.00  0.00    +0.000 A 
ATOM     29  F   UNL     1      -4.764  10.894  16.182  0.00  0.00    +0.000 F 
ATOM     30  C   UNL     1      -2.639  10.018  16.712  0.00  0.00    +0.000 A 
ATOM     31  C   UNL     1      -1.521  10.009  17.550  0.00  0.00    +0.000 A 
ENDBRANCH  24  25
ENDBRANCH  21  24
ENDBRANCH   2  18
TORSDOF 6
ENDMDL
MODEL 6
REMARK VINA RESULT:      -8.4      2.828      4.011
REMARK  Name = 
REMARK  6 active torsions:
REMARK  status: ('A' for Active; 'I' for Inactive)
REMARK    1  A    between atoms: C_2  and  C_16
REMARK    2  A    between atoms: N_3  and  C_4
REMARK    3  A    between atoms: C_8  and  C_9
REMARK    4  A    between atoms: N_11  and  C_12
REMARK    5  A    between atoms: C_19  and  O_20
REMARK    6  A    between atoms: O_20  and  C_21
REMARK                            x       y       z     vdW  Elec       q    Type
REMARK                         _______ _______ _______ _____ _____    ______ ____
ROOT
ATOM      1  O   UNL     1       2.295   7.654  18.947  0.00  0.00    +0.000 OA
ATOM      2  C   UNL     1       1.815   7.542  20.071  0.00  0.00    +0.000 C 
ATOM      3  N   UNL     1       1.820   6.403  20.853  0.00  0.00    +0.000 N 
ATOM      4  H   UNL     1       1.208   6.388  21.662  0.00  0.00    +0.000 HD
ENDROOT
BRANCH   3   5
ATOM      5  C   UNL     1       2.470   5.187  20.533  0.00  0.00    +0.000 A 
ATOM      6  C   UNL     1       2.059   3.944  21.024  0.00  0.00    +0.000 A 
ATOM      7  C   UNL     1       2.750   2.775  20.691  0.00  0.00    +0.000 A 
ATOM      8  C   UNL     1       3.860   2.833  19.849  0.00  0.00    +0.000 A 
ATOM      9  C   UNL     1       4.267   4.066  19.330  0.00  0.00    +0.000 A 
ATOM     10  C   UNL     1       3.575   5.240  19.676  0.00  0.00    +0.000 A 
BRANCH   9  11
ATOM     11  C   UNL     1       5.452   4.193  18.439  0.00  0.00    +0.000 C 
ATOM     12  O   UNL     1       6.510   4.607  18.896  0.00  0.00    +0.000 OA
ATOM     13  N   UNL     1       5.261   3.858  17.110  0.00  0.00    +0.000 N 
ATOM     14  H   UNL     1       4.329   3.642  16.779  0.00  0.00    +0.000 HD
BRANCH  13  15
ATOM     15  C   UNL     1       6.308   3.989  16.147  0.00  0.00    +0.000 C 
ATOM     16  C   UNL     1       6.448   5.248  15.338  0.00  0.00    +0.000 C 
ATOM     17  C   UNL     1       6.016   3.975  14.672  0.00  0.00    +0.000 C 
ENDBRANCH  13  15
ENDBRANCH   9  11
ENDBRANCH   3   5
BRANCH   2  18
ATOM     18  C   UNL     1       1.110   8.725  20.631  0.00  0.00    +0.000 A 
ATOM     19  C   UNL     1       0.939   9.837  19.794  0.00  0.00    +0.000 A 
ATOM     20  C   UNL     1       0.384  11.018  20.289  0.00  0.00    +0.000 A 
ATOM     21  C   UNL     1      -0.053  11.081  21.614  0.00  0.00    +0.000 A 
ATOM     22  C   UNL     1       0.135   9.980  22.456  0.00  0.00    +0.000 A 
ATOM     23  C   UNL     1       0.715   8.801  21.971  0.00  0.00    +0.000 A 
BRANCH  21  24
ATOM     24  O   UNL     1      -0.594  12.202  22.202  0.00  0.00    +0.000 OA
BRANCH  24  25
ATOM     25  C   UNL     1      -1.951  12.434  22.148  0.00  0.00    +0.000 A 
ATOM     26  C   UNL     1      -2.672  12.652  20.968  0.00  0.00    +0.000 A 
ATOM     27  C   UNL     1      -4.047  12.887  21.022  0.00  0.00    +0.000 A 
ATOM     28  C   UNL     1      -4.703  12.842  22.246  0.00  0.00    +0.000 A 
ATOM     29  F   UNL     1      -6.025  13.057  22.293  0.00  0.00    +0.000 F 
ATOM     30  C   UNL     1      -4.011  12.568  23.420  0.00  0.00    +0.000 A 
ATOM     31  C   UNL     1      -2.629  12.365  23.371  0.00  0.00    +0.000 A 
ENDBRANCH  24  25
ENDBRANCH  21  24
ENDBRANCH   2  18
TORSDOF 6
ENDMDL
MODEL 7
REMARK VINA RESULT:      -8.3      1.668      2.115
REMARK  Name = 
REMARK  6 active torsions:
REMARK  status: ('A' for Active; 'I' for Inactive)
REMARK    1  A    between atoms: C_2  and  C_16
REMARK    2  A    between atoms: N_3  and  C_4
REMARK    3  A    between atoms: C_8  and  C_9
REMARK    4  A    between atoms: N_11  and  C_12
REMARK    5  A    between atoms: C_19  and  O_20
REMARK    6  A    between atoms: O_20  and  C_21
REMARK                            x       y       z     vdW  Elec       q    Type
REMARK                         _______ _______ _______ _____ _____    ______ ____
ROOT
ATOM      1  O   UNL     1       3.070   5.016  18.851  0.00  0.00    +0.000 OA
ATOM      2  C   UNL     1       3.392   6.194  18.720  0.00  0.00    +0.000 C 
ATOM      3  N   UNL     1       4.596   6.664  18.234  0.00  0.00    +0.000 N 
ATOM      4  H   UNL     1       4.808   7.645  18.377  0.00  0.00    +0.000 HD
ENDROOT
BRANCH   3   5
ATOM      5  C   UNL     1       5.640   5.866  17.707  0.00  0.00    +0.000 A 
ATOM      6  C   UNL     1       6.611   5.249  18.502  0.00  0.00    +0.000 A 
ATOM      7  C   UNL     1       7.632   4.486  17.927  0.00  0.00    +0.000 A 
ATOM      8  C   UNL     1       7.689   4.320  16.544  0.00  0.00    +0.000 A 
ATOM      9  C   UNL     1       6.710   4.909  15.739  0.00  0.00    +0.000 A 
ATOM     10  C   UNL     1       5.691   5.684  16.320  0.00  0.00    +0.000 A 
BRANCH   9  11
ATOM     11  C   UNL     1       6.727   4.780  14.256  0.00  0.00    +0.000 C 
ATOM     12  O   UNL     1       7.248   5.657  13.579  0.00  0.00    +0.000 OA
ATOM     13  N   UNL     1       6.102   3.663  13.730  0.00  0.00    +0.000 N 
ATOM     14  H   UNL     1       5.586   3.044  14.342  0.00  0.00    +0.000 HD
BRANCH  13  15
ATOM     15  C   UNL     1       6.006   3.455  12.319  0.00  0.00    +0.000 C 
ATOM     16  C   UNL     1       4.669   3.229  11.671  0.00  0.00    +0.000 C 
ATOM     17  C   UNL     1       5.658   2.105  11.753  0.00  0.00    +0.000 C 
ENDBRANCH  13  15
ENDBRANCH   9  11
ENDBRANCH   3   5
BRANCH   2  18
ATOM     18  C   UNL     1       2.417   7.220  19.176  0.00  0.00    +0.000 A 
ATOM     19  C   UNL     1       2.212   8.334  18.350  0.00  0.00    +0.000 A 
ATOM     20  C   UNL     1       1.394   9.385  18.769  0.00  0.00    +0.000 A 
ATOM     21  C   UNL     1       0.732   9.308  19.996  0.00  0.00    +0.000 A 
ATOM     22  C   UNL     1       0.952   8.206  20.831  0.00  0.00    +0.000 A 
ATOM     23  C   UNL     1       1.793   7.161  20.427  0.00  0.00    +0.000 A 
BRANCH  21  24
ATOM     24  O   UNL     1      -0.078  10.297  20.507  0.00  0.00    +0.000 OA
BRANCH  24  25
ATOM     25  C   UNL     1      -0.034  11.573  19.991  0.00  0.00    +0.000 A 
ATOM     26  C   UNL     1       0.740  12.613  20.514  0.00  0.00    +0.000 A 
ATOM     27  C   UNL     1       0.708  13.877  19.920  0.00  0.00    +0.000 A 
ATOM     28  C   UNL     1      -0.050  14.076  18.773  0.00  0.00    +0.000 A 
ATOM     29  F   UNL     1      -0.069  15.286  18.199  0.00  0.00    +0.000 F 
ATOM     30  C   UNL     1      -0.777  13.036  18.206  0.00  0.00    +0.000 A 
ATOM     31  C   UNL     1      -0.771  11.780  18.818  0.00  0.00    +0.000 A 
ENDBRANCH  24  25
ENDBRANCH  21  24
ENDBRANCH   2  18
TORSDOF 6
ENDMDL
MODEL 8
REMARK VINA RESULT:      -8.3      3.024      4.567
REMARK  Name = 
REMARK  6 active torsions:
REMARK  status: ('A' for Active; 'I' for Inactive)
REMARK    1  A    between atoms: C_2  and  C_16
REMARK    2  A    between atoms: N_3  and  C_4
REMARK    3  A    between atoms: C_8  and  C_9
REMARK    4  A    between atoms: N_11  and  C_12
REMARK    5  A    between atoms: C_19  and  O_20
REMARK    6  A    between atoms: O_20  and  C_21
REMARK                            x       y       z     vdW  Elec       q    Type
REMARK                         _______ _______ _______ _____ _____    ______ ____
ROOT
ATOM      1  O   UNL     1       2.017   8.063  19.265  0.00  0.00    +0.000 OA
ATOM      2  C   UNL     1       1.468   7.829  20.338  0.00  0.00    +0.000 C 
ATOM      3  N   UNL     1       1.416   6.608  20.982  0.00  0.00    +0.000 N 
ATOM      4  H   UNL     1       0.757   6.509  21.746  0.00  0.00    +0.000 HD
ENDROOT
BRANCH   3   5
ATOM      5  C   UNL     1       2.075   5.427  20.563  0.00  0.00    +0.000 A 
ATOM      6  C   UNL     1       1.515   4.152  20.683  0.00  0.00    +0.000 A 
ATOM      7  C   UNL     1       2.218   3.016  20.269  0.00  0.00    +0.000 A 
ATOM      8  C   UNL     1       3.492   3.143  19.717  0.00  0.00    +0.000 A 
ATOM      9  C   UNL     1       4.054   4.414  19.567  0.00  0.00    +0.000 A 
ATOM     10  C   UNL     1       3.348   5.552  19.994  0.00  0.00    +0.000 A 
BRANCH   9  11
ATOM     11  C   UNL     1       5.415   4.611  18.999  0.00  0.00    +0.000 C 
ATOM     12  O   UNL     1       6.294   5.107  19.693  0.00  0.00    +0.000 OA
ATOM     13  N   UNL     1       5.588   4.244  17.676  0.00  0.00    +0.000 N 
ATOM     14  H   UNL     1       4.787   3.957  17.129  0.00  0.00    +0.000 HD
BRANCH  13  15
ATOM     15  C   UNL     1       6.834   4.434  17.004  0.00  0.00    +0.000 C 
ATOM     16  C   UNL     1       7.165   5.756  16.370  0.00  0.00    +0.000 C 
ATOM     17  C   UNL     1       6.900   4.558  15.506  0.00  0.00    +0.000 C 
ENDBRANCH  13  15
ENDBRANCH   9  11
ENDBRANCH   3   5
BRANCH   2  18
ATOM     18  C   UNL     1       0.741   8.951  20.988  0.00  0.00    +0.000 A 
ATOM     19  C   UNL     1       0.795  10.207  20.369  0.00  0.00    +0.000 A 
ATOM     20  C   UNL     1       0.226  11.325  20.983  0.00  0.00    +0.000 A 
ATOM     21  C   UNL     1      -0.448  11.186  22.198  0.00  0.00    +0.000 A 
ATOM     22  C   UNL     1      -0.485   9.937  22.827  0.00  0.00    +0.000 A 
ATOM     23  C   UNL     1       0.107   8.817  22.229  0.00  0.00    +0.000 A 
BRANCH  21  24
ATOM     24  O   UNL     1      -1.023  12.227  22.891  0.00  0.00    +0.000 OA
BRANCH  24  25
ATOM     25  C   UNL     1      -2.378  12.462  22.802  0.00  0.00    +0.000 A 
ATOM     26  C   UNL     1      -3.252  12.482  23.894  0.00  0.00    +0.000 A 
ATOM     27  C   UNL     1      -4.613  12.723  23.696  0.00  0.00    +0.000 A 
ATOM     28  C   UNL     1      -5.081  13.001  22.418  0.00  0.00    +0.000 A 
ATOM     29  F   UNL     1      -6.386  13.242  22.234  0.00  0.00    +0.000 F 
ATOM     30  C   UNL     1      -4.216  13.044  21.332  0.00  0.00    +0.000 A 
ATOM     31  C   UNL     1      -2.859  12.771  21.524  0.00  0.00    +0.000 A 
ENDBRANCH  24  25
ENDBRANCH  21  24
ENDBRANCH   2  18
TORSDOF 6
ENDMDL
MODEL 9
REMARK VINA RESULT:      -8.3      2.946      4.465
REMARK  Name = 
REMARK  6 active torsions:
REMARK  status: ('A' for Active; 'I' for Inactive)
REMARK    1  A    between atoms: C_2  and  C_16
REMARK    2  A    between atoms: N_3  and  C_4
REMARK    3  A    between atoms: C_8  and  C_9
REMARK    4  A    between atoms: N_11  and  C_12
REMARK    5  A    between atoms: C_19  and  O_20
REMARK    6  A    between atoms: O_20  and  C_21
REMARK                            x       y       z     vdW  Elec       q    Type
REMARK                         _______ _______ _______ _____ _____    ______ ____
ROOT
ATOM      1  O   UNL     1       1.949   8.004  19.154  0.00  0.00    +0.000 OA
ATOM      2  C   UNL     1       1.528   7.856  20.298  0.00  0.00    +0.000 C 
ATOM      3  N   UNL     1       1.485   6.671  21.008  0.00  0.00    +0.000 N 
ATOM      4  H   UNL     1       0.924   6.651  21.852  0.00  0.00    +0.000 HD
ENDROOT
BRANCH   3   5
ATOM      5  C   UNL     1       2.011   5.431  20.572  0.00  0.00    +0.000 A 
ATOM      6  C   UNL     1       1.419   4.200  20.867  0.00  0.00    +0.000 A 
ATOM      7  C   UNL     1       1.992   3.002  20.427  0.00  0.00    +0.000 A 
ATOM      8  C   UNL     1       3.166   3.022  19.675  0.00  0.00    +0.000 A 
ATOM      9  C   UNL     1       3.755   4.248  19.350  0.00  0.00    +0.000 A 
ATOM     10  C   UNL     1       3.181   5.448  19.804  0.00  0.00    +0.000 A 
BRANCH   9  11
ATOM     11  C   UNL     1       5.015   4.332  18.563  0.00  0.00    +0.000 C 
ATOM     12  O   UNL     1       6.093   4.338  19.146  0.00  0.00    +0.000 OA
ATOM     13  N   UNL     1       4.877   4.437  17.191  0.00  0.00    +0.000 N 
ATOM     14  H   UNL     1       3.954   4.550  16.789  0.00  0.00    +0.000 HD
BRANCH  13  15
ATOM     15  C   UNL     1       6.011   4.578  16.333  0.00  0.00    +0.000 C 
ATOM     16  C   UNL     1       5.897   5.327  15.035  0.00  0.00    +0.000 C 
ATOM     17  C   UNL     1       6.094   3.840  15.024  0.00  0.00    +0.000 C 
ENDBRANCH  13  15
ENDBRANCH   9  11
ENDBRANCH   3   5
BRANCH   2  18
ATOM     18  C   UNL     1       0.959   9.052  20.974  0.00  0.00    +0.000 A 
ATOM     19  C   UNL     1       0.274   8.853  22.180  0.00  0.00    +0.000 A 
ATOM     20  C   UNL     1      -0.377   9.917  22.809  0.00  0.00    +0.000 A 
ATOM     21  C   UNL     1      -0.304  11.200  22.263  0.00  0.00    +0.000 A 
ATOM     22  C   UNL     1       0.363  11.396  21.048  0.00  0.00    +0.000 A 
ATOM     23  C   UNL     1       0.995  10.328  20.399  0.00  0.00    +0.000 A 
BRANCH  21  24
ATOM     24  O   UNL     1      -0.925  12.307  22.794  0.00  0.00    +0.000 OA
BRANCH  24  25
ATOM     25  C   UNL     1      -2.288  12.468  22.676  0.00  0.00    +0.000 A 
ATOM     26  C   UNL     1      -3.180  12.484  23.754  0.00  0.00    +0.000 A 
ATOM     27  C   UNL     1      -4.548  12.645  23.528  0.00  0.00    +0.000 A 
ATOM     28  C   UNL     1      -5.010  12.851  22.233  0.00  0.00    +0.000 A 
ATOM     29  F   UNL     1      -6.322  13.017  22.021  0.00  0.00    +0.000 F 
ATOM     30  C   UNL     1      -4.130  12.899  21.159  0.00  0.00    +0.000 A 
ATOM     31  C   UNL     1      -2.764  12.704  21.381  0.00  0.00    +0.000 A 
ENDBRANCH  24  25
ENDBRANCH  21  24
ENDBRANCH   2  18
TORSDOF 6
ENDMDL
