MODEL 1
REMARK VINA RESULT:      -9.4      0.000      0.000
REMARK  Name = 
REMARK  6 active torsions:
REMARK  status: ('A' for Active; 'I' for Inactive)
REMARK    1  A    between atoms: C_1  and  C_2
REMARK    2  A    between atoms: C_5  and  N_6
REMARK    3  A    between atoms: C_7  and  C_9
REMARK    4  A    between atoms: C_9  and  N_10
REMARK    5  A    between atoms: C_14  and  C_15
REMARK    6  A    between atoms: C_15  and  C_16
REMARK                            x       y       z     vdW  Elec       q    Type
REMARK                         _______ _______ _______ _____ _____    ______ ____
ROOT
ATOM      1  N   UNL     1       3.447   3.630  19.655  0.00  0.00    +0.000 N 
ATOM      2  C   UNL     1       3.094   2.470  19.040  0.00  0.00    +0.000 C 
ATOM      3  O   UNL     1       2.234   1.678  19.379  0.00  0.00    +0.000 OA
ATOM      4  N   UNL     1       3.902   2.312  17.941  0.00  0.00    +0.000 N 
ATOM      5  C   UNL     1       4.786   3.435  17.732  0.00  0.00    +0.000 C 
ATOM      6  C   UNL     1       4.530   4.181  19.036  0.00  0.00    +0.000 C 
ATOM      7  O   UNL     1       5.182   5.128  19.462  0.00  0.00    +0.000 OA
ATOM      8  H   UNL     1       3.818   1.505  17.333  0.00  0.00    +0.000 HD
ENDROOT
BRANCH   1   9
ATOM      9  C   UNL     1       2.867   4.099  20.891  0.00  0.00    +0.000 C 
BRANCH   9  11
ATOM     10  N   UNL     1       2.480   6.472  20.470  0.00  0.00    +0.000 N 
ATOM     11  C   UNL     1       1.883   5.221  20.594  0.00  0.00    +0.000 C 
ATOM     12  O   UNL     1       0.692   4.957  20.434  0.00  0.00    +0.000 OA
ATOM     13  H   UNL     1       3.492   6.524  20.584  0.00  0.00    +0.000 HD
BRANCH  10  18
ATOM     14  C   UNL     1      -0.280  11.415  19.598  0.00  0.00    +0.000 C 
ATOM     15  C   UNL     1       0.443  10.124  19.834  0.00  0.00    +0.000 A 
ATOM     16  C   UNL     1       1.148   9.522  18.792  0.00  0.00    +0.000 A 
ATOM     17  C   UNL     1       1.822   8.329  18.989  0.00  0.00    +0.000 A 
ATOM     18  C   UNL     1       1.817   7.692  20.233  0.00  0.00    +0.000 A 
ATOM     19  C   UNL     1       1.111   8.291  21.284  0.00  0.00    +0.000 A 
ATOM     20  C   UNL     1       0.431   9.501  21.089  0.00  0.00    +0.000 A 
ENDBRANCH  10  18
ENDBRANCH   9  11
ENDBRANCH   1   9
BRANCH   5  21
ATOM     21  C   UNL     1       4.380   4.330  16.558  0.00  0.00    +0.000 C 
BRANCH  21  22
ATOM     22  C   UNL     1       5.559   4.782  15.755  0.00  0.00    +0.000 A 
ATOM     23  C   UNL     1       6.603   5.568  16.198  0.00  0.00    +0.000 A 
ATOM     24  N   UNL     1       7.524   5.665  15.189  0.00  0.00    +0.000 N 
ATOM     25  C   UNL     1       7.106   4.948  14.092  0.00  0.00    +0.000 A 
ATOM     26  C   UNL     1       7.745   4.712  12.869  0.00  0.00    +0.000 A 
ATOM     27  C   UNL     1       7.069   3.936  11.924  0.00  0.00    +0.000 A 
ATOM     28  C   UNL     1       5.793   3.444  12.180  0.00  0.00    +0.000 A 
ATOM     29  C   UNL     1       5.168   3.690  13.406  0.00  0.00    +0.000 A 
ATOM     30  C   UNL     1       5.846   4.433  14.395  0.00  0.00    +0.000 A 
ATOM     31  H   UNL     1       8.398   6.168  15.242  0.00  0.00    +0.000 HD
ENDBRANCH  21  22
ENDBRANCH   5  21
TORSDOF 5
ENDMDL
MODEL 2
REMARK VINA RESULT:      -8.2      0.595      1.084
REMARK  Name = 
REMARK  6 active torsions:
REMARK  status: ('A' for Active; 'I' for Inactive)
REMARK    1  A    between atoms: C_1  and  C_2
REMARK    2  A    between atoms: C_5  and  N_6
REMARK    3  A    between atoms: C_7  and  C_9
REMARK    4  A    between atoms: C_9  and  N_10
REMARK    5  A    between atoms: C_14  and  C_15
REMARK    6  A    between atoms: C_15  and  C_16
REMARK                            x       y       z     vdW  Elec       q    Type
REMARK                         _______ _______ _______ _____ _____    ______ ____
ROOT
ATOM      1  N   UNL     1       3.664   4.038  19.728  0.00  0.00    +0.000 N 
ATOM      2  C   UNL     1       3.528   2.708  19.478  0.00  0.00    +0.000 C 
ATOM      3  O   UNL     1       2.790   1.916  20.036  0.00  0.00    +0.000 OA
ATOM      4  N   UNL     1       4.400   2.376  18.472  0.00  0.00    +0.000 N 
ATOM      5  C   UNL     1       5.104   3.522  17.942  0.00  0.00    +0.000 C 
ATOM      6  C   UNL     1       4.673   4.558  18.973  0.00  0.00    +0.000 C 
ATOM      7  O   UNL     1       5.146   5.681  19.103  0.00  0.00    +0.000 OA
ATOM      8  H   UNL     1       4.474   1.426  18.125  0.00  0.00    +0.000 HD
ENDROOT
BRANCH   1   9
ATOM      9  C   UNL     1       2.961   4.739  20.776  0.00  0.00    +0.000 C 
BRANCH   9  11
ATOM     10  N   UNL     1       2.160   7.045  20.753  0.00  0.00    +0.000 N 
ATOM     11  C   UNL     1       2.054   5.793  20.157  0.00  0.00    +0.000 C 
ATOM     12  O   UNL     1       1.361   5.500  19.183  0.00  0.00    +0.000 OA
ATOM     13  H   UNL     1       2.818   7.144  21.526  0.00  0.00    +0.000 HD
BRANCH  10  18
ATOM     14  C   UNL     1      -0.779  11.740  19.293  0.00  0.00    +0.000 C 
ATOM     15  C   UNL     1      -0.010  10.509  19.667  0.00  0.00    +0.000 A 
ATOM     16  C   UNL     1      -0.144   9.969  20.945  0.00  0.00    +0.000 A 
ATOM     17  C   UNL     1       0.557   8.832  21.311  0.00  0.00    +0.000 A 
ATOM     18  C   UNL     1       1.420   8.195  20.414  0.00  0.00    +0.000 A 
ATOM     19  C   UNL     1       1.560   8.733  19.129  0.00  0.00    +0.000 A 
ATOM     20  C   UNL     1       0.848   9.881  18.754  0.00  0.00    +0.000 A 
ENDBRANCH  10  18
ENDBRANCH   9  11
ENDBRANCH   1   9
BRANCH   5  21
ATOM     21  C   UNL     1       4.614   3.960  16.559  0.00  0.00    +0.000 C 
BRANCH  21  22
ATOM     22  C   UNL     1       5.716   4.534  15.724  0.00  0.00    +0.000 A 
ATOM     23  C   UNL     1       6.736   5.356  16.159  0.00  0.00    +0.000 A 
ATOM     24  N   UNL     1       7.588   5.572  15.109  0.00  0.00    +0.000 N 
ATOM     25  C   UNL     1       7.150   4.898  13.993  0.00  0.00    +0.000 A 
ATOM     26  C   UNL     1       7.729   4.778  12.724  0.00  0.00    +0.000 A 
ATOM     27  C   UNL     1       7.046   4.020  11.769  0.00  0.00    +0.000 A 
ATOM     28  C   UNL     1       5.819   3.434  12.062  0.00  0.00    +0.000 A 
ATOM     29  C   UNL     1       5.253   3.565  13.334  0.00  0.00    +0.000 A 
ATOM     30  C   UNL     1       5.943   4.287  14.331  0.00  0.00    +0.000 A 
ATOM     31  H   UNL     1       8.433   6.125  15.147  0.00  0.00    +0.000 HD
ENDBRANCH  21  22
ENDBRANCH   5  21
TORSDOF 5
ENDMDL
MODEL 3
REMARK VINA RESULT:      -7.8      1.844      7.557
REMARK  Name = 
REMARK  6 active torsions:
REMARK  status: ('A' for Active; 'I' for Inactive)
REMARK    1  A    between atoms: C_1  and  C_2
REMARK    2  A    between atoms: C_5  and  N_6
REMARK    3  A    between atoms: C_7  and  C_9
REMARK    4  A    between atoms: C_9  and  N_10
REMARK    5  A    between atoms: C_14  and  C_15
REMARK    6  A    between atoms: C_15  and  C_16
REMARK                            x       y       z     vdW  Elec       q    Type
REMARK                         _______ _______ _______ _____ _____    ______ ____
ROOT
ATOM      1  N   UNL     1       2.245   3.208  19.785  0.00  0.00    +0.000 N 
ATOM      2  C   UNL     1       2.503   3.368  21.111  0.00  0.00    +0.000 C 
ATOM      3  O   UNL     1       2.945   2.543  21.890  0.00  0.00    +0.000 OA
ATOM      4  N   UNL     1       2.156   4.651  21.456  0.00  0.00    +0.000 N 
ATOM      5  C   UNL     1       1.725   5.437  20.323  0.00  0.00    +0.000 C 
ATOM      6  C   UNL     1       1.649   4.327  19.282  0.00  0.00    +0.000 C 
ATOM      7  O   UNL     1       1.143   4.418  18.170  0.00  0.00    +0.000 OA
ATOM      8  H   UNL     1       2.258   4.990  22.406  0.00  0.00    +0.000 HD
ENDROOT
BRANCH   1   9
ATOM      9  C   UNL     1       2.414   1.963  19.074  0.00  0.00    +0.000 C 
BRANCH   9  11
ATOM     10  N   UNL     1       3.824   3.417  17.712  0.00  0.00    +0.000 N 
ATOM     11  C   UNL     1       3.555   2.102  18.077  0.00  0.00    +0.000 C 
ATOM     12  O   UNL     1       4.174   1.100  17.719  0.00  0.00    +0.000 OA
ATOM     13  H   UNL     1       3.252   4.149  18.132  0.00  0.00    +0.000 HD
BRANCH  10  18
ATOM     14  C   UNL     1       7.828   5.200  14.023  0.00  0.00    +0.000 C 
ATOM     15  C   UNL     1       6.786   4.731  14.993  0.00  0.00    +0.000 A 
ATOM     16  C   UNL     1       5.541   4.313  14.526  0.00  0.00    +0.000 A 
ATOM     17  C   UNL     1       4.565   3.877  15.406  0.00  0.00    +0.000 A 
ATOM     18  C   UNL     1       4.796   3.843  16.785  0.00  0.00    +0.000 A 
ATOM     19  C   UNL     1       6.045   4.261  17.260  0.00  0.00    +0.000 A 
ATOM     20  C   UNL     1       7.037   4.699  16.372  0.00  0.00    +0.000 A 
ENDBRANCH  10  18
ENDBRANCH   9  11
ENDBRANCH   1   9
BRANCH   5  21
ATOM     21  C   UNL     1       2.754   6.477  19.868  0.00  0.00    +0.000 C 
BRANCH  21  22
ATOM     22  C   UNL     1       2.112   7.762  19.449  0.00  0.00    +0.000 A 
ATOM     23  C   UNL     1       2.081   8.289  18.174  0.00  0.00    +0.000 A 
ATOM     24  N   UNL     1       1.310   9.421  18.197  0.00  0.00    +0.000 N 
ATOM     25  C   UNL     1       0.827   9.642  19.466  0.00  0.00    +0.000 A 
ATOM     26  C   UNL     1      -0.043  10.631  19.942  0.00  0.00    +0.000 A 
ATOM     27  C   UNL     1      -0.362  10.613  21.302  0.00  0.00    +0.000 A 
ATOM     28  C   UNL     1       0.192   9.663  22.156  0.00  0.00    +0.000 A 
ATOM     29  C   UNL     1       1.060   8.683  21.665  0.00  0.00    +0.000 A 
ATOM     30  C   UNL     1       1.364   8.652  20.287  0.00  0.00    +0.000 A 
ATOM     31  H   UNL     1       1.101  10.001  17.397  0.00  0.00    +0.000 HD
ENDBRANCH  21  22
ENDBRANCH   5  21
TORSDOF 5
ENDMDL
MODEL 4
REMARK VINA RESULT:      -7.8      1.806      7.535
REMARK  Name = 
REMARK  6 active torsions:
REMARK  status: ('A' for Active; 'I' for Inactive)
REMARK    1  A    between atoms: C_1  and  C_2
REMARK    2  A    between atoms: C_5  and  N_6
REMARK    3  A    between atoms: C_7  and  C_9
REMARK    4  A    between atoms: C_9  and  N_10
REMARK    5  A    between atoms: C_14  and  C_15
REMARK    6  A    between atoms: C_15  and  C_16
REMARK                            x       y       z     vdW  Elec       q    Type
REMARK                         _______ _______ _______ _____ _____    ______ ____
ROOT
ATOM      1  N   UNL     1       2.283   3.571  19.903  0.00  0.00    +0.000 N 
ATOM      2  C   UNL     1       2.304   3.957  21.207  0.00  0.00    +0.000 C 
ATOM      3  O   UNL     1       2.635   3.296  22.174  0.00  0.00    +0.000 OA
ATOM      4  N   UNL     1       1.857   5.253  21.272  0.00  0.00    +0.000 N 
ATOM      5  C   UNL     1       1.599   5.820  19.968  0.00  0.00    +0.000 C 
ATOM      6  C   UNL     1       1.743   4.556  19.130  0.00  0.00    +0.000 C 
ATOM      7  O   UNL     1       1.432   4.438  17.950  0.00  0.00    +0.000 OA
ATOM      8  H   UNL     1       1.782   5.745  22.155  0.00  0.00    +0.000 HD
ENDROOT
BRANCH   1   9
ATOM      9  C   UNL     1       2.617   2.243  19.447  0.00  0.00    +0.000 C 
BRANCH   9  11
ATOM     10  N   UNL     1       4.134   3.607  18.107  0.00  0.00    +0.000 N 
ATOM     11  C   UNL     1       3.590   2.339  18.281  0.00  0.00    +0.000 C 
ATOM     12  O   UNL     1       3.864   1.328  17.635  0.00  0.00    +0.000 OA
ATOM     13  H   UNL     1       3.843   4.337  18.756  0.00  0.00    +0.000 HD
BRANCH  10  18
ATOM     14  C   UNL     1       7.711   5.150  13.907  0.00  0.00    +0.000 C 
ATOM     15  C   UNL     1       6.769   4.749  15.002  0.00  0.00    +0.000 A 
ATOM     16  C   UNL     1       7.226   4.668  16.316  0.00  0.00    +0.000 A 
ATOM     17  C   UNL     1       6.372   4.301  17.342  0.00  0.00    +0.000 A 
ATOM     18  C   UNL     1       5.030   3.998  17.093  0.00  0.00    +0.000 A 
ATOM     19  C   UNL     1       4.565   4.077  15.774  0.00  0.00    +0.000 A 
ATOM     20  C   UNL     1       5.425   4.454  14.734  0.00  0.00    +0.000 A 
ENDBRANCH  10  18
ENDBRANCH   9  11
ENDBRANCH   1   9
BRANCH   5  21
ATOM     21  C   UNL     1       2.652   6.838  19.520  0.00  0.00    +0.000 C 
BRANCH  21  22
ATOM     22  C   UNL     1       2.038   8.121  19.057  0.00  0.00    +0.000 A 
ATOM     23  C   UNL     1       2.118   8.663  17.790  0.00  0.00    +0.000 A 
ATOM     24  N   UNL     1       1.337   9.787  17.754  0.00  0.00    +0.000 N 
ATOM     25  C   UNL     1       0.736   9.988  18.976  0.00  0.00    +0.000 A 
ATOM     26  C   UNL     1      -0.184  10.963  19.380  0.00  0.00    +0.000 A 
ATOM     27  C   UNL     1      -0.627  10.926  20.705  0.00  0.00    +0.000 A 
ATOM     28  C   UNL     1      -0.144   9.972  21.596  0.00  0.00    +0.000 A 
ATOM     29  C   UNL     1       0.776   9.006  21.177  0.00  0.00    +0.000 A 
ATOM     30  C   UNL     1       1.206   8.994  19.833  0.00  0.00    +0.000 A 
ATOM     31  H   UNL     1       1.196  10.375  16.945  0.00  0.00    +0.000 HD
ENDBRANCH  21  22
ENDBRANCH   5  21
TORSDOF 5
ENDMDL
MODEL 5
REMARK VINA RESULT:      -7.8      3.400      5.368
REMARK  Name = 
REMARK  6 active torsions:
REMARK  status: ('A' for Active; 'I' for Inactive)
REMARK    1  A    between atoms: C_1  and  C_2
REMARK    2  A    between atoms: C_5  and  N_6
REMARK    3  A    between atoms: C_7  and  C_9
REMARK    4  A    between atoms: C_9  and  N_10
REMARK    5  A    between atoms: C_14  and  C_15
REMARK    6  A    between atoms: C_15  and  C_16
REMARK                            x       y       z     vdW  Elec       q    Type
REMARK                         _______ _______ _______ _____ _____    ______ ____
ROOT
ATOM      1  N   UNL     1       1.132   8.819  19.577  0.00  0.00    +0.000 N 
ATOM      2  C   UNL     1       1.475   8.110  20.686  0.00  0.00    +0.000 C 
ATOM      3  O   UNL     1       1.032   8.230  21.814  0.00  0.00    +0.000 OA
ATOM      4  N   UNL     1       2.451   7.213  20.329  0.00  0.00    +0.000 N 
ATOM      5  C   UNL     1       2.738   7.235  18.913  0.00  0.00    +0.000 C 
ATOM      6  C   UNL     1       1.931   8.469  18.529  0.00  0.00    +0.000 C 
ATOM      7  O   UNL     1       1.981   9.054  17.453  0.00  0.00    +0.000 OA
ATOM      8  H   UNL     1       2.863   6.581  21.005  0.00  0.00    +0.000 HD
ENDROOT
BRANCH   1   9
ATOM      9  C   UNL     1       0.185   9.909  19.575  0.00  0.00    +0.000 C 
BRANCH   9  11
ATOM     10  N   UNL     1       1.104  11.974  18.653  0.00  0.00    +0.000 N 
ATOM     11  C   UNL     1       0.923  11.219  19.808  0.00  0.00    +0.000 C 
ATOM     12  O   UNL     1       1.247  11.538  20.951  0.00  0.00    +0.000 OA
ATOM     13  H   UNL     1       0.736  11.596  17.781  0.00  0.00    +0.000 HD
BRANCH  10  18
ATOM     14  C   UNL     1       3.950  16.932  18.285  0.00  0.00    +0.000 C 
ATOM     15  C   UNL     1       3.210  15.631  18.376  0.00  0.00    +0.000 A 
ATOM     16  C   UNL     1       1.861  15.623  18.728  0.00  0.00    +0.000 A 
ATOM     17  C   UNL     1       1.160  14.433  18.817  0.00  0.00    +0.000 A 
ATOM     18  C   UNL     1       1.780  13.206  18.560  0.00  0.00    +0.000 A 
ATOM     19  C   UNL     1       3.135  13.208  18.206  0.00  0.00    +0.000 A 
ATOM     20  C   UNL     1       3.847  14.411  18.110  0.00  0.00    +0.000 A 
ENDBRANCH  10  18
ENDBRANCH   9  11
ENDBRANCH   1   9
BRANCH   5  21
ATOM     21  C   UNL     1       2.188   6.024  18.154  0.00  0.00    +0.000 C 
BRANCH  21  22
ATOM     22  C   UNL     1       3.253   5.021  17.841  0.00  0.00    +0.000 A 
ATOM     23  C   UNL     1       3.334   3.729  18.321  0.00  0.00    +0.000 A 
ATOM     24  N   UNL     1       4.397   3.113  17.715  0.00  0.00    +0.000 N 
ATOM     25  C   UNL     1       5.010   3.977  16.837  0.00  0.00    +0.000 A 
ATOM     26  C   UNL     1       6.084   3.765  15.963  0.00  0.00    +0.000 A 
ATOM     27  C   UNL     1       6.504   4.844  15.180  0.00  0.00    +0.000 A 
ATOM     28  C   UNL     1       5.896   6.091  15.292  0.00  0.00    +0.000 A 
ATOM     29  C   UNL     1       4.826   6.286  16.171  0.00  0.00    +0.000 A 
ATOM     30  C   UNL     1       4.353   5.202  16.941  0.00  0.00    +0.000 A 
ATOM     31  H   UNL     1       4.681   2.156  17.865  0.00  0.00    +0.000 HD
ENDBRANCH  21  22
ENDBRANCH   5  21
TORSDOF 5
ENDMDL
MODEL 6
REMARK VINA RESULT:      -7.6      3.492      6.538
REMARK  Name = 
REMARK  6 active torsions:
REMARK  status: ('A' for Active; 'I' for Inactive)
REMARK    1  A    between atoms: C_1  and  C_2
REMARK    2  A    between atoms: C_5  and  N_6
REMARK    3  A    between atoms: C_7  and  C_9
REMARK    4  A    between atoms: C_9  and  N_10
REMARK    5  A    between atoms: C_14  and  C_15
REMARK    6  A    between atoms: C_15  and  C_16
REMARK                            x       y       z     vdW  Elec       q    Type
REMARK                         _______ _______ _______ _____ _____    ______ ____
ROOT
ATOM      1  N   UNL     1       1.102   8.915  19.373  0.00  0.00    +0.000 N 
ATOM      2  C   UNL     1       1.483   8.218  20.476  0.00  0.00    +0.000 C 
ATOM      3  O   UNL     1       1.023   8.293  21.601  0.00  0.00    +0.000 OA
ATOM      4  N   UNL     1       2.521   7.394  20.118  0.00  0.00    +0.000 N 
ATOM      5  C   UNL     1       2.818   7.452  18.705  0.00  0.00    +0.000 C 
ATOM      6  C   UNL     1       1.932   8.633  18.328  0.00  0.00    +0.000 C 
ATOM      7  O   UNL     1       1.951   9.233  17.259  0.00  0.00    +0.000 OA
ATOM      8  H   UNL     1       2.970   6.783  20.791  0.00  0.00    +0.000 HD
ENDROOT
BRANCH   1   9
ATOM      9  C   UNL     1       0.083   9.937  19.374  0.00  0.00    +0.000 C 
BRANCH   9  11
ATOM     10  N   UNL     1       1.045  12.016  18.530  0.00  0.00    +0.000 N 
ATOM     11  C   UNL     1       0.722  11.286  19.670  0.00  0.00    +0.000 C 
ATOM     12  O   UNL     1       0.854  11.652  20.837  0.00  0.00    +0.000 OA
ATOM     13  H   UNL     1       0.830  11.597  17.626  0.00  0.00    +0.000 HD
BRANCH  10  18
ATOM     14  C   UNL     1       3.707  17.087  18.412  0.00  0.00    +0.000 C 
ATOM     15  C   UNL     1       3.016  15.757  18.438  0.00  0.00    +0.000 A 
ATOM     16  C   UNL     1       1.652  15.689  18.719  0.00  0.00    +0.000 A 
ATOM     17  C   UNL     1       0.995  14.471  18.747  0.00  0.00    +0.000 A 
ATOM     18  C   UNL     1       1.675  13.275  18.498  0.00  0.00    +0.000 A 
ATOM     19  C   UNL     1       3.045  13.337  18.216  0.00  0.00    +0.000 A 
ATOM     20  C   UNL     1       3.713  14.568  18.182  0.00  0.00    +0.000 A 
ENDBRANCH  10  18
ENDBRANCH   9  11
ENDBRANCH   1   9
BRANCH   5  21
ATOM     21  C   UNL     1       2.359   6.216  17.928  0.00  0.00    +0.000 C 
BRANCH  21  22
ATOM     22  C   UNL     1       3.023   4.965  18.410  0.00  0.00    +0.000 A 
ATOM     23  C   UNL     1       4.206   4.428  17.943  0.00  0.00    +0.000 A 
ATOM     24  N   UNL     1       4.517   3.341  18.716  0.00  0.00    +0.000 N 
ATOM     25  C   UNL     1       3.562   3.160  19.690  0.00  0.00    +0.000 A 
ATOM     26  C   UNL     1       3.499   2.226  20.731  0.00  0.00    +0.000 A 
ATOM     27  C   UNL     1       2.390   2.275  21.579  0.00  0.00    +0.000 A 
ATOM     28  C   UNL     1       1.370   3.200  21.374  0.00  0.00    +0.000 A 
ATOM     29  C   UNL     1       1.448   4.126  20.329  0.00  0.00    +0.000 A 
ATOM     30  C   UNL     1       2.578   4.126  19.484  0.00  0.00    +0.000 A 
ATOM     31  H   UNL     1       5.340   2.765  18.610  0.00  0.00    +0.000 HD
ENDBRANCH  21  22
ENDBRANCH   5  21
TORSDOF 5
ENDMDL
MODEL 7
REMARK VINA RESULT:      -7.5      1.327      1.917
REMARK  Name = 
REMARK  6 active torsions:
REMARK  status: ('A' for Active; 'I' for Inactive)
REMARK    1  A    between atoms: C_1  and  C_2
REMARK    2  A    between atoms: C_5  and  N_6
REMARK    3  A    between atoms: C_7  and  C_9
REMARK    4  A    between atoms: C_9  and  N_10
REMARK    5  A    between atoms: C_14  and  C_15
REMARK    6  A    between atoms: C_15  and  C_16
REMARK                            x       y       z     vdW  Elec       q    Type
REMARK                         _______ _______ _______ _____ _____    ______ ____
ROOT
ATOM      1  N   UNL     1       3.281   4.935  19.055  0.00  0.00    +0.000 N 
ATOM      2  C   UNL     1       3.513   5.935  18.163  0.00  0.00    +0.000 C 
ATOM      3  O   UNL     1       3.554   7.132  18.378  0.00  0.00    +0.000 OA
ATOM      4  N   UNL     1       3.682   5.364  16.925  0.00  0.00    +0.000 N 
ATOM      5  C   UNL     1       3.655   3.920  16.967  0.00  0.00    +0.000 C 
ATOM      6  C   UNL     1       3.201   3.736  18.410  0.00  0.00    +0.000 C 
ATOM      7  O   UNL     1       2.829   2.685  18.918  0.00  0.00    +0.000 OA
ATOM      8  H   UNL     1       3.861   5.928  16.102  0.00  0.00    +0.000 HD
ENDROOT
BRANCH   1   9
ATOM      9  C   UNL     1       2.982   5.152  20.451  0.00  0.00    +0.000 C 
BRANCH   9  11
ATOM     10  N   UNL     1       2.152   7.423  20.784  0.00  0.00    +0.000 N 
ATOM     11  C   UNL     1       1.795   6.096  20.572  0.00  0.00    +0.000 C 
ATOM     12  O   UNL     1       0.654   5.657  20.428  0.00  0.00    +0.000 OA
ATOM     13  H   UNL     1       3.147   7.640  20.835  0.00  0.00    +0.000 HD
BRANCH  10  18
ATOM     14  C   UNL     1      -1.465  11.783  21.637  0.00  0.00    +0.000 C 
ATOM     15  C   UNL     1      -0.515  10.643  21.421  0.00  0.00    +0.000 A 
ATOM     16  C   UNL     1      -0.108  10.315  20.129  0.00  0.00    +0.000 A 
ATOM     17  C   UNL     1       0.769   9.266  19.908  0.00  0.00    +0.000 A 
ATOM     18  C   UNL     1       1.269   8.505  20.969  0.00  0.00    +0.000 A 
ATOM     19  C   UNL     1       0.864   8.830  22.269  0.00  0.00    +0.000 A 
ATOM     20  C   UNL     1      -0.020   9.894  22.497  0.00  0.00    +0.000 A 
ENDBRANCH  10  18
ENDBRANCH   9  11
ENDBRANCH   1   9
BRANCH   5  21
ATOM     21  C   UNL     1       5.031   3.273  16.791  0.00  0.00    +0.000 C 
BRANCH  21  22
ATOM     22  C   UNL     1       5.961   4.129  15.992  0.00  0.00    +0.000 A 
ATOM     23  C   UNL     1       6.847   5.066  16.485  0.00  0.00    +0.000 A 
ATOM     24  N   UNL     1       7.582   5.554  15.437  0.00  0.00    +0.000 N 
ATOM     25  C   UNL     1       7.199   4.946  14.264  0.00  0.00    +0.000 A 
ATOM     26  C   UNL     1       7.711   5.082  12.967  0.00  0.00    +0.000 A 
ATOM     27  C   UNL     1       7.114   4.329  11.953  0.00  0.00    +0.000 A 
ATOM     28  C   UNL     1       6.028   3.500  12.219  0.00  0.00    +0.000 A 
ATOM     29  C   UNL     1       5.528   3.377  13.519  0.00  0.00    +0.000 A 
ATOM     30  C   UNL     1       6.141   4.092  14.570  0.00  0.00    +0.000 A 
ATOM     31  H   UNL     1       8.317   6.242  15.510  0.00  0.00    +0.000 HD
ENDBRANCH  21  22
ENDBRANCH   5  21
TORSDOF 5
ENDMDL
MODEL 8
REMARK VINA RESULT:      -7.5      1.666      8.398
REMARK  Name = 
REMARK  6 active torsions:
REMARK  status: ('A' for Active; 'I' for Inactive)
REMARK    1  A    between atoms: C_1  and  C_2
REMARK    2  A    between atoms: C_5  and  N_6
REMARK    3  A    between atoms: C_7  and  C_9
REMARK    4  A    between atoms: C_9  and  N_10
REMARK    5  A    between atoms: C_14  and  C_15
REMARK    6  A    between atoms: C_15  and  C_16
REMARK                            x       y       z     vdW  Elec       q    Type
REMARK                         _______ _______ _______ _____ _____    ______ ____
ROOT
ATOM      1  N   UNL     1       3.163   4.297  19.951  0.00  0.00    +0.000 N 
ATOM      2  C   UNL     1       2.053   3.728  20.493  0.00  0.00    +0.000 C 
ATOM      3  O   UNL     1       1.922   2.587  20.897  0.00  0.00    +0.000 OA
ATOM      4  N   UNL     1       1.055   4.671  20.498  0.00  0.00    +0.000 N 
ATOM      5  C   UNL     1       1.503   5.961  20.027  0.00  0.00    +0.000 C 
ATOM      6  C   UNL     1       2.881   5.558  19.516  0.00  0.00    +0.000 C 
ATOM      7  O   UNL     1       3.624   6.252  18.831  0.00  0.00    +0.000 OA
ATOM      8  H   UNL     1       0.129   4.461  20.854  0.00  0.00    +0.000 HD
ENDROOT
BRANCH   1   9
ATOM      9  C   UNL     1       4.398   3.590  19.711  0.00  0.00    +0.000 C 
BRANCH   9  11
ATOM     10  N   UNL     1       5.560   4.200  17.653  0.00  0.00    +0.000 N 
ATOM     11  C   UNL     1       4.581   3.386  18.214  0.00  0.00    +0.000 C 
ATOM     12  O   UNL     1       3.926   2.521  17.635  0.00  0.00    +0.000 OA
ATOM     13  H   UNL     1       6.054   4.839  18.274  0.00  0.00    +0.000 HD
BRANCH  10  18
ATOM     14  C   UNL     1       7.097   4.494  12.142  0.00  0.00    +0.000 C 
ATOM     15  C   UNL     1       6.703   4.416  13.586  0.00  0.00    +0.000 A 
ATOM     16  C   UNL     1       5.446   3.924  13.937  0.00  0.00    +0.000 A 
ATOM     17  C   UNL     1       5.063   3.844  15.265  0.00  0.00    +0.000 A 
ATOM     18  C   UNL     1       5.919   4.254  16.292  0.00  0.00    +0.000 A 
ATOM     19  C   UNL     1       7.182   4.749  15.946  0.00  0.00    +0.000 A 
ATOM     20  C   UNL     1       7.576   4.827  14.603  0.00  0.00    +0.000 A 
ENDBRANCH  10  18
ENDBRANCH   9  11
ENDBRANCH   1   9
BRANCH   5  21
ATOM     21  C   UNL     1       1.668   7.000  21.140  0.00  0.00    +0.000 C 
BRANCH  21  22
ATOM     22  C   UNL     1       1.230   8.364  20.710  0.00  0.00    +0.000 A 
ATOM     23  C   UNL     1       1.444   8.948  19.477  0.00  0.00    +0.000 A 
ATOM     24  N   UNL     1       0.798  10.155  19.457  0.00  0.00    +0.000 N 
ATOM     25  C   UNL     1       0.155  10.371  20.654  0.00  0.00    +0.000 A 
ATOM     26  C   UNL     1      -0.672  11.427  21.058  0.00  0.00    +0.000 A 
ATOM     27  C   UNL     1      -1.191  11.383  22.354  0.00  0.00    +0.000 A 
ATOM     28  C   UNL     1      -0.871  10.342  23.221  0.00  0.00    +0.000 A 
ATOM     29  C   UNL     1      -0.043   9.296  22.802  0.00  0.00    +0.000 A 
ATOM     30  C   UNL     1       0.460   9.293  21.483  0.00  0.00    +0.000 A 
ATOM     31  H   UNL     1       0.771  10.789  18.672  0.00  0.00    +0.000 HD
ENDBRANCH  21  22
ENDBRANCH   5  21
TORSDOF 5
ENDMDL
MODEL 9
REMARK VINA RESULT:      -7.5      1.609      2.663
REMARK  Name = 
REMARK  6 active torsions:
REMARK  status: ('A' for Active; 'I' for Inactive)
REMARK    1  A    between atoms: C_1  and  C_2
REMARK    2  A    between atoms: C_5  and  N_6
REMARK    3  A    between atoms: C_7  and  C_9
REMARK    4  A    between atoms: C_9  and  N_10
REMARK    5  A    between atoms: C_14  and  C_15
REMARK    6  A    between atoms: C_15  and  C_16
REMARK                            x       y       z     vdW  Elec       q    Type
REMARK                         _______ _______ _______ _____ _____    ______ ____
ROOT
ATOM      1  N   UNL     1       2.797   3.099  19.540  0.00  0.00    +0.000 N 
ATOM      2  C   UNL     1       1.965   2.270  18.855  0.00  0.00    +0.000 C 
ATOM      3  O   UNL     1       0.833   1.936  19.155  0.00  0.00    +0.000 OA
ATOM      4  N   UNL     1       2.630   1.833  17.737  0.00  0.00    +0.000 N 
ATOM      5  C   UNL     1       3.932   2.441  17.589  0.00  0.00    +0.000 C 
ATOM      6  C   UNL     1       4.022   3.136  18.942  0.00  0.00    +0.000 C 
ATOM      7  O   UNL     1       5.026   3.652  19.420  0.00  0.00    +0.000 OA
ATOM      8  H   UNL     1       2.199   1.194  17.079  0.00  0.00    +0.000 HD
ENDROOT
BRANCH   1   9
ATOM      9  C   UNL     1       2.473   3.699  20.812  0.00  0.00    +0.000 C 
BRANCH   9  11
ATOM     10  N   UNL     1       2.397   6.098  20.366  0.00  0.00    +0.000 N 
ATOM     11  C   UNL     1       1.640   4.952  20.583  0.00  0.00    +0.000 C 
ATOM     12  O   UNL     1       0.412   4.866  20.549  0.00  0.00    +0.000 OA
ATOM     13  H   UNL     1       3.412   6.000  20.378  0.00  0.00    +0.000 HD
BRANCH  10  18
ATOM     14  C   UNL     1       0.438  11.401  19.447  0.00  0.00    +0.000 C 
ATOM     15  C   UNL     1       0.949  10.012  19.680  0.00  0.00    +0.000 A 
ATOM     16  C   UNL     1       0.844   9.436  20.945  0.00  0.00    +0.000 A 
ATOM     17  C   UNL     1       1.310   8.154  21.181  0.00  0.00    +0.000 A 
ATOM     18  C   UNL     1       1.900   7.400  20.162  0.00  0.00    +0.000 A 
ATOM     19  C   UNL     1       2.009   7.972  18.889  0.00  0.00    +0.000 A 
ATOM     20  C   UNL     1       1.534   9.268  18.645  0.00  0.00    +0.000 A 
ENDBRANCH  10  18
ENDBRANCH   9  11
ENDBRANCH   1   9
BRANCH   5  21
ATOM     21  C   UNL     1       3.997   3.497  16.482  0.00  0.00    +0.000 C 
BRANCH  21  22
ATOM     22  C   UNL     1       5.342   4.147  16.397  0.00  0.00    +0.000 A 
ATOM     23  C   UNL     1       6.466   3.635  15.780  0.00  0.00    +0.000 A 
ATOM     24  N   UNL     1       7.454   4.582  15.839  0.00  0.00    +0.000 N 
ATOM     25  C   UNL     1       6.995   5.711  16.477  0.00  0.00    +0.000 A 
ATOM     26  C   UNL     1       7.628   6.939  16.707  0.00  0.00    +0.000 A 
ATOM     27  C   UNL     1       6.908   7.919  17.396  0.00  0.00    +0.000 A 
ATOM     28  C   UNL     1       5.621   7.668  17.864  0.00  0.00    +0.000 A 
ATOM     29  C   UNL     1       5.004   6.436  17.626  0.00  0.00    +0.000 A 
ATOM     30  C   UNL     1       5.692   5.444  16.894  0.00  0.00    +0.000 A 
ATOM     31  H   UNL     1       8.381   4.483  15.450  0.00  0.00    +0.000 HD
ENDBRANCH  21  22
ENDBRANCH   5  21
TORSDOF 5
ENDMDL
