MODEL 1
REMARK VINA RESULT:      -7.9      0.000      0.000
REMARK  Name = 
REMARK  5 active torsions:
REMARK  status: ('A' for Active; 'I' for Inactive)
REMARK    1  A    between atoms: C_1  and  C_2
REMARK    2  A    between atoms: C_4  and  N_5
REMARK    3  A    between atoms: C_11  and  N_12
REMARK    4  A    between atoms: C_13  and  C_15
REMARK    5  A    between atoms: C_27  and  C_28
REMARK                            x       y       z     vdW  Elec       q    Type
REMARK                         _______ _______ _______ _____ _____    ______ ____
ROOT
ATOM      1  N   UNL     1      -2.608  13.307  20.701  0.00  0.00    +0.000 N 
ATOM      2  C   UNL     1      -1.624  14.411  20.623  0.00  0.00    +0.000 C 
ATOM      3  C   UNL     1      -2.495  15.621  20.989  0.00  0.00    +0.000 C 
ATOM      4  C   UNL     1      -3.740  14.969  21.598  0.00  0.00    +0.000 C 
ATOM      5  C   UNL     1      -3.343  13.499  21.914  0.00  0.00    +0.000 C 
ATOM      6  C   UNL     1      -2.305  13.085  23.014  0.00  0.00    +0.000 C 
ATOM      7  C   UNL     1      -0.793  12.962  22.500  0.00  0.00    +0.000 C 
ATOM      8  C   UNL     1      -0.564  14.262  21.745  0.00  0.00    +0.000 C 
ENDROOT
BRANCH   1  12
ATOM      9  C   UNL     1      -5.857  11.908  17.656  0.00  0.00    +0.000 C 
ATOM     10  C   UNL     1      -4.598  11.567  18.341  0.00  0.00    +0.000 A 
ATOM     11  C   UNL     1      -4.316  12.233  19.506  0.00  0.00    +0.000 A 
ATOM     12  C   UNL     1      -3.007  12.355  19.810  0.00  0.00    +0.000 A 
ATOM     13  N   UNL     1      -2.048  11.622  19.175  0.00  0.00    +0.000 NA
ATOM     14  C   UNL     1      -2.446  10.816  18.171  0.00  0.00    +0.000 A 
ATOM     15  C   UNL     1      -1.409  10.055  17.407  0.00  0.00    +0.000 C 
ATOM     16  N   UNL     1      -3.693  10.819  17.680  0.00  0.00    +0.000 NA
ENDBRANCH   1  12
BRANCH   7  17
ATOM     17  N   UNL     1      -0.419  11.767  21.677  0.00  0.00    +0.000 N 
ATOM     18  C   UNL     1       0.008  10.535  22.199  0.00  0.00    +0.000 C 
ATOM     19  O   UNL     1      -0.009  10.284  23.400  0.00  0.00    +0.000 OA
ATOM     20  H   UNL     1      -0.264  11.910  20.683  0.00  0.00    +0.000 HD
BRANCH  18  21
ATOM     21  C   UNL     1       0.567   9.576  21.242  0.00  0.00    +0.000 A 
ATOM     22  C   UNL     1       0.908   8.229  21.370  0.00  0.00    +0.000 A 
ATOM     23  C   UNL     1       1.572   7.850  20.162  0.00  0.00    +0.000 A 
ATOM     24  C   UNL     1       2.326   6.747  19.700  0.00  0.00    +0.000 A 
ATOM     25  C   UNL     1       2.993   6.865  18.471  0.00  0.00    +0.000 A 
ATOM     26  F   UNL     1       3.863   5.912  18.100  0.00  0.00    +0.000 F 
ATOM     27  C   UNL     1       2.844   7.987  17.658  0.00  0.00    +0.000 A 
ATOM     28  C   UNL     1       2.030   9.050  18.061  0.00  0.00    +0.000 A 
ATOM     29  C   UNL     1       1.476   8.966  19.338  0.00  0.00    +0.000 A 
ATOM     30  O   UNL     1       0.853   9.992  19.974  0.00  0.00    +0.000 OA
ENDBRANCH  18  21
ENDBRANCH   7  17
TORSDOF 3
ENDMDL
MODEL 2
REMARK VINA RESULT:      -7.8      4.804      9.623
REMARK  Name = 
REMARK  5 active torsions:
REMARK  status: ('A' for Active; 'I' for Inactive)
REMARK    1  A    between atoms: C_1  and  C_2
REMARK    2  A    between atoms: C_4  and  N_5
REMARK    3  A    between atoms: C_11  and  N_12
REMARK    4  A    between atoms: C_13  and  C_15
REMARK    5  A    between atoms: C_27  and  C_28
REMARK                            x       y       z     vdW  Elec       q    Type
REMARK                         _______ _______ _______ _____ _____    ______ ____
ROOT
ATOM      1  N   UNL     1       3.891   3.373  18.779  0.00  0.00    +0.000 N 
ATOM      2  C   UNL     1       2.953   2.546  17.986  0.00  0.00    +0.000 C 
ATOM      3  C   UNL     1       3.556   1.146  18.165  0.00  0.00    +0.000 C 
ATOM      4  C   UNL     1       4.512   1.338  19.347  0.00  0.00    +0.000 C 
ATOM      5  C   UNL     1       4.103   2.682  20.014  0.00  0.00    +0.000 C 
ATOM      6  C   UNL     1       2.750   2.911  20.772  0.00  0.00    +0.000 C 
ATOM      7  C   UNL     1       1.553   3.460  19.862  0.00  0.00    +0.000 C 
ATOM      8  C   UNL     1       1.557   2.525  18.662  0.00  0.00    +0.000 C 
ENDROOT
BRANCH   1  12
ATOM      9  C   UNL     1       7.956   5.600  19.328  0.00  0.00    +0.000 C 
ATOM     10  C   UNL     1       6.601   5.657  18.753  0.00  0.00    +0.000 A 
ATOM     11  C   UNL     1       5.651   4.833  19.300  0.00  0.00    +0.000 A 
ATOM     12  C   UNL     1       4.646   4.467  18.476  0.00  0.00    +0.000 A 
ATOM     13  N   UNL     1       4.422   5.099  17.289  0.00  0.00    +0.000 NA
ATOM     14  C   UNL     1       5.291   6.062  16.923  0.00  0.00    +0.000 A 
ATOM     15  C   UNL     1       5.114   6.722  15.593  0.00  0.00    +0.000 C 
ATOM     16  N   UNL     1       6.427   6.314  17.589  0.00  0.00    +0.000 NA
ENDBRANCH   1  12
BRANCH   7  17
ATOM     17  N   UNL     1       1.580   4.899  19.446  0.00  0.00    +0.000 N 
ATOM     18  C   UNL     1       2.014   5.961  20.258  0.00  0.00    +0.000 C 
ATOM     19  O   UNL     1       2.536   5.784  21.354  0.00  0.00    +0.000 OA
ATOM     20  H   UNL     1       1.067   5.157  18.609  0.00  0.00    +0.000 HD
BRANCH  18  21
ATOM     21  C   UNL     1       1.733   7.315  19.772  0.00  0.00    +0.000 A 
ATOM     22  C   UNL     1       2.047   7.954  18.573  0.00  0.00    +0.000 A 
ATOM     23  C   UNL     1       1.673   9.326  18.721  0.00  0.00    +0.000 A 
ATOM     24  C   UNL     1       1.875  10.534  18.015  0.00  0.00    +0.000 A 
ATOM     25  C   UNL     1       1.495  11.736  18.631  0.00  0.00    +0.000 A 
ATOM     26  F   UNL     1       1.844  12.904  18.068  0.00  0.00    +0.000 F 
ATOM     27  C   UNL     1       0.834  11.757  19.857  0.00  0.00    +0.000 A 
ATOM     28  C   UNL     1       0.548  10.564  20.528  0.00  0.00    +0.000 A 
ATOM     29  C   UNL     1       1.043   9.392  19.959  0.00  0.00    +0.000 A 
ATOM     30  O   UNL     1       1.056   8.183  20.579  0.00  0.00    +0.000 OA
ENDBRANCH  18  21
ENDBRANCH   7  17
TORSDOF 3
ENDMDL
MODEL 3
REMARK VINA RESULT:      -7.7      3.700      4.961
REMARK  Name = 
REMARK  5 active torsions:
REMARK  status: ('A' for Active; 'I' for Inactive)
REMARK    1  A    between atoms: C_1  and  C_2
REMARK    2  A    between atoms: C_4  and  N_5
REMARK    3  A    between atoms: C_11  and  N_12
REMARK    4  A    between atoms: C_13  and  C_15
REMARK    5  A    between atoms: C_27  and  C_28
REMARK                            x       y       z     vdW  Elec       q    Type
REMARK                         _______ _______ _______ _____ _____    ______ ____
ROOT
ATOM      1  N   UNL     1      -6.099  13.844  22.184  0.00  0.00    +0.000 N 
ATOM      2  C   UNL     1      -5.262  15.065  22.214  0.00  0.00    +0.000 C 
ATOM      3  C   UNL     1      -6.044  15.948  23.196  0.00  0.00    +0.000 C 
ATOM      4  C   UNL     1      -6.988  14.948  23.870  0.00  0.00    +0.000 C 
ATOM      5  C   UNL     1      -6.422  13.537  23.544  0.00  0.00    +0.000 C 
ATOM      6  C   UNL     1      -5.065  12.984  24.103  0.00  0.00    +0.000 C 
ATOM      7  C   UNL     1      -3.790  13.270  23.178  0.00  0.00    +0.000 C 
ATOM      8  C   UNL     1      -3.893  14.757  22.876  0.00  0.00    +0.000 C 
ENDROOT
BRANCH   1  12
ATOM      9  C   UNL     1      -7.293  13.759  17.673  0.00  0.00    +0.000 C 
ATOM     10  C   UNL     1      -7.381  13.071  18.972  0.00  0.00    +0.000 A 
ATOM     11  C   UNL     1      -7.170  13.824  20.098  0.00  0.00    +0.000 A 
ATOM     12  C   UNL     1      -6.701  13.156  21.173  0.00  0.00    +0.000 A 
ATOM     13  N   UNL     1      -6.715  11.794  21.237  0.00  0.00    +0.000 NA
ATOM     14  C   UNL     1      -7.149  11.125  20.150  0.00  0.00    +0.000 A 
ATOM     15  C   UNL     1      -7.107   9.630  20.163  0.00  0.00    +0.000 C 
ATOM     16  N   UNL     1      -7.416  11.724  18.981  0.00  0.00    +0.000 NA
ENDBRANCH   1  12
BRANCH   7  17
ATOM     17  N   UNL     1      -3.624  12.459  21.928  0.00  0.00    +0.000 N 
ATOM     18  C   UNL     1      -2.557  12.590  21.023  0.00  0.00    +0.000 C 
ATOM     19  O   UNL     1      -1.585  13.305  21.247  0.00  0.00    +0.000 OA
ATOM     20  H   UNL     1      -4.426  11.929  21.601  0.00  0.00    +0.000 HD
BRANCH  18  21
ATOM     21  C   UNL     1      -2.696  11.894  19.741  0.00  0.00    +0.000 A 
ATOM     22  C   UNL     1      -1.821  11.071  19.033  0.00  0.00    +0.000 A 
ATOM     23  C   UNL     1      -2.424  10.817  17.761  0.00  0.00    +0.000 A 
ATOM     24  C   UNL     1      -2.031  10.255  16.525  0.00  0.00    +0.000 A 
ATOM     25  C   UNL     1      -2.897  10.385  15.429  0.00  0.00    +0.000 A 
ATOM     26  F   UNL     1      -2.471  10.029  14.207  0.00  0.00    +0.000 F 
ATOM     27  C   UNL     1      -4.163  10.953  15.556  0.00  0.00    +0.000 A 
ATOM     28  C   UNL     1      -4.603  11.435  16.793  0.00  0.00    +0.000 A 
ATOM     29  C   UNL     1      -3.681  11.407  17.839  0.00  0.00    +0.000 A 
ATOM     30  O   UNL     1      -3.855  12.032  19.032  0.00  0.00    +0.000 OA
ENDBRANCH  18  21
ENDBRANCH   7  17
TORSDOF 3
ENDMDL
MODEL 4
REMARK VINA RESULT:      -7.7      5.600      9.092
REMARK  Name = 
REMARK  5 active torsions:
REMARK  status: ('A' for Active; 'I' for Inactive)
REMARK    1  A    between atoms: C_1  and  C_2
REMARK    2  A    between atoms: C_4  and  N_5
REMARK    3  A    between atoms: C_11  and  N_12
REMARK    4  A    between atoms: C_13  and  C_15
REMARK    5  A    between atoms: C_27  and  C_28
REMARK                            x       y       z     vdW  Elec       q    Type
REMARK                         _______ _______ _______ _____ _____    ______ ____
ROOT
ATOM      1  N   UNL     1       2.290   4.402  19.625  0.00  0.00    +0.000 N 
ATOM      2  C   UNL     1       2.825   3.334  20.501  0.00  0.00    +0.000 C 
ATOM      3  C   UNL     1       1.563   2.505  20.776  0.00  0.00    +0.000 C 
ATOM      4  C   UNL     1       0.591   3.002  19.702  0.00  0.00    +0.000 C 
ATOM      5  C   UNL     1       1.459   3.756  18.655  0.00  0.00    +0.000 C 
ATOM      6  C   UNL     1       2.504   3.062  17.715  0.00  0.00    +0.000 C 
ATOM      7  C   UNL     1       3.992   2.986  18.303  0.00  0.00    +0.000 C 
ATOM      8  C   UNL     1       3.796   2.425  19.703  0.00  0.00    +0.000 C 
ENDROOT
BRANCH   1  12
ATOM      9  C   UNL     1       2.472   8.456  17.321  0.00  0.00    +0.000 C 
ATOM     10  C   UNL     1       2.462   7.801  18.641  0.00  0.00    +0.000 A 
ATOM     11  C   UNL     1       2.833   6.482  18.690  0.00  0.00    +0.000 A 
ATOM     12  C   UNL     1       2.309   5.762  19.705  0.00  0.00    +0.000 A 
ATOM     13  N   UNL     1       1.699   6.356  20.770  0.00  0.00    +0.000 NA
ATOM     14  C   UNL     1       1.568   7.697  20.742  0.00  0.00    +0.000 A 
ATOM     15  C   UNL     1       0.839   8.371  21.861  0.00  0.00    +0.000 C 
ATOM     16  N   UNL     1       1.868   8.440  19.668  0.00  0.00    +0.000 NA
ENDBRANCH   1  12
BRANCH   7  17
ATOM     17  N   UNL     1       4.814   4.239  18.315  0.00  0.00    +0.000 N 
ATOM     18  C   UNL     1       5.640   4.667  17.263  0.00  0.00    +0.000 C 
ATOM     19  O   UNL     1       5.663   4.107  16.171  0.00  0.00    +0.000 OA
ATOM     20  H   UNL     1       4.949   4.704  19.208  0.00  0.00    +0.000 HD
BRANCH  18  21
ATOM     21  C   UNL     1       6.553   5.775  17.555  0.00  0.00    +0.000 A 
ATOM     22  C   UNL     1       7.650   5.872  18.412  0.00  0.00    +0.000 A 
ATOM     23  C   UNL     1       8.053   7.243  18.420  0.00  0.00    +0.000 A 
ATOM     24  C   UNL     1       8.924   8.059  19.177  0.00  0.00    +0.000 A 
ATOM     25  C   UNL     1       8.875   9.448  18.979  0.00  0.00    +0.000 A 
ATOM     26  F   UNL     1       9.550  10.256  19.812  0.00  0.00    +0.000 F 
ATOM     27  C   UNL     1       8.078  10.022  17.991  0.00  0.00    +0.000 A 
ATOM     28  C   UNL     1       7.277   9.220  17.173  0.00  0.00    +0.000 A 
ATOM     29  C   UNL     1       7.247   7.857  17.468  0.00  0.00    +0.000 A 
ATOM     30  O   UNL     1       6.364   6.974  16.932  0.00  0.00    +0.000 OA
ENDBRANCH  18  21
ENDBRANCH   7  17
TORSDOF 3
ENDMDL
MODEL 5
REMARK VINA RESULT:      -7.4      4.755      9.465
REMARK  Name = 
REMARK  5 active torsions:
REMARK  status: ('A' for Active; 'I' for Inactive)
REMARK    1  A    between atoms: C_1  and  C_2
REMARK    2  A    between atoms: C_4  and  N_5
REMARK    3  A    between atoms: C_11  and  N_12
REMARK    4  A    between atoms: C_13  and  C_15
REMARK    5  A    between atoms: C_27  and  C_28
REMARK                            x       y       z     vdW  Elec       q    Type
REMARK                         _______ _______ _______ _____ _____    ______ ____
ROOT
ATOM      1  N   UNL     1       3.507   3.416  18.566  0.00  0.00    +0.000 N 
ATOM      2  C   UNL     1       2.452   2.775  17.749  0.00  0.00    +0.000 C 
ATOM      3  C   UNL     1       2.996   1.346  17.616  0.00  0.00    +0.000 C 
ATOM      4  C   UNL     1       4.074   1.292  18.703  0.00  0.00    +0.000 C 
ATOM      5  C   UNL     1       3.806   2.509  19.633  0.00  0.00    +0.000 C 
ATOM      6  C   UNL     1       2.550   2.646  20.562  0.00  0.00    +0.000 C 
ATOM      7  C   UNL     1       1.298   3.388  19.895  0.00  0.00    +0.000 C 
ATOM      8  C   UNL     1       1.133   2.682  18.558  0.00  0.00    +0.000 C 
ENDROOT
BRANCH   1  12
ATOM      9  C   UNL     1       7.532   5.581  19.516  0.00  0.00    +0.000 C 
ATOM     10  C   UNL     1       6.219   5.679  18.854  0.00  0.00    +0.000 A 
ATOM     11  C   UNL     1       5.232   4.832  19.287  0.00  0.00    +0.000 A 
ATOM     12  C   UNL     1       4.285   4.520  18.378  0.00  0.00    +0.000 A 
ATOM     13  N   UNL     1       4.144   5.218  17.215  0.00  0.00    +0.000 NA
ATOM     14  C   UNL     1       5.040   6.193  16.964  0.00  0.00    +0.000 A 
ATOM     15  C   UNL     1       4.957   6.927  15.664  0.00  0.00    +0.000 C 
ATOM     16  N   UNL     1       6.128   6.400  17.719  0.00  0.00    +0.000 NA
ENDBRANCH   1  12
BRANCH   7  17
ATOM     17  N   UNL     1       1.359   4.877  19.734  0.00  0.00    +0.000 N 
ATOM     18  C   UNL     1       1.900   5.765  20.679  0.00  0.00    +0.000 C 
ATOM     19  O   UNL     1       2.494   5.381  21.682  0.00  0.00    +0.000 OA
ATOM     20  H   UNL     1       0.797   5.294  18.999  0.00  0.00    +0.000 HD
BRANCH  18  21
ATOM     21  C   UNL     1       1.645   7.191  20.460  0.00  0.00    +0.000 A 
ATOM     22  C   UNL     1       1.035   8.158  21.260  0.00  0.00    +0.000 A 
ATOM     23  C   UNL     1       0.907   9.338  20.464  0.00  0.00    +0.000 A 
ATOM     24  C   UNL     1       0.238  10.579  20.557  0.00  0.00    +0.000 A 
ATOM     25  C   UNL     1       0.209  11.407  19.424  0.00  0.00    +0.000 A 
ATOM     26  F   UNL     1      -0.574  12.498  19.425  0.00  0.00    +0.000 F 
ATOM     27  C   UNL     1       0.906  11.086  18.262  0.00  0.00    +0.000 A 
ATOM     28  C   UNL     1       1.647   9.903  18.184  0.00  0.00    +0.000 A 
ATOM     29  C   UNL     1       1.562   9.038  19.274  0.00  0.00    +0.000 A 
ATOM     30  O   UNL     1       2.025   7.761  19.280  0.00  0.00    +0.000 OA
ENDBRANCH  18  21
ENDBRANCH   7  17
TORSDOF 3
ENDMDL
MODEL 6
REMARK VINA RESULT:      -7.2      4.021      7.805
REMARK  Name = 
REMARK  5 active torsions:
REMARK  status: ('A' for Active; 'I' for Inactive)
REMARK    1  A    between atoms: C_1  and  C_2
REMARK    2  A    between atoms: C_4  and  N_5
REMARK    3  A    between atoms: C_11  and  N_12
REMARK    4  A    between atoms: C_13  and  C_15
REMARK    5  A    between atoms: C_27  and  C_28
REMARK                            x       y       z     vdW  Elec       q    Type
REMARK                         _______ _______ _______ _____ _____    ______ ____
ROOT
ATOM      1  N   UNL     1      -0.329  11.185  19.501  0.00  0.00    +0.000 N 
ATOM      2  C   UNL     1       0.059  12.432  18.802  0.00  0.00    +0.000 C 
ATOM      3  C   UNL     1       1.456  12.068  18.281  0.00  0.00    +0.000 C 
ATOM      4  C   UNL     1       1.484  10.543  18.427  0.00  0.00    +0.000 C 
ATOM      5  C   UNL     1       0.005  10.104  18.624  0.00  0.00    +0.000 C 
ATOM      6  C   UNL     1      -1.098  10.209  17.515  0.00  0.00    +0.000 C 
ATOM      7  C   UNL     1      -1.924  11.581  17.514  0.00  0.00    +0.000 C 
ATOM      8  C   UNL     1      -0.843  12.650  17.560  0.00  0.00    +0.000 C 
ENDROOT
BRANCH   1  12
ATOM      9  C   UNL     1       0.675   9.160  23.585  0.00  0.00    +0.000 C 
ATOM     10  C   UNL     1      -0.334   9.894  22.801  0.00  0.00    +0.000 A 
ATOM     11  C   UNL     1      -0.212   9.865  21.436  0.00  0.00    +0.000 A 
ATOM     12  C   UNL     1      -0.730  10.923  20.777  0.00  0.00    +0.000 A 
ATOM     13  N   UNL     1      -1.572  11.808  21.384  0.00  0.00    +0.000 NA
ATOM     14  C   UNL     1      -1.814  11.633  22.698  0.00  0.00    +0.000 A 
ATOM     15  C   UNL     1      -2.675  12.628  23.408  0.00  0.00    +0.000 C 
ATOM     16  N   UNL     1      -1.159  10.738  23.451  0.00  0.00    +0.000 NA
ENDBRANCH   1  12
BRANCH   7  17
ATOM     17  N   UNL     1      -2.956  11.788  18.581  0.00  0.00    +0.000 N 
ATOM     18  C   UNL     1      -4.336  11.912  18.349  0.00  0.00    +0.000 C 
ATOM     19  O   UNL     1      -4.839  11.732  17.244  0.00  0.00    +0.000 OA
ATOM     20  H   UNL     1      -2.631  12.061  19.504  0.00  0.00    +0.000 HD
BRANCH  18  21
ATOM     21  C   UNL     1      -5.153  12.359  19.480  0.00  0.00    +0.000 A 
ATOM     22  C   UNL     1      -5.079  13.494  20.287  0.00  0.00    +0.000 A 
ATOM     23  C   UNL     1      -6.026  13.318  21.343  0.00  0.00    +0.000 A 
ATOM     24  C   UNL     1      -6.333  13.948  22.571  0.00  0.00    +0.000 A 
ATOM     25  C   UNL     1      -7.240  13.315  23.435  0.00  0.00    +0.000 A 
ATOM     26  F   UNL     1      -7.405  13.791  24.680  0.00  0.00    +0.000 F 
ATOM     27  C   UNL     1      -7.916  12.153  23.069  0.00  0.00    +0.000 A 
ATOM     28  C   UNL     1      -7.689  11.566  21.820  0.00  0.00    +0.000 A 
ATOM     29  C   UNL     1      -6.696  12.141  21.029  0.00  0.00    +0.000 A 
ATOM     30  O   UNL     1      -6.190  11.577  19.901  0.00  0.00    +0.000 OA
ENDBRANCH  18  21
ENDBRANCH   7  17
TORSDOF 3
ENDMDL
MODEL 7
REMARK VINA RESULT:      -7.2      3.097      5.611
REMARK  Name = 
REMARK  5 active torsions:
REMARK  status: ('A' for Active; 'I' for Inactive)
REMARK    1  A    between atoms: C_1  and  C_2
REMARK    2  A    between atoms: C_4  and  N_5
REMARK    3  A    between atoms: C_11  and  N_12
REMARK    4  A    between atoms: C_13  and  C_15
REMARK    5  A    between atoms: C_27  and  C_28
REMARK                            x       y       z     vdW  Elec       q    Type
REMARK                         _______ _______ _______ _____ _____    ______ ____
ROOT
ATOM      1  N   UNL     1      -5.734  13.497  22.690  0.00  0.00    +0.000 N 
ATOM      2  C   UNL     1      -6.698  12.374  22.740  0.00  0.00    +0.000 C 
ATOM      3  C   UNL     1      -7.607  12.803  23.900  0.00  0.00    +0.000 C 
ATOM      4  C   UNL     1      -7.257  14.285  24.072  0.00  0.00    +0.000 C 
ATOM      5  C   UNL     1      -6.504  14.701  22.777  0.00  0.00    +0.000 C 
ATOM      6  C   UNL     1      -7.170  14.785  21.361  0.00  0.00    +0.000 C 
ATOM      7  C   UNL     1      -7.090  13.440  20.497  0.00  0.00    +0.000 C 
ATOM      8  C   UNL     1      -7.575  12.366  21.460  0.00  0.00    +0.000 C 
ENDROOT
BRANCH   1  12
ATOM      9  C   UNL     1      -1.984  15.878  24.122  0.00  0.00    +0.000 C 
ATOM     10  C   UNL     1      -2.475  14.706  23.377  0.00  0.00    +0.000 A 
ATOM     11  C   UNL     1      -3.765  14.750  22.914  0.00  0.00    +0.000 A 
ATOM     12  C   UNL     1      -4.374  13.555  22.759  0.00  0.00    +0.000 A 
ATOM     13  N   UNL     1      -3.677  12.383  22.772  0.00  0.00    +0.000 NA
ATOM     14  C   UNL     1      -2.354  12.451  23.022  0.00  0.00    +0.000 A 
ATOM     15  C   UNL     1      -1.575  11.177  23.115  0.00  0.00    +0.000 C 
ATOM     16  N   UNL     1      -1.737  13.578  23.401  0.00  0.00    +0.000 NA
ENDBRANCH   1  12
BRANCH   7  17
ATOM     17  N   UNL     1      -5.776  13.075  19.874  0.00  0.00    +0.000 N 
ATOM     18  C   UNL     1      -5.618  12.173  18.808  0.00  0.00    +0.000 C 
ATOM     19  O   UNL     1      -6.570  11.692  18.201  0.00  0.00    +0.000 OA
ATOM     20  H   UNL     1      -4.931  13.329  20.375  0.00  0.00    +0.000 HD
BRANCH  18  21
ATOM     21  C   UNL     1      -4.247  11.754  18.503  0.00  0.00    +0.000 A 
ATOM     22  C   UNL     1      -3.734  10.895  17.531  0.00  0.00    +0.000 A 
ATOM     23  C   UNL     1      -2.343  10.725  17.815  0.00  0.00    +0.000 A 
ATOM     24  C   UNL     1      -1.297   9.880  17.384  0.00  0.00    +0.000 A 
ATOM     25  C   UNL     1      -0.083   9.910  18.088  0.00  0.00    +0.000 A 
ATOM     26  F   UNL     1       0.857   8.989  17.821  0.00  0.00    +0.000 F 
ATOM     27  C   UNL     1       0.146  10.819  19.119  0.00  0.00    +0.000 A 
ATOM     28  C   UNL     1      -0.849  11.724  19.499  0.00  0.00    +0.000 A 
ATOM     29  C   UNL     1      -2.087  11.594  18.871  0.00  0.00    +0.000 A 
ATOM     30  O   UNL     1      -3.221  12.228  19.268  0.00  0.00    +0.000 OA
ENDBRANCH  18  21
ENDBRANCH   7  17
TORSDOF 3
ENDMDL
MODEL 8
REMARK VINA RESULT:      -7.1      1.393      1.952
REMARK  Name = 
REMARK  5 active torsions:
REMARK  status: ('A' for Active; 'I' for Inactive)
REMARK    1  A    between atoms: C_1  and  C_2
REMARK    2  A    between atoms: C_4  and  N_5
REMARK    3  A    between atoms: C_11  and  N_12
REMARK    4  A    between atoms: C_13  and  C_15
REMARK    5  A    between atoms: C_27  and  C_28
REMARK                            x       y       z     vdW  Elec       q    Type
REMARK                         _______ _______ _______ _____ _____    ______ ____
ROOT
ATOM      1  N   UNL     1      -4.173  13.501  21.341  0.00  0.00    +0.000 N 
ATOM      2  C   UNL     1      -3.606  14.861  21.496  0.00  0.00    +0.000 C 
ATOM      3  C   UNL     1      -4.831  15.647  21.983  0.00  0.00    +0.000 C 
ATOM      4  C   UNL     1      -5.800  14.538  22.405  0.00  0.00    +0.000 C 
ATOM      5  C   UNL     1      -4.945  13.244  22.519  0.00  0.00    +0.000 C 
ATOM      6  C   UNL     1      -3.842  13.012  23.609  0.00  0.00    +0.000 C 
ATOM      7  C   UNL     1      -2.368  13.468  23.183  0.00  0.00    +0.000 C 
ATOM      8  C   UNL     1      -2.570  14.879  22.650  0.00  0.00    +0.000 C 
ENDROOT
BRANCH   1  12
ATOM      9  C   UNL     1      -6.800  11.494  18.047  0.00  0.00    +0.000 C 
ATOM     10  C   UNL     1      -5.472  11.551  18.683  0.00  0.00    +0.000 A 
ATOM     11  C   UNL     1      -5.405  12.071  19.950  0.00  0.00    +0.000 A 
ATOM     12  C   UNL     1      -4.226  12.632  20.293  0.00  0.00    +0.000 A 
ATOM     13  N   UNL     1      -3.094  12.438  19.556  0.00  0.00    +0.000 NA
ATOM     14  C   UNL     1      -3.208  11.721  18.421  0.00  0.00    +0.000 A 
ATOM     15  C   UNL     1      -2.000  11.552  17.554  0.00  0.00    +0.000 C 
ATOM     16  N   UNL     1      -4.386  11.329  17.917  0.00  0.00    +0.000 NA
ENDBRANCH   1  12
BRANCH   7  17
ATOM     17  N   UNL     1      -1.612  12.611  22.214  0.00  0.00    +0.000 N 
ATOM     18  C   UNL     1      -1.155  11.310  22.482  0.00  0.00    +0.000 C 
ATOM     19  O   UNL     1      -1.451  10.703  23.507  0.00  0.00    +0.000 OA
ATOM     20  H   UNL     1      -1.224  13.061  21.391  0.00  0.00    +0.000 HD
BRANCH  18  21
ATOM     21  C   UNL     1      -0.224  10.729  21.511  0.00  0.00    +0.000 A 
ATOM     22  C   UNL     1       0.223  11.181  20.269  0.00  0.00    +0.000 A 
ATOM     23  C   UNL     1       0.989  10.121  19.690  0.00  0.00    +0.000 A 
ATOM     24  C   UNL     1       1.548   9.821  18.428  0.00  0.00    +0.000 A 
ATOM     25  C   UNL     1       2.072   8.536  18.220  0.00  0.00    +0.000 A 
ATOM     26  F   UNL     1       2.435   8.165  16.982  0.00  0.00    +0.000 F 
ATOM     27  C   UNL     1       2.151   7.600  19.248  0.00  0.00    +0.000 A 
ATOM     28  C   UNL     1       1.683   7.912  20.528  0.00  0.00    +0.000 A 
ATOM     29  C   UNL     1       1.055   9.147  20.681  0.00  0.00    +0.000 A 
ATOM     30  O   UNL     1       0.350   9.520  21.781  0.00  0.00    +0.000 OA
ENDBRANCH  18  21
ENDBRANCH   7  17
TORSDOF 3
ENDMDL
MODEL 9
REMARK VINA RESULT:      -7.1      1.370      2.140
REMARK  Name = 
REMARK  5 active torsions:
REMARK  status: ('A' for Active; 'I' for Inactive)
REMARK    1  A    between atoms: C_1  and  C_2
REMARK    2  A    between atoms: C_4  and  N_5
REMARK    3  A    between atoms: C_11  and  N_12
REMARK    4  A    between atoms: C_13  and  C_15
REMARK    5  A    between atoms: C_27  and  C_28
REMARK                            x       y       z     vdW  Elec       q    Type
REMARK                         _______ _______ _______ _____ _____    ______ ____
ROOT
ATOM      1  N   UNL     1      -2.124  13.680  21.368  0.00  0.00    +0.000 N 
ATOM      2  C   UNL     1      -1.243  14.127  22.471  0.00  0.00    +0.000 C 
ATOM      3  C   UNL     1      -1.883  15.470  22.848  0.00  0.00    +0.000 C 
ATOM      4  C   UNL     1      -3.254  15.393  22.169  0.00  0.00    +0.000 C 
ATOM      5  C   UNL     1      -3.469  13.896  21.807  0.00  0.00    +0.000 C 
ATOM      6  C   UNL     1      -3.673  12.757  22.865  0.00  0.00    +0.000 C 
ATOM      7  C   UNL     1      -2.327  12.034  23.343  0.00  0.00    +0.000 C 
ATOM      8  C   UNL     1      -1.405  13.190  23.697  0.00  0.00    +0.000 C 
ENDROOT
BRANCH   1  12
ATOM      9  C   UNL     1       0.997  13.327  17.916  0.00  0.00    +0.000 C 
ATOM     10  C   UNL     1      -0.415  13.173  18.306  0.00  0.00    +0.000 A 
ATOM     11  C   UNL     1      -0.840  13.859  19.415  0.00  0.00    +0.000 A 
ATOM     12  C   UNL     1      -1.883  13.316  20.077  0.00  0.00    +0.000 A 
ATOM     13  N   UNL     1      -2.650  12.330  19.530  0.00  0.00    +0.000 NA
ATOM     14  C   UNL     1      -2.285  11.857  18.322  0.00  0.00    +0.000 A 
ATOM     15  C   UNL     1      -3.062  10.726  17.728  0.00  0.00    +0.000 C 
ATOM     16  N   UNL     1      -1.138  12.199  17.718  0.00  0.00    +0.000 NA
ENDBRANCH   1  12
BRANCH   7  17
ATOM     17  N   UNL     1      -1.670  11.066  22.405  0.00  0.00    +0.000 N 
ATOM     18  C   UNL     1      -0.580  10.244  22.735  0.00  0.00    +0.000 C 
ATOM     19  O   UNL     1      -0.143  10.152  23.878  0.00  0.00    +0.000 OA
ATOM     20  H   UNL     1      -1.884  11.151  21.416  0.00  0.00    +0.000 HD
BRANCH  18  21
ATOM     21  C   UNL     1       0.081   9.555  21.624  0.00  0.00    +0.000 A 
ATOM     22  C   UNL     1       0.817   8.371  21.572  0.00  0.00    +0.000 A 
ATOM     23  C   UNL     1       1.368   8.279  20.256  0.00  0.00    +0.000 A 
ATOM     24  C   UNL     1       2.331   7.485  19.593  0.00  0.00    +0.000 A 
ATOM     25  C   UNL     1       2.737   7.867  18.305  0.00  0.00    +0.000 A 
ATOM     26  F   UNL     1       3.780   7.246  17.731  0.00  0.00    +0.000 F 
ATOM     27  C   UNL     1       2.142   8.933  17.633  0.00  0.00    +0.000 A 
ATOM     28  C   UNL     1       1.124   9.674  18.242  0.00  0.00    +0.000 A 
ATOM     29  C   UNL     1       0.823   9.356  19.566  0.00  0.00    +0.000 A 
ATOM     30  O   UNL     1       0.033  10.107  20.376  0.00  0.00    +0.000 OA
ENDBRANCH  18  21
ENDBRANCH   7  17
TORSDOF 3
ENDMDL
