MODEL 1
REMARK VINA RESULT:      -8.4      0.000      0.000
REMARK  Name = 
REMARK  6 active torsions:
REMARK  status: ('A' for Active; 'I' for Inactive)
REMARK    1  A    between atoms: C_1  and  C_2
REMARK    2  A    between atoms: N_4  and  C_5
REMARK    3  A    between atoms: C_8  and  N_9
REMARK    4  A    between atoms: N_9  and  C_10
REMARK    5  A    between atoms: C_17  and  S_18
REMARK    6  A    between atoms: S_18  and  C_19
REMARK                            x       y       z     vdW  Elec       q    Type
REMARK                         _______ _______ _______ _____ _____    ______ ____
ROOT
ATOM      1  C   UNL     1       2.294   5.280  19.845  0.00  0.00    +0.000 A 
ATOM      2  N   UNL     1       1.239   4.543  20.234  0.00  0.00    +0.000 NA
ATOM      3  C   UNL     1       1.089   3.338  19.678  0.00  0.00    +0.000 A 
ATOM      4  N   UNL     1       1.873   2.796  18.742  0.00  0.00    +0.000 NA
ATOM      5  C   UNL     1       2.912   3.526  18.343  0.00  0.00    +0.000 A 
ATOM      6  C   UNL     1       3.764   2.972  17.392  0.00  0.00    +0.000 A 
ATOM      7  C   UNL     1       4.913   3.631  16.950  0.00  0.00    +0.000 A 
ATOM      8  C   UNL     1       5.192   4.899  17.443  0.00  0.00    +0.000 A 
ATOM      9  C   UNL     1       4.337   5.497  18.371  0.00  0.00    +0.000 A 
ATOM     10  C   UNL     1       3.191   4.807  18.853  0.00  0.00    +0.000 A 
ENDROOT
BRANCH   8  11
ATOM     11  S   UNL     1       6.718   5.699  17.000  0.00  0.00    +0.000 S 
ATOM     12  C   UNL     1       7.500   6.019  18.556  0.00  0.00    +0.000 C 
ATOM     13  O   UNL     1       7.518   4.724  16.283  0.00  0.00    +0.000 OA
ATOM     14  O   UNL     1       6.375   6.969  16.393  0.00  0.00    +0.000 OA
ENDBRANCH   8  11
BRANCH   1  15
ATOM     15  N   UNL     1       2.483   6.588  20.375  0.00  0.00    +0.000 N 
ATOM     16  H   UNL     1       2.635   6.538  21.376  0.00  0.00    +0.000 HD
BRANCH  15  20
ATOM     17  C   UNL     1       0.645  10.296  19.341  0.00  0.00    +0.000 A 
ATOM     18  C   UNL     1       0.496   9.777  20.627  0.00  0.00    +0.000 A 
ATOM     19  C   UNL     1       1.074   8.549  20.988  0.00  0.00    +0.000 A 
ATOM     20  C   UNL     1       1.848   7.821  20.087  0.00  0.00    +0.000 A 
ATOM     21  C   UNL     1       1.935   8.316  18.773  0.00  0.00    +0.000 A 
ATOM     22  C   UNL     1       1.339   9.532  18.400  0.00  0.00    +0.000 A 
BRANCH  17  26
ATOM     23  C   UNL     1      -0.083  13.924  18.593  0.00  0.00    +0.000 C 
ATOM     24  C   UNL     1       0.771  12.765  19.037  0.00  0.00    +0.000 C 
ATOM     25  O   UNL     1       1.921  12.957  19.423  0.00  0.00    +0.000 OA
ATOM     26  N   UNL     1       0.121  11.546  18.945  0.00  0.00    +0.000 N 
ATOM     27  H   UNL     1      -0.761  11.529  18.448  0.00  0.00    +0.000 HD
ENDBRANCH  17  26
ENDBRANCH  15  20
ENDBRANCH   1  15
TORSDOF 4
ENDMDL
MODEL 2
REMARK VINA RESULT:      -8.4      1.156      1.620
REMARK  Name = 
REMARK  6 active torsions:
REMARK  status: ('A' for Active; 'I' for Inactive)
REMARK    1  A    between atoms: C_1  and  C_2
REMARK    2  A    between atoms: N_4  and  C_5
REMARK    3  A    between atoms: C_8  and  N_9
REMARK    4  A    between atoms: N_9  and  C_10
REMARK    5  A    between atoms: C_17  and  S_18
REMARK    6  A    between atoms: S_18  and  C_19
REMARK                            x       y       z     vdW  Elec       q    Type
REMARK                         _______ _______ _______ _____ _____    ______ ____
ROOT
ATOM      1  C   UNL     1       2.330   4.987  20.057  0.00  0.00    +0.000 A 
ATOM      2  N   UNL     1       1.373   4.451  20.835  0.00  0.00    +0.000 NA
ATOM      3  C   UNL     1       1.043   3.175  20.619  0.00  0.00    +0.000 A 
ATOM      4  N   UNL     1       1.552   2.377  19.678  0.00  0.00    +0.000 NA
ATOM      5  C   UNL     1       2.491   2.904  18.895  0.00  0.00    +0.000 A 
ATOM      6  C   UNL     1       3.062   2.083  17.927  0.00  0.00    +0.000 A 
ATOM      7  C   UNL     1       4.094   2.522  17.095  0.00  0.00    +0.000 A 
ATOM      8  C   UNL     1       4.535   3.835  17.207  0.00  0.00    +0.000 A 
ATOM      9  C   UNL     1       3.958   4.693  18.145  0.00  0.00    +0.000 A 
ATOM     10  C   UNL     1       2.937   4.232  19.021  0.00  0.00    +0.000 A 
ENDROOT
BRANCH   8  11
ATOM     11  S   UNL     1       5.937   4.375  16.256  0.00  0.00    +0.000 S 
ATOM     12  C   UNL     1       5.493   6.006  15.727  0.00  0.00    +0.000 C 
ATOM     13  O   UNL     1       7.057   4.487  17.173  0.00  0.00    +0.000 OA
ATOM     14  O   UNL     1       6.017   3.523  15.088  0.00  0.00    +0.000 OA
ENDBRANCH   8  11
BRANCH   1  15
ATOM     15  N   UNL     1       2.695   6.354  20.216  0.00  0.00    +0.000 N 
ATOM     16  H   UNL     1       2.997   6.523  21.169  0.00  0.00    +0.000 HD
BRANCH  15  20
ATOM     17  C   UNL     1       0.864   9.968  18.881  0.00  0.00    +0.000 A 
ATOM     18  C   UNL     1       1.661   9.225  18.010  0.00  0.00    +0.000 A 
ATOM     19  C   UNL     1       2.291   8.043  18.429  0.00  0.00    +0.000 A 
ATOM     20  C   UNL     1       2.116   7.547  19.719  0.00  0.00    +0.000 A 
ATOM     21  C   UNL     1       1.368   8.337  20.611  0.00  0.00    +0.000 A 
ATOM     22  C   UNL     1       0.755   9.533  20.204  0.00  0.00    +0.000 A 
BRANCH  17  26
ATOM     23  C   UNL     1      -0.411  13.466  18.257  0.00  0.00    +0.000 C 
ATOM     24  C   UNL     1       0.579  12.438  18.742  0.00  0.00    +0.000 C 
ATOM     25  O   UNL     1       1.619  12.792  19.289  0.00  0.00    +0.000 OA
ATOM     26  N   UNL     1       0.175  11.137  18.493  0.00  0.00    +0.000 N 
ATOM     27  H   UNL     1      -0.623  11.010  17.882  0.00  0.00    +0.000 HD
ENDBRANCH  17  26
ENDBRANCH  15  20
ENDBRANCH   1  15
TORSDOF 4
ENDMDL
MODEL 3
REMARK VINA RESULT:      -8.3      0.723      1.109
REMARK  Name = 
REMARK  6 active torsions:
REMARK  status: ('A' for Active; 'I' for Inactive)
REMARK    1  A    between atoms: C_1  and  C_2
REMARK    2  A    between atoms: N_4  and  C_5
REMARK    3  A    between atoms: C_8  and  N_9
REMARK    4  A    between atoms: N_9  and  C_10
REMARK    5  A    between atoms: C_17  and  S_18
REMARK    6  A    between atoms: S_18  and  C_19
REMARK                            x       y       z     vdW  Elec       q    Type
REMARK                         _______ _______ _______ _____ _____    ______ ____
ROOT
ATOM      1  C   UNL     1       2.415   5.330  19.831  0.00  0.00    +0.000 A 
ATOM      2  N   UNL     1       1.408   4.651  20.408  0.00  0.00    +0.000 NA
ATOM      3  C   UNL     1       1.199   3.395  20.005  0.00  0.00    +0.000 A 
ATOM      4  N   UNL     1       1.878   2.746  19.055  0.00  0.00    +0.000 NA
ATOM      5  C   UNL     1       2.869   3.416  18.471  0.00  0.00    +0.000 A 
ATOM      6  C   UNL     1       3.614   2.753  17.501  0.00  0.00    +0.000 A 
ATOM      7  C   UNL     1       4.710   3.347  16.870  0.00  0.00    +0.000 A 
ATOM      8  C   UNL     1       5.039   4.658  17.190  0.00  0.00    +0.000 A 
ATOM      9  C   UNL     1       4.290   5.362  18.134  0.00  0.00    +0.000 A 
ATOM     10  C   UNL     1       3.201   4.741  18.807  0.00  0.00    +0.000 A 
ENDROOT
BRANCH   8  11
ATOM     11  S   UNL     1       6.510   5.387  16.504  0.00  0.00    +0.000 S 
ATOM     12  C   UNL     1       6.633   4.667  14.891  0.00  0.00    +0.000 C 
ATOM     13  O   UNL     1       6.249   6.806  16.347  0.00  0.00    +0.000 OA
ATOM     14  O   UNL     1       7.629   4.921  17.298  0.00  0.00    +0.000 OA
ENDBRANCH   8  11
BRANCH   1  15
ATOM     15  N   UNL     1       2.661   6.685  20.193  0.00  0.00    +0.000 N 
ATOM     16  H   UNL     1       2.935   6.739  21.168  0.00  0.00    +0.000 HD
BRANCH  15  20
ATOM     17  C   UNL     1       0.719  10.295  19.018  0.00  0.00    +0.000 A 
ATOM     18  C   UNL     1       0.526   9.785  20.301  0.00  0.00    +0.000 A 
ATOM     19  C   UNL     1       1.137   8.588  20.708  0.00  0.00    +0.000 A 
ATOM     20  C   UNL     1       1.988   7.885  19.857  0.00  0.00    +0.000 A 
ATOM     21  C   UNL     1       2.121   8.369  18.543  0.00  0.00    +0.000 A 
ATOM     22  C   UNL     1       1.493   9.553  18.124  0.00  0.00    +0.000 A 
BRANCH  17  26
ATOM     23  C   UNL     1      -0.220  13.885  18.319  0.00  0.00    +0.000 C 
ATOM     24  C   UNL     1       0.635  12.781  18.885  0.00  0.00    +0.000 C 
ATOM     25  O   UNL     1       1.640  13.052  19.537  0.00  0.00    +0.000 OA
ATOM     26  N   UNL     1       0.161  11.517  18.579  0.00  0.00    +0.000 N 
ATOM     27  H   UNL     1      -0.578  11.455  17.891  0.00  0.00    +0.000 HD
ENDBRANCH  17  26
ENDBRANCH  15  20
ENDBRANCH   1  15
TORSDOF 4
ENDMDL
MODEL 4
REMARK VINA RESULT:      -8.2      1.248      1.364
REMARK  Name = 
REMARK  6 active torsions:
REMARK  status: ('A' for Active; 'I' for Inactive)
REMARK    1  A    between atoms: C_1  and  C_2
REMARK    2  A    between atoms: N_4  and  C_5
REMARK    3  A    between atoms: C_8  and  N_9
REMARK    4  A    between atoms: N_9  and  C_10
REMARK    5  A    between atoms: C_17  and  S_18
REMARK    6  A    between atoms: S_18  and  C_19
REMARK                            x       y       z     vdW  Elec       q    Type
REMARK                         _______ _______ _______ _____ _____    ______ ____
ROOT
ATOM      1  C   UNL     1       2.113   4.968  20.064  0.00  0.00    +0.000 A 
ATOM      2  N   UNL     1       0.967   4.284  20.224  0.00  0.00    +0.000 NA
ATOM      3  C   UNL     1       0.838   3.131  19.563  0.00  0.00    +0.000 A 
ATOM      4  N   UNL     1       1.731   2.596  18.728  0.00  0.00    +0.000 NA
ATOM      5  C   UNL     1       2.864   3.273  18.555  0.00  0.00    +0.000 A 
ATOM      6  C   UNL     1       3.825   2.721  17.714  0.00  0.00    +0.000 A 
ATOM      7  C   UNL     1       5.069   3.323  17.511  0.00  0.00    +0.000 A 
ATOM      8  C   UNL     1       5.338   4.535  18.135  0.00  0.00    +0.000 A 
ATOM      9  C   UNL     1       4.381   5.132  18.956  0.00  0.00    +0.000 A 
ATOM     10  C   UNL     1       3.131   4.496  19.196  0.00  0.00    +0.000 A 
ENDROOT
BRANCH   8  11
ATOM     11  S   UNL     1       6.962   5.250  18.003  0.00  0.00    +0.000 S 
ATOM     12  C   UNL     1       6.661   6.884  17.389  0.00  0.00    +0.000 C 
ATOM     13  O   UNL     1       7.489   5.363  19.350  0.00  0.00    +0.000 OA
ATOM     14  O   UNL     1       7.676   4.505  16.986  0.00  0.00    +0.000 OA
ENDBRANCH   8  11
BRANCH   1  15
ATOM     15  N   UNL     1       2.292   6.223  20.714  0.00  0.00    +0.000 N 
ATOM     16  H   UNL     1       2.226   6.106  21.719  0.00  0.00    +0.000 HD
BRANCH  15  20
ATOM     17  C   UNL     1       0.985  10.120  19.576  0.00  0.00    +0.000 A 
ATOM     18  C   UNL     1       0.729   9.646  20.862  0.00  0.00    +0.000 A 
ATOM     19  C   UNL     1       1.130   8.359  21.257  0.00  0.00    +0.000 A 
ATOM     20  C   UNL     1       1.831   7.523  20.391  0.00  0.00    +0.000 A 
ATOM     21  C   UNL     1       2.024   7.982  19.075  0.00  0.00    +0.000 A 
ATOM     22  C   UNL     1       1.603   9.259  18.668  0.00  0.00    +0.000 A 
BRANCH  17  26
ATOM     23  C   UNL     1      -0.627  13.260  18.235  0.00  0.00    +0.000 C 
ATOM     24  C   UNL     1      -0.599  11.819  18.675  0.00  0.00    +0.000 C 
ATOM     25  O   UNL     1      -1.612  11.129  18.597  0.00  0.00    +0.000 OA
ATOM     26  N   UNL     1       0.640  11.422  19.149  0.00  0.00    +0.000 N 
ATOM     27  H   UNL     1       1.327  12.147  19.312  0.00  0.00    +0.000 HD
ENDBRANCH  17  26
ENDBRANCH  15  20
ENDBRANCH   1  15
TORSDOF 4
ENDMDL
MODEL 5
REMARK VINA RESULT:      -8.2      1.814      2.283
REMARK  Name = 
REMARK  6 active torsions:
REMARK  status: ('A' for Active; 'I' for Inactive)
REMARK    1  A    between atoms: C_1  and  C_2
REMARK    2  A    between atoms: N_4  and  C_5
REMARK    3  A    between atoms: C_8  and  N_9
REMARK    4  A    between atoms: N_9  and  C_10
REMARK    5  A    between atoms: C_17  and  S_18
REMARK    6  A    between atoms: S_18  and  C_19
REMARK                            x       y       z     vdW  Elec       q    Type
REMARK                         _______ _______ _______ _____ _____    ______ ____
ROOT
ATOM      1  C   UNL     1       2.757   5.507  19.986  0.00  0.00    +0.000 A 
ATOM      2  N   UNL     1       2.047   4.813  20.893  0.00  0.00    +0.000 NA
ATOM      3  C   UNL     1       1.970   3.489  20.736  0.00  0.00    +0.000 A 
ATOM      4  N   UNL     1       2.510   2.779  19.743  0.00  0.00    +0.000 NA
ATOM      5  C   UNL     1       3.204   3.460  18.834  0.00  0.00    +0.000 A 
ATOM      6  C   UNL     1       3.804   2.741  17.805  0.00  0.00    +0.000 A 
ATOM      7  C   UNL     1       4.600   3.354  16.835  0.00  0.00    +0.000 A 
ATOM      8  C   UNL     1       4.763   4.733  16.873  0.00  0.00    +0.000 A 
ATOM      9  C   UNL     1       4.145   5.487  17.872  0.00  0.00    +0.000 A 
ATOM     10  C   UNL     1       3.370   4.856  18.884  0.00  0.00    +0.000 A 
ENDROOT
BRANCH   8  11
ATOM     11  S   UNL     1       5.882   5.518  15.735  0.00  0.00    +0.000 S 
ATOM     12  C   UNL     1       5.959   4.396  14.367  0.00  0.00    +0.000 C 
ATOM     13  O   UNL     1       5.242   6.739  15.282  0.00  0.00    +0.000 OA
ATOM     14  O   UNL     1       7.184   5.553  16.370  0.00  0.00    +0.000 OA
ENDBRANCH   8  11
BRANCH   1  15
ATOM     15  N   UNL     1       2.841   6.925  20.080  0.00  0.00    +0.000 N 
ATOM     16  H   UNL     1       3.286   7.189  20.952  0.00  0.00    +0.000 HD
BRANCH  15  20
ATOM     17  C   UNL     1       0.014   9.990  19.180  0.00  0.00    +0.000 A 
ATOM     18  C   UNL     1       0.906   9.552  18.200  0.00  0.00    +0.000 A 
ATOM     19  C   UNL     1       1.859   8.560  18.475  0.00  0.00    +0.000 A 
ATOM     20  C   UNL     1       1.927   7.948  19.725  0.00  0.00    +0.000 A 
ATOM     21  C   UNL     1       1.072   8.443  20.726  0.00  0.00    +0.000 A 
ATOM     22  C   UNL     1       0.132   9.453  20.463  0.00  0.00    +0.000 A 
BRANCH  17  26
ATOM     23  C   UNL     1      -3.027  11.971  18.142  0.00  0.00    +0.000 C 
ATOM     24  C   UNL     1      -2.201  10.722  18.308  0.00  0.00    +0.000 C 
ATOM     25  O   UNL     1      -2.626   9.642  17.905  0.00  0.00    +0.000 OA
ATOM     26  N   UNL     1      -0.990  10.953  18.938  0.00  0.00    +0.000 N 
ATOM     27  H   UNL     1      -0.857  11.861  19.364  0.00  0.00    +0.000 HD
ENDBRANCH  17  26
ENDBRANCH  15  20
ENDBRANCH   1  15
TORSDOF 4
ENDMDL
MODEL 6
REMARK VINA RESULT:      -8.2      1.461      1.812
REMARK  Name = 
REMARK  6 active torsions:
REMARK  status: ('A' for Active; 'I' for Inactive)
REMARK    1  A    between atoms: C_1  and  C_2
REMARK    2  A    between atoms: N_4  and  C_5
REMARK    3  A    between atoms: C_8  and  N_9
REMARK    4  A    between atoms: N_9  and  C_10
REMARK    5  A    between atoms: C_17  and  S_18
REMARK    6  A    between atoms: S_18  and  C_19
REMARK                            x       y       z     vdW  Elec       q    Type
REMARK                         _______ _______ _______ _____ _____    ______ ____
ROOT
ATOM      1  C   UNL     1       2.088   5.515  20.053  0.00  0.00    +0.000 A 
ATOM      2  N   UNL     1       1.147   4.755  20.641  0.00  0.00    +0.000 NA
ATOM      3  C   UNL     1       0.919   3.545  20.123  0.00  0.00    +0.000 A 
ATOM      4  N   UNL     1       1.516   3.019  19.051  0.00  0.00    +0.000 NA
ATOM      5  C   UNL     1       2.440   3.770  18.456  0.00  0.00    +0.000 A 
ATOM      6  C   UNL     1       3.101   3.233  17.356  0.00  0.00    +0.000 A 
ATOM      7  C   UNL     1       4.125   3.917  16.697  0.00  0.00    +0.000 A 
ATOM      8  C   UNL     1       4.465   5.194  17.127  0.00  0.00    +0.000 A 
ATOM      9  C   UNL     1       3.796   5.774  18.206  0.00  0.00    +0.000 A 
ATOM     10  C   UNL     1       2.783   5.059  18.903  0.00  0.00    +0.000 A 
ENDROOT
BRANCH   8  11
ATOM     11  S   UNL     1       5.856   6.027  16.395  0.00  0.00    +0.000 S 
ATOM     12  C   UNL     1       6.907   4.710  15.852  0.00  0.00    +0.000 C 
ATOM     13  O   UNL     1       5.365   6.727  15.223  0.00  0.00    +0.000 OA
ATOM     14  O   UNL     1       6.533   6.743  17.457  0.00  0.00    +0.000 OA
ENDBRANCH   8  11
BRANCH   1  15
ATOM     15  N   UNL     1       2.347   6.829  20.537  0.00  0.00    +0.000 N 
ATOM     16  H   UNL     1       2.800   6.781  21.443  0.00  0.00    +0.000 HD
BRANCH  15  20
ATOM     17  C   UNL     1      -0.027  10.372  20.570  0.00  0.00    +0.000 A 
ATOM     18  C   UNL     1       0.673  10.011  19.419  0.00  0.00    +0.000 A 
ATOM     19  C   UNL     1       1.478   8.861  19.387  0.00  0.00    +0.000 A 
ATOM     20  C   UNL     1       1.578   8.017  20.491  0.00  0.00    +0.000 A 
ATOM     21  C   UNL     1       0.925   8.426  21.668  0.00  0.00    +0.000 A 
ATOM     22  C   UNL     1       0.138   9.588  21.713  0.00  0.00    +0.000 A 
BRANCH  17  26
ATOM     23  C   UNL     1      -1.744  13.673  21.211  0.00  0.00    +0.000 C 
ATOM     24  C   UNL     1      -0.597  12.697  21.258  0.00  0.00    +0.000 C 
ATOM     25  O   UNL     1       0.457  13.009  21.807  0.00  0.00    +0.000 OA
ATOM     26  N   UNL     1      -0.882  11.494  20.636  0.00  0.00    +0.000 N 
ATOM     27  H   UNL     1      -1.728  11.450  20.081  0.00  0.00    +0.000 HD
ENDBRANCH  17  26
ENDBRANCH  15  20
ENDBRANCH   1  15
TORSDOF 4
ENDMDL
MODEL 7
REMARK VINA RESULT:      -8.1      1.318      1.671
REMARK  Name = 
REMARK  6 active torsions:
REMARK  status: ('A' for Active; 'I' for Inactive)
REMARK    1  A    between atoms: C_1  and  C_2
REMARK    2  A    between atoms: N_4  and  C_5
REMARK    3  A    between atoms: C_8  and  N_9
REMARK    4  A    between atoms: N_9  and  C_10
REMARK    5  A    between atoms: C_17  and  S_18
REMARK    6  A    between atoms: S_18  and  C_19
REMARK                            x       y       z     vdW  Elec       q    Type
REMARK                         _______ _______ _______ _____ _____    ______ ____
ROOT
ATOM      1  C   UNL     1       2.129   4.831  20.041  0.00  0.00    +0.000 A 
ATOM      2  N   UNL     1       1.022   4.190  20.453  0.00  0.00    +0.000 NA
ATOM      3  C   UNL     1       0.786   2.976  19.948  0.00  0.00    +0.000 A 
ATOM      4  N   UNL     1       1.532   2.339  19.042  0.00  0.00    +0.000 NA
ATOM      5  C   UNL     1       2.624   2.973  18.619  0.00  0.00    +0.000 A 
ATOM      6  C   UNL     1       3.437   2.319  17.699  0.00  0.00    +0.000 A 
ATOM      7  C   UNL     1       4.633   2.873  17.238  0.00  0.00    +0.000 A 
ATOM      8  C   UNL     1       5.002   4.138  17.678  0.00  0.00    +0.000 A 
ATOM      9  C   UNL     1       4.189   4.835  18.574  0.00  0.00    +0.000 A 
ATOM     10  C   UNL     1       2.994   4.251  19.077  0.00  0.00    +0.000 A 
ENDROOT
BRANCH   8  11
ATOM     11  S   UNL     1       6.584   4.804  17.214  0.00  0.00    +0.000 S 
ATOM     12  C   UNL     1       6.328   6.556  17.217  0.00  0.00    +0.000 C 
ATOM     13  O   UNL     1       7.513   4.481  18.281  0.00  0.00    +0.000 OA
ATOM     14  O   UNL     1       6.842   4.384  15.852  0.00  0.00    +0.000 OA
ENDBRANCH   8  11
BRANCH   1  15
ATOM     15  N   UNL     1       2.412   6.143  20.516  0.00  0.00    +0.000 N 
ATOM     16  H   UNL     1       2.413   6.152  21.530  0.00  0.00    +0.000 HD
BRANCH  15  20
ATOM     17  C   UNL     1       1.063  10.010  19.322  0.00  0.00    +0.000 A 
ATOM     18  C   UNL     1       1.741   9.195  18.415  0.00  0.00    +0.000 A 
ATOM     19  C   UNL     1       2.213   7.927  18.787  0.00  0.00    +0.000 A 
ATOM     20  C   UNL     1       1.990   7.418  20.065  0.00  0.00    +0.000 A 
ATOM     21  C   UNL     1       1.368   8.273  20.993  0.00  0.00    +0.000 A 
ATOM     22  C   UNL     1       0.915   9.552  20.633  0.00  0.00    +0.000 A 
BRANCH  17  26
ATOM     23  C   UNL     1      -0.999  12.966  18.198  0.00  0.00    +0.000 C 
ATOM     24  C   UNL     1      -0.760  11.519  18.547  0.00  0.00    +0.000 C 
ATOM     25  O   UNL     1      -1.668  10.699  18.437  0.00  0.00    +0.000 OA
ATOM     26  N   UNL     1       0.531  11.273  18.981  0.00  0.00    +0.000 N 
ATOM     27  H   UNL     1       1.112  12.077  19.182  0.00  0.00    +0.000 HD
ENDBRANCH  17  26
ENDBRANCH  15  20
ENDBRANCH   1  15
TORSDOF 4
ENDMDL
MODEL 8
REMARK VINA RESULT:      -8.1      1.279      1.325
REMARK  Name = 
REMARK  6 active torsions:
REMARK  status: ('A' for Active; 'I' for Inactive)
REMARK    1  A    between atoms: C_1  and  C_2
REMARK    2  A    between atoms: N_4  and  C_5
REMARK    3  A    between atoms: C_8  and  N_9
REMARK    4  A    between atoms: N_9  and  C_10
REMARK    5  A    between atoms: C_17  and  S_18
REMARK    6  A    between atoms: S_18  and  C_19
REMARK                            x       y       z     vdW  Elec       q    Type
REMARK                         _______ _______ _______ _____ _____    ______ ____
ROOT
ATOM      1  C   UNL     1       2.154   5.605  19.969  0.00  0.00    +0.000 A 
ATOM      2  N   UNL     1       1.238   4.889  20.644  0.00  0.00    +0.000 NA
ATOM      3  C   UNL     1       1.010   3.637  20.238  0.00  0.00    +0.000 A 
ATOM      4  N   UNL     1       1.586   3.027  19.199  0.00  0.00    +0.000 NA
ATOM      5  C   UNL     1       2.486   3.733  18.519  0.00  0.00    +0.000 A 
ATOM      6  C   UNL     1       3.126   3.110  17.451  0.00  0.00    +0.000 A 
ATOM      7  C   UNL     1       4.125   3.744  16.711  0.00  0.00    +0.000 A 
ATOM      8  C   UNL     1       4.461   5.056  17.021  0.00  0.00    +0.000 A 
ATOM      9  C   UNL     1       3.813   5.721  18.064  0.00  0.00    +0.000 A 
ATOM     10  C   UNL     1       2.826   5.059  18.845  0.00  0.00    +0.000 A 
ENDROOT
BRANCH   8  11
ATOM     11  S   UNL     1       5.823   5.836  16.185  0.00  0.00    +0.000 S 
ATOM     12  C   UNL     1       6.650   6.740  17.463  0.00  0.00    +0.000 C 
ATOM     13  O   UNL     1       6.709   4.779  15.733  0.00  0.00    +0.000 OA
ATOM     14  O   UNL     1       5.261   6.786  15.246  0.00  0.00    +0.000 OA
ENDBRANCH   8  11
BRANCH   1  15
ATOM     15  N   UNL     1       2.411   6.958  20.332  0.00  0.00    +0.000 N 
ATOM     16  H   UNL     1       3.082   6.991  21.091  0.00  0.00    +0.000 HD
BRANCH  15  20
ATOM     17  C   UNL     1      -0.112  10.391  20.533  0.00  0.00    +0.000 A 
ATOM     18  C   UNL     1      -0.063   9.497  21.602  0.00  0.00    +0.000 A 
ATOM     19  C   UNL     1       0.743   8.349  21.554  0.00  0.00    +0.000 A 
ATOM     20  C   UNL     1       1.553   8.078  20.453  0.00  0.00    +0.000 A 
ATOM     21  C   UNL     1       1.445   8.947  19.352  0.00  0.00    +0.000 A 
ATOM     22  C   UNL     1       0.622  10.084  19.385  0.00  0.00    +0.000 A 
BRANCH  17  26
ATOM     23  C   UNL     1      -1.571  13.831  21.071  0.00  0.00    +0.000 C 
ATOM     24  C   UNL     1      -0.512  12.765  21.174  0.00  0.00    +0.000 C 
ATOM     25  O   UNL     1       0.542  12.995  21.761  0.00  0.00    +0.000 OA
ATOM     26  N   UNL     1      -0.872  11.581  20.553  0.00  0.00    +0.000 N 
ATOM     27  H   UNL     1      -1.697  11.600  19.966  0.00  0.00    +0.000 HD
ENDBRANCH  17  26
ENDBRANCH  15  20
ENDBRANCH   1  15
TORSDOF 4
ENDMDL
MODEL 9
REMARK VINA RESULT:      -8.1      1.325      1.632
REMARK  Name = 
REMARK  6 active torsions:
REMARK  status: ('A' for Active; 'I' for Inactive)
REMARK    1  A    between atoms: C_1  and  C_2
REMARK    2  A    between atoms: N_4  and  C_5
REMARK    3  A    between atoms: C_8  and  N_9
REMARK    4  A    between atoms: N_9  and  C_10
REMARK    5  A    between atoms: C_17  and  S_18
REMARK    6  A    between atoms: S_18  and  C_19
REMARK                            x       y       z     vdW  Elec       q    Type
REMARK                         _______ _______ _______ _____ _____    ______ ____
ROOT
ATOM      1  C   UNL     1       2.345   5.227  19.516  0.00  0.00    +0.000 A 
ATOM      2  N   UNL     1       1.304   4.392  19.678  0.00  0.00    +0.000 NA
ATOM      3  C   UNL     1       1.235   3.327  18.876  0.00  0.00    +0.000 A 
ATOM      4  N   UNL     1       2.091   3.019  17.898  0.00  0.00    +0.000 NA
ATOM      5  C   UNL     1       3.118   3.847  17.723  0.00  0.00    +0.000 A 
ATOM      6  C   UNL     1       4.042   3.532  16.732  0.00  0.00    +0.000 A 
ATOM      7  C   UNL     1       5.183   4.305  16.507  0.00  0.00    +0.000 A 
ATOM      8  C   UNL     1       5.380   5.449  17.269  0.00  0.00    +0.000 A 
ATOM      9  C   UNL     1       4.453   5.812  18.247  0.00  0.00    +0.000 A 
ATOM     10  C   UNL     1       3.313   5.000  18.504  0.00  0.00    +0.000 A 
ENDROOT
BRANCH   8  11
ATOM     11  S   UNL     1       6.892   6.371  17.097  0.00  0.00    +0.000 S 
ATOM     12  C   UNL     1       7.775   6.029  18.592  0.00  0.00    +0.000 C 
ATOM     13  O   UNL     1       7.627   5.782  15.993  0.00  0.00    +0.000 OA
ATOM     14  O   UNL     1       6.538   7.776  17.087  0.00  0.00    +0.000 OA
ENDBRANCH   8  11
BRANCH   1  15
ATOM     15  N   UNL     1       2.450   6.400  20.317  0.00  0.00    +0.000 N 
ATOM     16  H   UNL     1       2.511   6.146  21.297  0.00  0.00    +0.000 HD
BRANCH  15  20
ATOM     17  C   UNL     1       0.458  10.170  20.218  0.00  0.00    +0.000 A 
ATOM     18  C   UNL     1       1.146   9.714  19.094  0.00  0.00    +0.000 A 
ATOM     19  C   UNL     1       1.827   8.487  19.106  0.00  0.00    +0.000 A 
ATOM     20  C   UNL     1       1.810   7.661  20.228  0.00  0.00    +0.000 A 
ATOM     21  C   UNL     1       1.173   8.159  21.379  0.00  0.00    +0.000 A 
ATOM     22  C   UNL     1       0.510   9.397  21.380  0.00  0.00    +0.000 A 
BRANCH  17  26
ATOM     23  C   UNL     1      -1.942  13.040  19.708  0.00  0.00    +0.000 C 
ATOM     24  C   UNL     1      -1.433  11.634  19.521  0.00  0.00    +0.000 C 
ATOM     25  O   UNL     1      -2.037  10.850  18.794  0.00  0.00    +0.000 OA
ATOM     26  N   UNL     1      -0.278  11.376  20.239  0.00  0.00    +0.000 N 
ATOM     27  H   UNL     1       0.003  12.065  20.925  0.00  0.00    +0.000 HD
ENDBRANCH  17  26
ENDBRANCH  15  20
ENDBRANCH   1  15
TORSDOF 4
ENDMDL
