MODEL 1
REMARK VINA RESULT:      -7.7      0.000      0.000
REMARK  Name = 
REMARK  3 active torsions:
REMARK  status: ('A' for Active; 'I' for Inactive)
REMARK    1  A    between atoms: C_1  and  N_2
REMARK    2  A    between atoms: C_4  and  C_5
REMARK    3  A    between atoms: C_11  and  C_12
REMARK                            x       y       z     vdW  Elec       q    Type
REMARK                         _______ _______ _______ _____ _____    ______ ____
ROOT
ATOM      1  C   UNL     1       2.608   6.702  19.805  0.00  0.00    +0.000 C 
ATOM      2  O   UNL     1       3.702   7.057  19.361  0.00  0.00    +0.000 OA
ATOM      3  N   UNL     1       2.312   5.350  19.932  0.00  0.00    +0.000 N 
ATOM      4  C   UNL     1       1.123   4.737  20.498  0.00  0.00    +0.000 C 
ATOM      5  C   UNL     1       1.639   3.544  21.273  0.00  0.00    +0.000 C 
ATOM      6  C   UNL     1       2.863   3.096  20.491  0.00  0.00    +0.000 C 
ATOM      7  C   UNL     1       3.389   4.369  19.797  0.00  0.00    +0.000 C 
ENDROOT
BRANCH   1  11
ATOM      8  C   UNL     1      -0.263   9.394  22.904  0.00  0.00    +0.000 C 
ATOM      9  N   UNL     1       0.372   8.917  21.695  0.00  0.00    +0.000 N 
ATOM     10  C   UNL     1       1.130   7.780  21.612  0.00  0.00    +0.000 A 
ATOM     11  C   UNL     1       1.663   7.692  20.336  0.00  0.00    +0.000 A 
ATOM     12  C   UNL     1       1.111   8.801  19.599  0.00  0.00    +0.000 A 
ATOM     13  C   UNL     1       1.244   9.253  18.267  0.00  0.00    +0.000 A 
ATOM     14  C   UNL     1       0.607  10.432  17.862  0.00  0.00    +0.000 A 
ATOM     15  C   UNL     1      -0.161  11.164  18.760  0.00  0.00    +0.000 A 
ATOM     16  C   UNL     1      -0.317  10.738  20.082  0.00  0.00    +0.000 A 
ATOM     17  C   UNL     1       0.330   9.557  20.478  0.00  0.00    +0.000 A 
ENDBRANCH   1  11
BRANCH   7  18
ATOM     18  C   UNL     1       3.729   4.111  18.364  0.00  0.00    +0.000 A 
ATOM     19  N   UNL     1       2.923   3.594  17.450  0.00  0.00    +0.000 NA
ATOM     20  N   UNL     1       3.634   3.416  16.286  0.00  0.00    +0.000 NA
ATOM     21  C   UNL     1       4.859   3.836  16.498  0.00  0.00    +0.000 A 
ATOM     22  C   UNL     1       6.014   3.877  15.670  0.00  0.00    +0.000 A 
ATOM     23  C   UNL     1       7.176   4.365  16.161  0.00  0.00    +0.000 A 
ATOM     24  C   UNL     1       7.266   4.853  17.527  0.00  0.00    +0.000 A 
ATOM     25  C   UNL     1       6.175   4.813  18.313  0.00  0.00    +0.000 A 
ATOM     26  N   UNL     1       4.978   4.305  17.802  0.00  0.00    +0.000 N 
ENDBRANCH   7  18
TORSDOF 2
ENDMDL
MODEL 2
REMARK VINA RESULT:      -7.6      1.196      2.209
REMARK  Name = 
REMARK  3 active torsions:
REMARK  status: ('A' for Active; 'I' for Inactive)
REMARK    1  A    between atoms: C_1  and  N_2
REMARK    2  A    between atoms: C_4  and  C_5
REMARK    3  A    between atoms: C_11  and  C_12
REMARK                            x       y       z     vdW  Elec       q    Type
REMARK                         _______ _______ _______ _____ _____    ______ ____
ROOT
ATOM      1  C   UNL     1       2.509   7.643  18.684  0.00  0.00    +0.000 C 
ATOM      2  O   UNL     1       3.539   7.943  18.076  0.00  0.00    +0.000 OA
ATOM      3  N   UNL     1       2.369   6.376  19.238  0.00  0.00    +0.000 N 
ATOM      4  C   UNL     1       1.279   5.861  20.047  0.00  0.00    +0.000 C 
ATOM      5  C   UNL     1       1.954   5.020  21.108  0.00  0.00    +0.000 C 
ATOM      6  C   UNL     1       3.189   4.468  20.414  0.00  0.00    +0.000 C 
ATOM      7  C   UNL     1       3.542   5.506  19.330  0.00  0.00    +0.000 C 
ENDROOT
BRANCH   1  11
ATOM      8  C   UNL     1      -1.217  10.948  18.136  0.00  0.00    +0.000 C 
ATOM      9  N   UNL     1      -0.185  10.137  18.745  0.00  0.00    +0.000 N 
ATOM     10  C   UNL     1       0.718   9.377  18.052  0.00  0.00    +0.000 A 
ATOM     11  C   UNL     1       1.482   8.656  18.955  0.00  0.00    +0.000 A 
ATOM     12  C   UNL     1       1.058   9.087  20.264  0.00  0.00    +0.000 A 
ATOM     13  C   UNL     1       1.452   8.753  21.579  0.00  0.00    +0.000 A 
ATOM     14  C   UNL     1       0.786   9.318  22.674  0.00  0.00    +0.000 A 
ATOM     15  C   UNL     1      -0.260  10.213  22.478  0.00  0.00    +0.000 A 
ATOM     16  C   UNL     1      -0.667  10.569  21.190  0.00  0.00    +0.000 A 
ATOM     17  C   UNL     1       0.005   9.992  20.100  0.00  0.00    +0.000 A 
ENDBRANCH   1  11
BRANCH   7  18
ATOM     18  C   UNL     1       3.852   4.849  18.023  0.00  0.00    +0.000 A 
ATOM     19  N   UNL     1       3.095   3.963  17.394  0.00  0.00    +0.000 NA
ATOM     20  N   UNL     1       3.770   3.517  16.282  0.00  0.00    +0.000 NA
ATOM     21  C   UNL     1       4.922   4.143  16.236  0.00  0.00    +0.000 A 
ATOM     22  C   UNL     1       6.017   4.071  15.332  0.00  0.00    +0.000 A 
ATOM     23  C   UNL     1       7.110   4.841  15.536  0.00  0.00    +0.000 A 
ATOM     24  C   UNL     1       7.185   5.750  16.667  0.00  0.00    +0.000 A 
ATOM     25  C   UNL     1       6.152   5.819  17.526  0.00  0.00    +0.000 A 
ATOM     26  N   UNL     1       5.027   5.018  17.314  0.00  0.00    +0.000 N 
ENDBRANCH   7  18
TORSDOF 2
ENDMDL
MODEL 3
REMARK VINA RESULT:      -7.3      1.549      2.408
REMARK  Name = 
REMARK  3 active torsions:
REMARK  status: ('A' for Active; 'I' for Inactive)
REMARK    1  A    between atoms: C_1  and  N_2
REMARK    2  A    between atoms: C_4  and  C_5
REMARK    3  A    between atoms: C_11  and  C_12
REMARK                            x       y       z     vdW  Elec       q    Type
REMARK                         _______ _______ _______ _____ _____    ______ ____
ROOT
ATOM      1  C   UNL     1       3.632   5.803  19.476  0.00  0.00    +0.000 C 
ATOM      2  O   UNL     1       4.688   5.821  20.112  0.00  0.00    +0.000 OA
ATOM      3  N   UNL     1       3.415   4.826  18.510  0.00  0.00    +0.000 N 
ATOM      4  C   UNL     1       2.221   4.592  17.718  0.00  0.00    +0.000 C 
ATOM      5  C   UNL     1       2.093   3.085  17.656  0.00  0.00    +0.000 C 
ATOM      6  C   UNL     1       3.529   2.589  17.687  0.00  0.00    +0.000 C 
ATOM      7  C   UNL     1       4.317   3.676  18.447  0.00  0.00    +0.000 C 
ENDROOT
BRANCH   1  11
ATOM      8  C   UNL     1      -0.128   8.065  21.894  0.00  0.00    +0.000 C 
ATOM      9  N   UNL     1       0.856   7.752  20.880  0.00  0.00    +0.000 N 
ATOM     10  C   UNL     1       1.644   6.633  20.880  0.00  0.00    +0.000 A 
ATOM     11  C   UNL     1       2.537   6.716  19.823  0.00  0.00    +0.000 A 
ATOM     12  C   UNL     1       2.191   7.918  19.107  0.00  0.00    +0.000 A 
ATOM     13  C   UNL     1       2.698   8.546  17.948  0.00  0.00    +0.000 A 
ATOM     14  C   UNL     1       2.170   9.773  17.528  0.00  0.00    +0.000 A 
ATOM     15  C   UNL     1       1.143  10.380  18.242  0.00  0.00    +0.000 A 
ATOM     16  C   UNL     1       0.615   9.779  19.388  0.00  0.00    +0.000 A 
ATOM     17  C   UNL     1       1.156   8.552  19.801  0.00  0.00    +0.000 A 
ENDBRANCH   1  11
BRANCH   7  18
ATOM     18  C   UNL     1       5.598   4.011  17.752  0.00  0.00    +0.000 A 
ATOM     19  N   UNL     1       6.754   4.287  18.336  0.00  0.00    +0.000 NA
ATOM     20  N   UNL     1       7.662   4.646  17.367  0.00  0.00    +0.000 NA
ATOM     21  C   UNL     1       7.055   4.574  16.205  0.00  0.00    +0.000 A 
ATOM     22  C   UNL     1       7.490   4.845  14.879  0.00  0.00    +0.000 A 
ATOM     23  C   UNL     1       6.632   4.692  13.845  0.00  0.00    +0.000 A 
ATOM     24  C   UNL     1       5.264   4.251  14.066  0.00  0.00    +0.000 A 
ATOM     25  C   UNL     1       4.850   3.997  15.320  0.00  0.00    +0.000 A 
ATOM     26  N   UNL     1       5.739   4.160  16.385  0.00  0.00    +0.000 N 
ENDBRANCH   7  18
TORSDOF 2
ENDMDL
MODEL 4
REMARK VINA RESULT:      -7.3      2.257      7.641
REMARK  Name = 
REMARK  3 active torsions:
REMARK  status: ('A' for Active; 'I' for Inactive)
REMARK    1  A    between atoms: C_1  and  N_2
REMARK    2  A    between atoms: C_4  and  C_5
REMARK    3  A    between atoms: C_11  and  C_12
REMARK                            x       y       z     vdW  Elec       q    Type
REMARK                         _______ _______ _______ _____ _____    ______ ____
ROOT
ATOM      1  C   UNL     1       2.200   8.491  18.377  0.00  0.00    +0.000 C 
ATOM      2  O   UNL     1       1.803   9.362  17.600  0.00  0.00    +0.000 OA
ATOM      3  N   UNL     1       1.714   8.441  19.678  0.00  0.00    +0.000 N 
ATOM      4  C   UNL     1       1.997   7.459  20.709  0.00  0.00    +0.000 C 
ATOM      5  C   UNL     1       0.670   7.239  21.403  0.00  0.00    +0.000 C 
ATOM      6  C   UNL     1      -0.027   8.586  21.304  0.00  0.00    +0.000 C 
ATOM      7  C   UNL     1       0.544   9.245  20.032  0.00  0.00    +0.000 C 
ENDROOT
BRANCH   1  11
ATOM      8  C   UNL     1       6.222   5.900  16.889  0.00  0.00    +0.000 C 
ATOM      9  N   UNL     1       4.857   6.227  17.238  0.00  0.00    +0.000 N 
ATOM     10  C   UNL     1       4.403   7.491  17.504  0.00  0.00    +0.000 A 
ATOM     11  C   UNL     1       3.078   7.414  17.903  0.00  0.00    +0.000 A 
ATOM     12  C   UNL     1       2.706   6.027  17.777  0.00  0.00    +0.000 A 
ATOM     13  C   UNL     1       1.511   5.310  18.006  0.00  0.00    +0.000 A 
ATOM     14  C   UNL     1       1.487   3.920  17.845  0.00  0.00    +0.000 A 
ATOM     15  C   UNL     1       2.632   3.235  17.454  0.00  0.00    +0.000 A 
ATOM     16  C   UNL     1       3.827   3.917  17.212  0.00  0.00    +0.000 A 
ATOM     17  C   UNL     1       3.840   5.311  17.382  0.00  0.00    +0.000 A 
ENDBRANCH   1  11
BRANCH   7  18
ATOM     18  C   UNL     1       0.905  10.677  20.272  0.00  0.00    +0.000 A 
ATOM     19  N   UNL     1       1.698  11.133  21.229  0.00  0.00    +0.000 NA
ATOM     20  N   UNL     1       1.696  12.508  21.184  0.00  0.00    +0.000 NA
ATOM     21  C   UNL     1       0.914  12.874  20.196  0.00  0.00    +0.000 A 
ATOM     22  C   UNL     1       0.528  14.150  19.702  0.00  0.00    +0.000 A 
ATOM     23  C   UNL     1      -0.319  14.237  18.651  0.00  0.00    +0.000 A 
ATOM     24  C   UNL     1      -0.842  13.042  18.011  0.00  0.00    +0.000 A 
ATOM     25  C   UNL     1      -0.481  11.833  18.478  0.00  0.00    +0.000 A 
ATOM     26  N   UNL     1       0.391  11.749  19.567  0.00  0.00    +0.000 N 
ENDBRANCH   7  18
TORSDOF 2
ENDMDL
MODEL 5
REMARK VINA RESULT:      -7.0      4.946     10.044
REMARK  Name = 
REMARK  3 active torsions:
REMARK  status: ('A' for Active; 'I' for Inactive)
REMARK    1  A    between atoms: C_1  and  N_2
REMARK    2  A    between atoms: C_4  and  C_5
REMARK    3  A    between atoms: C_11  and  C_12
REMARK                            x       y       z     vdW  Elec       q    Type
REMARK                         _______ _______ _______ _____ _____    ______ ____
ROOT
ATOM      1  C   UNL     1      -2.112  11.433  19.139  0.00  0.00    +0.000 C 
ATOM      2  O   UNL     1      -2.166  12.528  19.702  0.00  0.00    +0.000 OA
ATOM      3  N   UNL     1      -3.141  11.030  18.295  0.00  0.00    +0.000 N 
ATOM      4  C   UNL     1      -3.226   9.825  17.490  0.00  0.00    +0.000 C 
ATOM      5  C   UNL     1      -3.852  10.278  16.188  0.00  0.00    +0.000 C 
ATOM      6  C   UNL     1      -4.772  11.417  16.597  0.00  0.00    +0.000 C 
ATOM      7  C   UNL     1      -4.140  12.011  17.872  0.00  0.00    +0.000 C 
ENDROOT
BRANCH   1  11
ATOM      8  C   UNL     1       2.121   8.997  18.022  0.00  0.00    +0.000 C 
ATOM      9  N   UNL     1       0.993   9.508  18.769  0.00  0.00    +0.000 N 
ATOM     10  C   UNL     1      -0.071  10.170  18.217  0.00  0.00    +0.000 A 
ATOM     11  C   UNL     1      -0.904  10.605  19.235  0.00  0.00    +0.000 A 
ATOM     12  C   UNL     1      -0.338  10.090  20.456  0.00  0.00    +0.000 A 
ATOM     13  C   UNL     1      -0.714  10.164  21.816  0.00  0.00    +0.000 A 
ATOM     14  C   UNL     1       0.102   9.592  22.800  0.00  0.00    +0.000 A 
ATOM     15  C   UNL     1       1.282   8.946  22.450  0.00  0.00    +0.000 A 
ATOM     16  C   UNL     1       1.676   8.850  21.113  0.00  0.00    +0.000 A 
ATOM     17  C   UNL     1       0.853   9.431  20.136  0.00  0.00    +0.000 A 
ENDBRANCH   1  11
BRANCH   7  18
ATOM     18  C   UNL     1      -5.167  12.252  18.932  0.00  0.00    +0.000 A 
ATOM     19  N   UNL     1      -5.338  13.375  19.613  0.00  0.00    +0.000 NA
ATOM     20  N   UNL     1      -6.308  13.167  20.567  0.00  0.00    +0.000 NA
ATOM     21  C   UNL     1      -6.725  11.929  20.450  0.00  0.00    +0.000 A 
ATOM     22  C   UNL     1      -7.688  11.170  21.169  0.00  0.00    +0.000 A 
ATOM     23  C   UNL     1      -7.917   9.880  20.832  0.00  0.00    +0.000 A 
ATOM     24  C   UNL     1      -7.193   9.252  19.739  0.00  0.00    +0.000 A 
ATOM     25  C   UNL     1      -6.280   9.967  19.059  0.00  0.00    +0.000 A 
ATOM     26  N   UNL     1      -6.044  11.298  19.413  0.00  0.00    +0.000 N 
ENDBRANCH   7  18
TORSDOF 2
ENDMDL
MODEL 6
REMARK VINA RESULT:      -7.0      5.837     11.128
REMARK  Name = 
REMARK  3 active torsions:
REMARK  status: ('A' for Active; 'I' for Inactive)
REMARK    1  A    between atoms: C_1  and  N_2
REMARK    2  A    between atoms: C_4  and  C_5
REMARK    3  A    between atoms: C_11  and  C_12
REMARK                            x       y       z     vdW  Elec       q    Type
REMARK                         _______ _______ _______ _____ _____    ______ ____
ROOT
ATOM      1  C   UNL     1      -2.967  12.342  19.943  0.00  0.00    +0.000 C 
ATOM      2  O   UNL     1      -3.169  13.075  20.914  0.00  0.00    +0.000 OA
ATOM      3  N   UNL     1      -4.017  11.993  19.101  0.00  0.00    +0.000 N 
ATOM      4  C   UNL     1      -3.970  11.212  17.878  0.00  0.00    +0.000 C 
ATOM      5  C   UNL     1      -4.938  11.906  16.943  0.00  0.00    +0.000 C 
ATOM      6  C   UNL     1      -6.003  12.472  17.868  0.00  0.00    +0.000 C 
ATOM      7  C   UNL     1      -5.289  12.708  19.214  0.00  0.00    +0.000 C 
ENDROOT
BRANCH   1  11
ATOM      8  C   UNL     1       1.043   9.644  18.626  0.00  0.00    +0.000 C 
ATOM      9  N   UNL     1       0.210  10.770  18.987  0.00  0.00    +0.000 N 
ATOM     10  C   UNL     1      -1.081  10.671  19.434  0.00  0.00    +0.000 A 
ATOM     11  C   UNL     1      -1.601  11.947  19.580  0.00  0.00    +0.000 A 
ATOM     12  C   UNL     1      -0.520  12.852  19.283  0.00  0.00    +0.000 A 
ATOM     13  C   UNL     1      -0.399  14.259  19.267  0.00  0.00    +0.000 A 
ATOM     14  C   UNL     1       0.804  14.854  18.865  0.00  0.00    +0.000 A 
ATOM     15  C   UNL     1       1.886  14.069  18.484  0.00  0.00    +0.000 A 
ATOM     16  C   UNL     1       1.799  12.675  18.496  0.00  0.00    +0.000 A 
ATOM     17  C   UNL     1       0.587  12.090  18.896  0.00  0.00    +0.000 A 
ENDBRANCH   1  11
BRANCH   7  18
ATOM     18  C   UNL     1      -6.106  12.212  20.363  0.00  0.00    +0.000 A 
ATOM     19  N   UNL     1      -6.634  11.003  20.482  0.00  0.00    +0.000 NA
ATOM     20  N   UNL     1      -7.401  10.968  21.623  0.00  0.00    +0.000 NA
ATOM     21  C   UNL     1      -7.324  12.148  22.193  0.00  0.00    +0.000 A 
ATOM     22  C   UNL     1      -7.916  12.685  23.369  0.00  0.00    +0.000 A 
ATOM     23  C   UNL     1      -7.666  13.965  23.723  0.00  0.00    +0.000 A 
ATOM     24  C   UNL     1      -6.794  14.808  22.921  0.00  0.00    +0.000 A 
ATOM     25  C   UNL     1      -6.235  14.303  21.806  0.00  0.00    +0.000 A 
ATOM     26  N   UNL     1      -6.500  12.981  21.442  0.00  0.00    +0.000 N 
ENDBRANCH   7  18
TORSDOF 2
ENDMDL
MODEL 7
REMARK VINA RESULT:      -7.0      3.724      5.990
REMARK  Name = 
REMARK  3 active torsions:
REMARK  status: ('A' for Active; 'I' for Inactive)
REMARK    1  A    between atoms: C_1  and  N_2
REMARK    2  A    between atoms: C_4  and  C_5
REMARK    3  A    between atoms: C_11  and  C_12
REMARK                            x       y       z     vdW  Elec       q    Type
REMARK                         _______ _______ _______ _____ _____    ______ ____
ROOT
ATOM      1  C   UNL     1       4.598   3.511  17.456  0.00  0.00    +0.000 C 
ATOM      2  O   UNL     1       4.507   2.839  16.426  0.00  0.00    +0.000 OA
ATOM      3  N   UNL     1       4.853   4.876  17.379  0.00  0.00    +0.000 N 
ATOM      4  C   UNL     1       4.919   5.842  18.461  0.00  0.00    +0.000 C 
ATOM      5  C   UNL     1       4.245   7.080  17.909  0.00  0.00    +0.000 C 
ATOM      6  C   UNL     1       4.560   7.042  16.423  0.00  0.00    +0.000 C 
ATOM      7  C   UNL     1       4.742   5.549  16.085  0.00  0.00    +0.000 C 
ENDROOT
BRANCH   1  11
ATOM      8  C   UNL     1       5.023   1.089  21.821  0.00  0.00    +0.000 C 
ATOM      9  N   UNL     1       4.457   1.843  20.724  0.00  0.00    +0.000 N 
ATOM     10  C   UNL     1       5.088   2.073  19.531  0.00  0.00    +0.000 A 
ATOM     11  C   UNL     1       4.299   2.915  18.764  0.00  0.00    +0.000 A 
ATOM     12  C   UNL     1       3.089   3.120  19.519  0.00  0.00    +0.000 A 
ATOM     13  C   UNL     1       1.902   3.849  19.285  0.00  0.00    +0.000 A 
ATOM     14  C   UNL     1       0.906   3.900  20.268  0.00  0.00    +0.000 A 
ATOM     15  C   UNL     1       1.074   3.233  21.477  0.00  0.00    +0.000 A 
ATOM     16  C   UNL     1       2.234   2.498  21.734  0.00  0.00    +0.000 A 
ATOM     17  C   UNL     1       3.227   2.458  20.743  0.00  0.00    +0.000 A 
ENDBRANCH   1  11
BRANCH   7  18
ATOM     18  C   UNL     1       5.951   5.323  15.235  0.00  0.00    +0.000 A 
ATOM     19  N   UNL     1       7.158   5.828  15.442  0.00  0.00    +0.000 NA
ATOM     20  N   UNL     1       7.969   5.477  14.388  0.00  0.00    +0.000 NA
ATOM     21  C   UNL     1       7.255   4.754  13.558  0.00  0.00    +0.000 A 
ATOM     22  C   UNL     1       7.562   4.144  12.311  0.00  0.00    +0.000 A 
ATOM     23  C   UNL     1       6.609   3.448  11.651  0.00  0.00    +0.000 A 
ATOM     24  C   UNL     1       5.269   3.308  12.196  0.00  0.00    +0.000 A 
ATOM     25  C   UNL     1       4.976   3.887  13.375  0.00  0.00    +0.000 A 
ATOM     26  N   UNL     1       5.962   4.609  14.051  0.00  0.00    +0.000 N 
ENDBRANCH   7  18
TORSDOF 2
ENDMDL
MODEL 8
REMARK VINA RESULT:      -6.9      8.312     11.760
REMARK  Name = 
REMARK  3 active torsions:
REMARK  status: ('A' for Active; 'I' for Inactive)
REMARK    1  A    between atoms: C_1  and  N_2
REMARK    2  A    between atoms: C_4  and  C_5
REMARK    3  A    between atoms: C_11  and  C_12
REMARK                            x       y       z     vdW  Elec       q    Type
REMARK                         _______ _______ _______ _____ _____    ______ ____
ROOT
ATOM      1  C   UNL     1       6.911  14.857  18.337  0.00  0.00    +0.000 C 
ATOM      2  O   UNL     1       6.075  14.401  17.554  0.00  0.00    +0.000 OA
ATOM      3  N   UNL     1       6.526  15.267  19.609  0.00  0.00    +0.000 N 
ATOM      4  C   UNL     1       7.364  15.754  20.690  0.00  0.00    +0.000 C 
ATOM      5  C   UNL     1       6.776  15.133  21.939  0.00  0.00    +0.000 C 
ATOM      6  C   UNL     1       5.290  15.029  21.636  0.00  0.00    +0.000 C 
ATOM      7  C   UNL     1       5.197  14.906  20.102  0.00  0.00    +0.000 C 
ENDROOT
BRANCH   1  11
ATOM      8  C   UNL     1      11.600  16.286  17.299  0.00  0.00    +0.000 C 
ATOM      9  N   UNL     1      10.444  15.447  17.532  0.00  0.00    +0.000 N 
ATOM     10  C   UNL     1       9.165  15.909  17.684  0.00  0.00    +0.000 A 
ATOM     11  C   UNL     1       8.338  14.841  17.995  0.00  0.00    +0.000 A 
ATOM     12  C   UNL     1       9.171  13.666  17.935  0.00  0.00    +0.000 A 
ATOM     13  C   UNL     1       8.932  12.287  18.129  0.00  0.00    +0.000 A 
ATOM     14  C   UNL     1       9.993  11.376  18.057  0.00  0.00    +0.000 A 
ATOM     15  C   UNL     1      11.284  11.817  17.790  0.00  0.00    +0.000 A 
ATOM     16  C   UNL     1      11.550  13.173  17.587  0.00  0.00    +0.000 A 
ATOM     17  C   UNL     1      10.480  14.078  17.666  0.00  0.00    +0.000 A 
ENDBRANCH   1  11
BRANCH   7  18
ATOM     18  C   UNL     1       4.136  15.799  19.544  0.00  0.00    +0.000 A 
ATOM     19  N   UNL     1       4.273  17.080  19.238  0.00  0.00    +0.000 NA
ATOM     20  N   UNL     1       3.049  17.576  18.856  0.00  0.00    +0.000 NA
ATOM     21  C   UNL     1       2.182  16.593  18.920  0.00  0.00    +0.000 A 
ATOM     22  C   UNL     1       0.786  16.527  18.660  0.00  0.00    +0.000 A 
ATOM     23  C   UNL     1       0.126  15.358  18.820  0.00  0.00    +0.000 A 
ATOM     24  C   UNL     1       0.822  14.158  19.253  0.00  0.00    +0.000 A 
ATOM     25  C   UNL     1       2.143  14.218  19.502  0.00  0.00    +0.000 A 
ATOM     26  N   UNL     1       2.820  15.429  19.340  0.00  0.00    +0.000 N 
ENDBRANCH   7  18
TORSDOF 2
ENDMDL
MODEL 9
REMARK VINA RESULT:      -6.9      2.697      4.808
REMARK  Name = 
REMARK  3 active torsions:
REMARK  status: ('A' for Active; 'I' for Inactive)
REMARK    1  A    between atoms: C_1  and  N_2
REMARK    2  A    between atoms: C_4  and  C_5
REMARK    3  A    between atoms: C_11  and  C_12
REMARK                            x       y       z     vdW  Elec       q    Type
REMARK                         _______ _______ _______ _____ _____    ______ ____
ROOT
ATOM      1  C   UNL     1       0.098  10.021  19.013  0.00  0.00    +0.000 C 
ATOM      2  O   UNL     1       0.960  10.252  18.162  0.00  0.00    +0.000 OA
ATOM      3  N   UNL     1       0.387   9.198  20.095  0.00  0.00    +0.000 N 
ATOM      4  C   UNL     1      -0.458   8.870  21.229  0.00  0.00    +0.000 C 
ATOM      5  C   UNL     1       0.480   8.866  22.417  0.00  0.00    +0.000 C 
ATOM      6  C   UNL     1       1.806   8.400  21.840  0.00  0.00    +0.000 C 
ATOM      7  C   UNL     1       1.779   8.833  20.360  0.00  0.00    +0.000 C 
ENDROOT
BRANCH   1  11
ATOM      8  C   UNL     1      -3.710  13.098  20.078  0.00  0.00    +0.000 C 
ATOM      9  N   UNL     1      -2.909  12.087  19.422  0.00  0.00    +0.000 N 
ATOM     10  C   UNL     1      -1.732  11.588  19.911  0.00  0.00    +0.000 A 
ATOM     11  C   UNL     1      -1.192  10.721  18.975  0.00  0.00    +0.000 A 
ATOM     12  C   UNL     1      -2.156  10.640  17.908  0.00  0.00    +0.000 A 
ATOM     13  C   UNL     1      -2.210   9.926  16.690  0.00  0.00    +0.000 A 
ATOM     14  C   UNL     1      -3.287  10.113  15.815  0.00  0.00    +0.000 A 
ATOM     15  C   UNL     1      -4.312  10.995  16.138  0.00  0.00    +0.000 A 
ATOM     16  C   UNL     1      -4.291  11.710  17.338  0.00  0.00    +0.000 A 
ATOM     17  C   UNL     1      -3.203  11.518  18.205  0.00  0.00    +0.000 A 
ENDBRANCH   1  11
BRANCH   7  18
ATOM     18  C   UNL     1       2.247   7.735  19.459  0.00  0.00    +0.000 A 
ATOM     19  N   UNL     1       2.881   7.886  18.307  0.00  0.00    +0.000 NA
ATOM     20  N   UNL     1       3.046   6.649  17.729  0.00  0.00    +0.000 NA
ATOM     21  C   UNL     1       2.524   5.758  18.538  0.00  0.00    +0.000 A 
ATOM     22  C   UNL     1       2.394   4.344  18.451  0.00  0.00    +0.000 A 
ATOM     23  C   UNL     1       1.790   3.662  19.450  0.00  0.00    +0.000 A 
ATOM     24  C   UNL     1       1.271   4.350  20.621  0.00  0.00    +0.000 A 
ATOM     25  C   UNL     1       1.390   5.687  20.704  0.00  0.00    +0.000 A 
ATOM     26  N   UNL     1       2.011   6.388  19.667  0.00  0.00    +0.000 N 
ENDBRANCH   7  18
TORSDOF 2
ENDMDL
