MODEL 1
REMARK VINA RESULT:      -9.6      0.000      0.000
REMARK  Name = 
REMARK  6 active torsions:
REMARK  status: ('A' for Active; 'I' for Inactive)
REMARK    1  A    between atoms: C_1  and  C_2
REMARK    2  A    between atoms: C_7  and  C_8
REMARK    3  A    between atoms: C_10  and  C_11
REMARK    4  A    between atoms: N_13  and  C_14
REMARK    5  A    between atoms: N_13  and  C_15
REMARK    6  A    between atoms: C_15  and  C_16
REMARK                            x       y       z     vdW  Elec       q    Type
REMARK                         _______ _______ _______ _____ _____    ______ ____
ROOT
ATOM      1  C   UNL     1       3.540   3.946  17.662  0.00  0.00    +0.000 C 
ATOM      2  O   UNL     1       2.997   3.195  16.851  0.00  0.00    +0.000 OA
ATOM      3  N   UNL     1       2.841   4.367  18.827  0.00  0.00    +0.000 N 
ATOM      4  C   UNL     1       1.427   4.001  18.907  0.00  0.00    +0.000 C 
ENDROOT
BRANCH   1  14
ATOM      5  C   UNL     1       4.881   3.547  12.385  0.00  0.00    +0.000 C 
ATOM      6  C   UNL     1       5.563   4.054  13.621  0.00  0.00    +0.000 A 
ATOM      7  C   UNL     1       6.897   4.442  13.589  0.00  0.00    +0.000 A 
ATOM      8  C   UNL     1       7.507   4.909  14.749  0.00  0.00    +0.000 A 
ATOM      9  C   UNL     1       6.846   4.939  15.966  0.00  0.00    +0.000 A 
ATOM     10  N   UNL     1       7.558   5.372  17.015  0.00  0.00    +0.000 NA
ATOM     11  C   UNL     1       7.050   5.202  18.242  0.00  0.00    +0.000 A 
ATOM     12  C   UNL     1       7.824   5.723  19.415  0.00  0.00    +0.000 C 
ATOM     13  C   UNL     1       5.822   4.611  18.446  0.00  0.00    +0.000 A 
ATOM     14  C   UNL     1       4.960   4.392  17.374  0.00  0.00    +0.000 A 
ATOM     15  C   UNL     1       5.506   4.489  16.057  0.00  0.00    +0.000 A 
ATOM     16  C   UNL     1       4.866   4.120  14.839  0.00  0.00    +0.000 A 
ENDBRANCH   1  14
BRANCH   3  17
ATOM     17  C   UNL     1       3.287   5.446  19.715  0.00  0.00    +0.000 C 
BRANCH  17  18
ATOM     18  C   UNL     1       2.559   6.778  19.660  0.00  0.00    +0.000 A 
ATOM     19  N   UNL     1       1.869   7.165  20.677  0.00  0.00    +0.000 NA
ATOM     20  C   UNL     1       1.170   8.371  20.561  0.00  0.00    +0.000 A 
ATOM     21  C   UNL     1       0.436   8.801  21.664  0.00  0.00    +0.000 A 
ATOM     22  C   UNL     1      -0.305   9.981  21.598  0.00  0.00    +0.000 A 
ATOM     23  C   UNL     1      -0.310  10.741  20.427  0.00  0.00    +0.000 A 
ATOM     24  C   UNL     1       0.434  10.329  19.321  0.00  0.00    +0.000 A 
ATOM     25  C   UNL     1       1.175   9.148  19.402  0.00  0.00    +0.000 A 
ATOM     26  C   UNL     1       1.995   8.672  18.276  0.00  0.00    +0.000 A 
ATOM     27  O   UNL     1       2.062   9.270  17.209  0.00  0.00    +0.000 OA
ATOM     28  N   UNL     1       2.676   7.500  18.499  0.00  0.00    +0.000 N 
ATOM     29  H   UNL     1       3.241   7.175  17.728  0.00  0.00    +0.000 HD
ENDBRANCH  17  18
ENDBRANCH   3  17
TORSDOF 3
ENDMDL
MODEL 2
REMARK VINA RESULT:      -9.2      0.957      1.122
REMARK  Name = 
REMARK  6 active torsions:
REMARK  status: ('A' for Active; 'I' for Inactive)
REMARK    1  A    between atoms: C_1  and  C_2
REMARK    2  A    between atoms: C_7  and  C_8
REMARK    3  A    between atoms: C_10  and  C_11
REMARK    4  A    between atoms: N_13  and  C_14
REMARK    5  A    between atoms: N_13  and  C_15
REMARK    6  A    between atoms: C_15  and  C_16
REMARK                            x       y       z     vdW  Elec       q    Type
REMARK                         _______ _______ _______ _____ _____    ______ ____
ROOT
ATOM      1  C   UNL     1       3.680   4.301  17.789  0.00  0.00    +0.000 C 
ATOM      2  O   UNL     1       3.366   3.112  17.845  0.00  0.00    +0.000 OA
ATOM      3  N   UNL     1       2.707   5.310  18.035  0.00  0.00    +0.000 N 
ATOM      4  C   UNL     1       1.323   4.859  18.182  0.00  0.00    +0.000 C 
ENDROOT
BRANCH   1  14
ATOM      5  C   UNL     1       4.877   3.626  12.506  0.00  0.00    +0.000 C 
ATOM      6  C   UNL     1       5.618   4.130  13.710  0.00  0.00    +0.000 A 
ATOM      7  C   UNL     1       6.974   4.426  13.638  0.00  0.00    +0.000 A 
ATOM      8  C   UNL     1       7.639   4.891  14.768  0.00  0.00    +0.000 A 
ATOM      9  C   UNL     1       7.007   5.009  15.995  0.00  0.00    +0.000 A 
ATOM     10  N   UNL     1       7.768   5.429  17.014  0.00  0.00    +0.000 NA
ATOM     11  C   UNL     1       7.277   5.338  18.256  0.00  0.00    +0.000 A 
ATOM     12  C   UNL     1       8.109   5.846  19.395  0.00  0.00    +0.000 C 
ATOM     13  C   UNL     1       6.017   4.838  18.505  0.00  0.00    +0.000 A 
ATOM     14  C   UNL     1       5.119   4.640  17.458  0.00  0.00    +0.000 A 
ATOM     15  C   UNL     1       5.642   4.654  16.128  0.00  0.00    +0.000 A 
ATOM     16  C   UNL     1       4.954   4.286  14.937  0.00  0.00    +0.000 A 
ENDBRANCH   1  14
BRANCH   3  17
ATOM     17  C   UNL     1       2.902   6.735  17.749  0.00  0.00    +0.000 C 
BRANCH  17  18
ATOM     18  C   UNL     1       2.124   7.752  18.566  0.00  0.00    +0.000 A 
ATOM     19  N   UNL     1       2.100   7.647  19.850  0.00  0.00    +0.000 NA
ATOM     20  C   UNL     1       1.326   8.573  20.557  0.00  0.00    +0.000 A 
ATOM     21  C   UNL     1       1.310   8.473  21.947  0.00  0.00    +0.000 A 
ATOM     22  C   UNL     1       0.533   9.349  22.706  0.00  0.00    +0.000 A 
ATOM     23  C   UNL     1      -0.228  10.335  22.076  0.00  0.00    +0.000 A 
ATOM     24  C   UNL     1      -0.207  10.456  20.686  0.00  0.00    +0.000 A 
ATOM     25  C   UNL     1       0.577   9.574  19.939  0.00  0.00    +0.000 A 
ATOM     26  C   UNL     1       0.656   9.664  18.471  0.00  0.00    +0.000 A 
ATOM     27  O   UNL     1       0.031  10.498  17.827  0.00  0.00    +0.000 OA
ATOM     28  N   UNL     1       1.472   8.739  17.869  0.00  0.00    +0.000 N 
ATOM     29  H   UNL     1       1.529   8.801  16.863  0.00  0.00    +0.000 HD
ENDBRANCH  17  18
ENDBRANCH   3  17
TORSDOF 3
ENDMDL
MODEL 3
REMARK VINA RESULT:      -9.1      1.130      1.809
REMARK  Name = 
REMARK  6 active torsions:
REMARK  status: ('A' for Active; 'I' for Inactive)
REMARK    1  A    between atoms: C_1  and  C_2
REMARK    2  A    between atoms: C_7  and  C_8
REMARK    3  A    between atoms: C_10  and  C_11
REMARK    4  A    between atoms: N_13  and  C_14
REMARK    5  A    between atoms: N_13  and  C_15
REMARK    6  A    between atoms: C_15  and  C_16
REMARK                            x       y       z     vdW  Elec       q    Type
REMARK                         _______ _______ _______ _____ _____    ______ ____
ROOT
ATOM      1  C   UNL     1       3.572   3.848  17.626  0.00  0.00    +0.000 C 
ATOM      2  O   UNL     1       3.028   3.120  16.795  0.00  0.00    +0.000 OA
ATOM      3  N   UNL     1       2.883   4.214  18.815  0.00  0.00    +0.000 N 
ATOM      4  C   UNL     1       1.475   3.826  18.900  0.00  0.00    +0.000 C 
ENDROOT
BRANCH   1  14
ATOM      5  C   UNL     1       4.907   3.503  12.345  0.00  0.00    +0.000 C 
ATOM      6  C   UNL     1       5.582   4.017  13.582  0.00  0.00    +0.000 A 
ATOM      7  C   UNL     1       6.908   4.432  13.548  0.00  0.00    +0.000 A 
ATOM      8  C   UNL     1       7.511   4.905  14.709  0.00  0.00    +0.000 A 
ATOM      9  C   UNL     1       6.852   4.916  15.928  0.00  0.00    +0.000 A 
ATOM     10  N   UNL     1       7.558   5.357  16.977  0.00  0.00    +0.000 NA
ATOM     11  C   UNL     1       7.057   5.171  18.205  0.00  0.00    +0.000 A 
ATOM     12  C   UNL     1       7.823   5.701  19.379  0.00  0.00    +0.000 C 
ATOM     13  C   UNL     1       5.841   4.554  18.409  0.00  0.00    +0.000 A 
ATOM     14  C   UNL     1       4.981   4.323  17.337  0.00  0.00    +0.000 A 
ATOM     15  C   UNL     1       5.522   4.438  16.020  0.00  0.00    +0.000 A 
ATOM     16  C   UNL     1       4.887   4.063  14.802  0.00  0.00    +0.000 A 
ENDBRANCH   1  14
BRANCH   3  17
ATOM     17  C   UNL     1       3.326   5.265  19.738  0.00  0.00    +0.000 C 
BRANCH  17  18
ATOM     18  C   UNL     1       2.556   6.574  19.771  0.00  0.00    +0.000 A 
ATOM     19  N   UNL     1       2.617   7.370  18.760  0.00  0.00    +0.000 NA
ATOM     20  C   UNL     1       1.936   8.588  18.857  0.00  0.00    +0.000 A 
ATOM     21  C   UNL     1       1.987   9.445  17.759  0.00  0.00    +0.000 A 
ATOM     22  C   UNL     1       1.352  10.686  17.807  0.00  0.00    +0.000 A 
ATOM     23  C   UNL     1       0.658  11.074  18.955  0.00  0.00    +0.000 A 
ATOM     24  C   UNL     1       0.588  10.219  20.054  0.00  0.00    +0.000 A 
ATOM     25  C   UNL     1       1.224   8.977  19.992  0.00  0.00    +0.000 A 
ATOM     26  C   UNL     1       1.168   8.022  21.111  0.00  0.00    +0.000 A 
ATOM     27  O   UNL     1       0.580   8.267  22.157  0.00  0.00    +0.000 OA
ATOM     28  N   UNL     1       1.832   6.838  20.907  0.00  0.00    +0.000 N 
ATOM     29  H   UNL     1       1.791   6.181  21.673  0.00  0.00    +0.000 HD
ENDBRANCH  17  18
ENDBRANCH   3  17
TORSDOF 3
ENDMDL
MODEL 4
REMARK VINA RESULT:      -9.0      1.280      1.802
REMARK  Name = 
REMARK  6 active torsions:
REMARK  status: ('A' for Active; 'I' for Inactive)
REMARK    1  A    between atoms: C_1  and  C_2
REMARK    2  A    between atoms: C_7  and  C_8
REMARK    3  A    between atoms: C_10  and  C_11
REMARK    4  A    between atoms: N_13  and  C_14
REMARK    5  A    between atoms: N_13  and  C_15
REMARK    6  A    between atoms: C_15  and  C_16
REMARK                            x       y       z     vdW  Elec       q    Type
REMARK                         _______ _______ _______ _____ _____    ______ ____
ROOT
ATOM      1  C   UNL     1       3.637   4.309  17.526  0.00  0.00    +0.000 C 
ATOM      2  O   UNL     1       3.242   3.149  17.400  0.00  0.00    +0.000 OA
ATOM      3  N   UNL     1       2.745   5.323  17.972  0.00  0.00    +0.000 N 
ATOM      4  C   UNL     1       1.338   4.944  18.100  0.00  0.00    +0.000 C 
ENDROOT
BRANCH   1  14
ATOM      5  C   UNL     1       4.829   3.551  12.253  0.00  0.00    +0.000 C 
ATOM      6  C   UNL     1       5.580   4.044  13.454  0.00  0.00    +0.000 A 
ATOM      7  C   UNL     1       6.944   4.302  13.383  0.00  0.00    +0.000 A 
ATOM      8  C   UNL     1       7.619   4.759  14.511  0.00  0.00    +0.000 A 
ATOM      9  C   UNL     1       6.987   4.906  15.735  0.00  0.00    +0.000 A 
ATOM     10  N   UNL     1       7.757   5.316  16.752  0.00  0.00    +0.000 NA
ATOM     11  C   UNL     1       7.260   5.250  17.993  0.00  0.00    +0.000 A 
ATOM     12  C   UNL     1       8.103   5.745  19.129  0.00  0.00    +0.000 C 
ATOM     13  C   UNL     1       5.986   4.787  18.243  0.00  0.00    +0.000 A 
ATOM     14  C   UNL     1       5.086   4.604  17.196  0.00  0.00    +0.000 A 
ATOM     15  C   UNL     1       5.613   4.591  15.868  0.00  0.00    +0.000 A 
ATOM     16  C   UNL     1       4.917   4.231  14.678  0.00  0.00    +0.000 A 
ENDBRANCH   1  14
BRANCH   3  17
ATOM     17  C   UNL     1       3.030   6.761  17.913  0.00  0.00    +0.000 C 
BRANCH  17  18
ATOM     18  C   UNL     1       2.122   7.712  18.672  0.00  0.00    +0.000 A 
ATOM     19  N   UNL     1       1.419   8.573  18.020  0.00  0.00    +0.000 NA
ATOM     20  C   UNL     1       0.639   9.464  18.763  0.00  0.00    +0.000 A 
ATOM     21  C   UNL     1      -0.135  10.386  18.061  0.00  0.00    +0.000 A 
ATOM     22  C   UNL     1      -0.911  11.320  18.747  0.00  0.00    +0.000 A 
ATOM     23  C   UNL     1      -0.921  11.332  20.143  0.00  0.00    +0.000 A 
ATOM     24  C   UNL     1      -0.162  10.405  20.858  0.00  0.00    +0.000 A 
ATOM     25  C   UNL     1       0.608   9.472  20.158  0.00  0.00    +0.000 A 
ATOM     26  C   UNL     1       1.412   8.456  20.855  0.00  0.00    +0.000 A 
ATOM     27  O   UNL     1       1.466   8.380  22.077  0.00  0.00    +0.000 OA
ATOM     28  N   UNL     1       2.111   7.600  20.040  0.00  0.00    +0.000 N 
ATOM     29  H   UNL     1       2.661   6.900  20.518  0.00  0.00    +0.000 HD
ENDBRANCH  17  18
ENDBRANCH   3  17
TORSDOF 3
ENDMDL
MODEL 5
REMARK VINA RESULT:      -8.8      2.782      4.160
REMARK  Name = 
REMARK  6 active torsions:
REMARK  status: ('A' for Active; 'I' for Inactive)
REMARK    1  A    between atoms: C_1  and  C_2
REMARK    2  A    between atoms: C_7  and  C_8
REMARK    3  A    between atoms: C_10  and  C_11
REMARK    4  A    between atoms: N_13  and  C_14
REMARK    5  A    between atoms: N_13  and  C_15
REMARK    6  A    between atoms: C_15  and  C_16
REMARK                            x       y       z     vdW  Elec       q    Type
REMARK                         _______ _______ _______ _____ _____    ______ ____
ROOT
ATOM      1  C   UNL     1       3.391   7.199  17.663  0.00  0.00    +0.000 C 
ATOM      2  O   UNL     1       3.618   7.556  16.506  0.00  0.00    +0.000 OA
ATOM      3  N   UNL     1       2.355   7.821  18.412  0.00  0.00    +0.000 N 
ATOM      4  C   UNL     1       1.717   8.987  17.801  0.00  0.00    +0.000 C 
ENDROOT
BRANCH   1  14
ATOM      5  C   UNL     1       0.545   2.670  18.751  0.00  0.00    +0.000 C 
ATOM      6  C   UNL     1       1.990   3.063  18.828  0.00  0.00    +0.000 A 
ATOM      7  C   UNL     1       2.929   2.212  19.399  0.00  0.00    +0.000 A 
ATOM      8  C   UNL     1       4.265   2.599  19.459  0.00  0.00    +0.000 A 
ATOM      9  C   UNL     1       4.688   3.845  19.026  0.00  0.00    +0.000 A 
ATOM     10  N   UNL     1       5.992   4.111  19.177  0.00  0.00    +0.000 NA
ATOM     11  C   UNL     1       6.410   5.371  18.996  0.00  0.00    +0.000 A 
ATOM     12  C   UNL     1       7.874   5.664  19.122  0.00  0.00    +0.000 C 
ATOM     13  C   UNL     1       5.540   6.383  18.651  0.00  0.00    +0.000 A 
ATOM     14  C   UNL     1       4.242   6.087  18.241  0.00  0.00    +0.000 A 
ATOM     15  C   UNL     1       3.752   4.770  18.500  0.00  0.00    +0.000 A 
ATOM     16  C   UNL     1       2.413   4.313  18.346  0.00  0.00    +0.000 A 
ENDBRANCH   1  14
BRANCH   3  17
ATOM     17  C   UNL     1       2.167   7.659  19.858  0.00  0.00    +0.000 C 
BRANCH  17  18
ATOM     18  C   UNL     1       1.256   8.632  20.585  0.00  0.00    +0.000 A 
ATOM     19  N   UNL     1       0.515   9.436  19.904  0.00  0.00    +0.000 NA
ATOM     20  C   UNL     1      -0.266  10.353  20.615  0.00  0.00    +0.000 A 
ATOM     21  C   UNL     1      -1.080  11.213  19.882  0.00  0.00    +0.000 A 
ATOM     22  C   UNL     1      -1.860  12.169  20.534  0.00  0.00    +0.000 A 
ATOM     23  C   UNL     1      -1.832  12.264  21.927  0.00  0.00    +0.000 A 
ATOM     24  C   UNL     1      -1.032  11.397  22.673  0.00  0.00    +0.000 A 
ATOM     25  C   UNL     1      -0.260  10.443  22.007  0.00  0.00    +0.000 A 
ATOM     26  C   UNL     1       0.588   9.488  22.740  0.00  0.00    +0.000 A 
ATOM     27  O   UNL     1       0.676   9.487  23.962  0.00  0.00    +0.000 OA
ATOM     28  N   UNL     1       1.286   8.601  21.957  0.00  0.00    +0.000 N 
ATOM     29  H   UNL     1       1.865   7.944  22.459  0.00  0.00    +0.000 HD
ENDBRANCH  17  18
ENDBRANCH   3  17
TORSDOF 3
ENDMDL
MODEL 6
REMARK VINA RESULT:      -8.6      3.808      9.824
REMARK  Name = 
REMARK  6 active torsions:
REMARK  status: ('A' for Active; 'I' for Inactive)
REMARK    1  A    between atoms: C_1  and  C_2
REMARK    2  A    between atoms: C_7  and  C_8
REMARK    3  A    between atoms: C_10  and  C_11
REMARK    4  A    between atoms: N_13  and  C_14
REMARK    5  A    between atoms: N_13  and  C_15
REMARK    6  A    between atoms: C_15  and  C_16
REMARK                            x       y       z     vdW  Elec       q    Type
REMARK                         _______ _______ _______ _____ _____    ______ ____
ROOT
ATOM      1  C   UNL     1      -0.591  12.562  19.094  0.00  0.00    +0.000 C 
ATOM      2  O   UNL     1      -0.188  13.625  18.619  0.00  0.00    +0.000 OA
ATOM      3  N   UNL     1       0.138  11.924  20.135  0.00  0.00    +0.000 N 
ATOM      4  C   UNL     1       1.439  12.502  20.471  0.00  0.00    +0.000 C 
ENDROOT
BRANCH   1  14
ATOM      5  C   UNL     1      -4.909  13.398  22.326  0.00  0.00    +0.000 C 
ATOM      6  C   UNL     1      -4.693  12.778  20.977  0.00  0.00    +0.000 A 
ATOM      7  C   UNL     1      -5.727  12.118  20.324  0.00  0.00    +0.000 A 
ATOM      8  C   UNL     1      -5.502  11.551  19.073  0.00  0.00    +0.000 A 
ATOM      9  C   UNL     1      -4.252  11.561  18.477  0.00  0.00    +0.000 A 
ATOM     10  N   UNL     1      -4.158  10.945  17.291  0.00  0.00    +0.000 NA
ATOM     11  C   UNL     1      -2.939  10.722  16.785  0.00  0.00    +0.000 A 
ATOM     12  C   UNL     1      -2.831  10.071  15.439  0.00  0.00    +0.000 C 
ATOM     13  C   UNL     1      -1.794  11.117  17.443  0.00  0.00    +0.000 A 
ATOM     14  C   UNL     1      -1.872  11.977  18.536  0.00  0.00    +0.000 A 
ATOM     15  C   UNL     1      -3.154  12.164  19.139  0.00  0.00    +0.000 A 
ATOM     16  C   UNL     1      -3.430  12.834  20.365  0.00  0.00    +0.000 A 
ENDBRANCH   1  14
BRANCH   3  17
ATOM     17  C   UNL     1      -0.102  10.550  20.591  0.00  0.00    +0.000 C 
BRANCH  17  18
ATOM     18  C   UNL     1       0.725   9.430  19.986  0.00  0.00    +0.000 A 
ATOM     19  N   UNL     1       0.909   8.345  20.656  0.00  0.00    +0.000 NA
ATOM     20  C   UNL     1       1.723   7.363  20.082  0.00  0.00    +0.000 A 
ATOM     21  C   UNL     1       1.911   6.182  20.797  0.00  0.00    +0.000 A 
ATOM     22  C   UNL     1       2.736   5.177  20.290  0.00  0.00    +0.000 A 
ATOM     23  C   UNL     1       3.374   5.349  19.060  0.00  0.00    +0.000 A 
ATOM     24  C   UNL     1       3.182   6.522  18.329  0.00  0.00    +0.000 A 
ATOM     25  C   UNL     1       2.350   7.517  18.846  0.00  0.00    +0.000 A 
ATOM     26  C   UNL     1       2.092   8.767  18.112  0.00  0.00    +0.000 A 
ATOM     27  O   UNL     1       2.600   9.010  17.024  0.00  0.00    +0.000 OA
ATOM     28  N   UNL     1       1.248   9.651  18.736  0.00  0.00    +0.000 N 
ATOM     29  H   UNL     1       1.068  10.508  18.232  0.00  0.00    +0.000 HD
ENDBRANCH  17  18
ENDBRANCH   3  17
TORSDOF 3
ENDMDL
MODEL 7
REMARK VINA RESULT:      -8.6      2.559      7.846
REMARK  Name = 
REMARK  6 active torsions:
REMARK  status: ('A' for Active; 'I' for Inactive)
REMARK    1  A    between atoms: C_1  and  C_2
REMARK    2  A    between atoms: C_7  and  C_8
REMARK    3  A    between atoms: C_10  and  C_11
REMARK    4  A    between atoms: N_13  and  C_14
REMARK    5  A    between atoms: N_13  and  C_15
REMARK    6  A    between atoms: C_15  and  C_16
REMARK                            x       y       z     vdW  Elec       q    Type
REMARK                         _______ _______ _______ _____ _____    ______ ____
ROOT
ATOM      1  C   UNL     1       5.988   5.292  19.031  0.00  0.00    +0.000 C 
ATOM      2  O   UNL     1       6.698   5.447  20.025  0.00  0.00    +0.000 OA
ATOM      3  N   UNL     1       6.330   5.923  17.802  0.00  0.00    +0.000 N 
ATOM      4  C   UNL     1       7.444   6.872  17.844  0.00  0.00    +0.000 C 
ENDROOT
BRANCH   1  14
ATOM      5  C   UNL     1       1.608   8.002  20.839  0.00  0.00    +0.000 C 
ATOM      6  C   UNL     1       1.878   6.599  20.380  0.00  0.00    +0.000 A 
ATOM      7  C   UNL     1       0.903   5.615  20.492  0.00  0.00    +0.000 A 
ATOM      8  C   UNL     1       1.177   4.321  20.059  0.00  0.00    +0.000 A 
ATOM      9  C   UNL     1       2.424   3.957  19.577  0.00  0.00    +0.000 A 
ATOM     10  N   UNL     1       2.571   2.671  19.232  0.00  0.00    +0.000 NA
ATOM     11  C   UNL     1       3.806   2.216  18.984  0.00  0.00    +0.000 A 
ATOM     12  C   UNL     1       3.970   0.788  18.557  0.00  0.00    +0.000 C 
ATOM     13  C   UNL     1       4.912   3.034  19.065  0.00  0.00    +0.000 A 
ATOM     14  C   UNL     1       4.761   4.415  19.166  0.00  0.00    +0.000 A 
ATOM     15  C   UNL     1       3.466   4.913  19.510  0.00  0.00    +0.000 A 
ATOM     16  C   UNL     1       3.133   6.255  19.853  0.00  0.00    +0.000 A 
ENDBRANCH   1  14
BRANCH   3  17
ATOM     17  C   UNL     1       5.437   6.017  16.643  0.00  0.00    +0.000 C 
BRANCH  17  18
ATOM     18  C   UNL     1       5.898   5.426  15.322  0.00  0.00    +0.000 A 
ATOM     19  N   UNL     1       5.140   4.586  14.705  0.00  0.00    +0.000 NA
ATOM     20  C   UNL     1       5.630   4.026  13.521  0.00  0.00    +0.000 A 
ATOM     21  C   UNL     1       4.807   3.129  12.842  0.00  0.00    +0.000 A 
ATOM     22  C   UNL     1       5.251   2.515  11.671  0.00  0.00    +0.000 A 
ATOM     23  C   UNL     1       6.523   2.801  11.169  0.00  0.00    +0.000 A 
ATOM     24  C   UNL     1       7.350   3.709  11.832  0.00  0.00    +0.000 A 
ATOM     25  C   UNL     1       6.891   4.320  13.001  0.00  0.00    +0.000 A 
ATOM     26  C   UNL     1       7.709   5.301  13.733  0.00  0.00    +0.000 A 
ATOM     27  O   UNL     1       8.834   5.622  13.371  0.00  0.00    +0.000 OA
ATOM     28  N   UNL     1       7.127   5.826  14.860  0.00  0.00    +0.000 N 
ATOM     29  H   UNL     1       7.686   6.501  15.361  0.00  0.00    +0.000 HD
ENDBRANCH  17  18
ENDBRANCH   3  17
TORSDOF 3
ENDMDL
MODEL 8
REMARK VINA RESULT:      -8.4      2.677      8.766
REMARK  Name = 
REMARK  6 active torsions:
REMARK  status: ('A' for Active; 'I' for Inactive)
REMARK    1  A    between atoms: C_1  and  C_2
REMARK    2  A    between atoms: C_7  and  C_8
REMARK    3  A    between atoms: C_10  and  C_11
REMARK    4  A    between atoms: N_13  and  C_14
REMARK    5  A    between atoms: N_13  and  C_15
REMARK    6  A    between atoms: C_15  and  C_16
REMARK                            x       y       z     vdW  Elec       q    Type
REMARK                         _______ _______ _______ _____ _____    ______ ____
ROOT
ATOM      1  C   UNL     1       0.384   9.412  20.422  0.00  0.00    +0.000 C 
ATOM      2  O   UNL     1       0.056   9.402  21.609  0.00  0.00    +0.000 OA
ATOM      3  N   UNL     1       1.289   8.435  19.922  0.00  0.00    +0.000 N 
ATOM      4  C   UNL     1       1.915   7.558  20.912  0.00  0.00    +0.000 C 
ENDROOT
BRANCH   1  14
ATOM      5  C   UNL     1       2.646  14.320  21.188  0.00  0.00    +0.000 C 
ATOM      6  C   UNL     1       1.613  13.758  20.258  0.00  0.00    +0.000 A 
ATOM      7  C   UNL     1       0.893  14.590  19.408  0.00  0.00    +0.000 A 
ATOM      8  C   UNL     1      -0.061  14.044  18.554  0.00  0.00    +0.000 A 
ATOM      9  C   UNL     1      -0.371  12.694  18.566  0.00  0.00    +0.000 A 
ATOM     10  N   UNL     1      -1.336  12.302  17.724  0.00  0.00    +0.000 NA
ATOM     11  C   UNL     1      -1.835  11.067  17.859  0.00  0.00    +0.000 A 
ATOM     12  C   UNL     1      -2.885  10.610  16.892  0.00  0.00    +0.000 C 
ATOM     13  C   UNL     1      -1.374  10.198  18.824  0.00  0.00    +0.000 A 
ATOM     14  C   UNL     1      -0.209  10.485  19.532  0.00  0.00    +0.000 A 
ATOM     15  C   UNL     1       0.291  11.822  19.464  0.00  0.00    +0.000 A 
ATOM     16  C   UNL     1       1.339  12.381  20.250  0.00  0.00    +0.000 A 
ENDBRANCH   1  14
BRANCH   3  17
ATOM     17  C   UNL     1       1.939   8.504  18.609  0.00  0.00    +0.000 C 
BRANCH  17  18
ATOM     18  C   UNL     1       2.730   7.301  18.127  0.00  0.00    +0.000 A 
ATOM     19  N   UNL     1       3.911   7.471  17.642  0.00  0.00    +0.000 NA
ATOM     20  C   UNL     1       4.580   6.341  17.160  0.00  0.00    +0.000 A 
ATOM     21  C   UNL     1       5.864   6.520  16.650  0.00  0.00    +0.000 A 
ATOM     22  C   UNL     1       6.570   5.435  16.128  0.00  0.00    +0.000 A 
ATOM     23  C   UNL     1       5.994   4.163  16.119  0.00  0.00    +0.000 A 
ATOM     24  C   UNL     1       4.715   3.969  16.642  0.00  0.00    +0.000 A 
ATOM     25  C   UNL     1       4.021   5.063  17.165  0.00  0.00    +0.000 A 
ATOM     26  C   UNL     1       2.677   4.918  17.748  0.00  0.00    +0.000 A 
ATOM     27  O   UNL     1       2.089   3.844  17.793  0.00  0.00    +0.000 OA
ATOM     28  N   UNL     1       2.119   6.076  18.232  0.00  0.00    +0.000 N 
ATOM     29  H   UNL     1       1.198   5.977  18.635  0.00  0.00    +0.000 HD
ENDBRANCH  17  18
ENDBRANCH   3  17
TORSDOF 3
ENDMDL
MODEL 9
REMARK VINA RESULT:      -8.3      7.342     12.013
REMARK  Name = 
REMARK  6 active torsions:
REMARK  status: ('A' for Active; 'I' for Inactive)
REMARK    1  A    between atoms: C_1  and  C_2
REMARK    2  A    between atoms: C_7  and  C_8
REMARK    3  A    between atoms: C_10  and  C_11
REMARK    4  A    between atoms: N_13  and  C_14
REMARK    5  A    between atoms: N_13  and  C_15
REMARK    6  A    between atoms: C_15  and  C_16
REMARK                            x       y       z     vdW  Elec       q    Type
REMARK                         _______ _______ _______ _____ _____    ______ ____
ROOT
ATOM      1  C   UNL     1      -3.304  12.558  23.096  0.00  0.00    +0.000 C 
ATOM      2  O   UNL     1      -3.688  12.125  24.183  0.00  0.00    +0.000 OA
ATOM      3  N   UNL     1      -2.177  11.974  22.453  0.00  0.00    +0.000 N 
ATOM      4  C   UNL     1      -1.429  10.979  23.221  0.00  0.00    +0.000 C 
ENDROOT
BRANCH   1  14
ATOM      5  C   UNL     1      -7.069  10.950  19.486  0.00  0.00    +0.000 C 
ATOM      6  C   UNL     1      -6.647  12.266  20.069  0.00  0.00    +0.000 A 
ATOM      7  C   UNL     1      -7.175  13.459  19.589  0.00  0.00    +0.000 A 
ATOM      8  C   UNL     1      -6.767  14.667  20.146  0.00  0.00    +0.000 A 
ATOM      9  C   UNL     1      -5.793  14.731  21.129  0.00  0.00    +0.000 A 
ATOM     10  N   UNL     1      -5.460  15.957  21.553  0.00  0.00    +0.000 NA
ATOM     11  C   UNL     1      -4.372  16.092  22.322  0.00  0.00    +0.000 A 
ATOM     12  C   UNL     1      -4.021  17.457  22.832  0.00  0.00    +0.000 C 
ATOM     13  C   UNL     1      -3.604  15.009  22.691  0.00  0.00    +0.000 A 
ATOM     14  C   UNL     1      -4.069  13.712  22.482  0.00  0.00    +0.000 A 
ATOM     15  C   UNL     1      -5.180  13.543  21.599  0.00  0.00    +0.000 A 
ATOM     16  C   UNL     1      -5.690  12.313  21.096  0.00  0.00    +0.000 A 
ENDBRANCH   1  14
BRANCH   3  17
ATOM     17  C   UNL     1      -1.485  12.563  21.300  0.00  0.00    +0.000 C 
BRANCH  17  18
ATOM     18  C   UNL     1      -1.665  11.915  19.939  0.00  0.00    +0.000 A 
ATOM     19  N   UNL     1      -2.765  12.092  19.293  0.00  0.00    +0.000 NA
ATOM     20  C   UNL     1      -2.907  11.432  18.068  0.00  0.00    +0.000 A 
ATOM     21  C   UNL     1      -4.090  11.633  17.359  0.00  0.00    +0.000 A 
ATOM     22  C   UNL     1      -4.302  10.979  16.145  0.00  0.00    +0.000 A 
ATOM     23  C   UNL     1      -3.327  10.121  15.632  0.00  0.00    +0.000 A 
ATOM     24  C   UNL     1      -2.132   9.923  16.325  0.00  0.00    +0.000 A 
ATOM     25  C   UNL     1      -1.931  10.588  17.537  0.00  0.00    +0.000 A 
ATOM     26  C   UNL     1      -0.684  10.436  18.304  0.00  0.00    +0.000 A 
ATOM     27  O   UNL     1       0.233   9.712  17.936  0.00  0.00    +0.000 OA
ATOM     28  N   UNL     1      -0.621  11.155  19.472  0.00  0.00    +0.000 N 
ATOM     29  H   UNL     1       0.235  11.053  19.998  0.00  0.00    +0.000 HD
ENDBRANCH  17  18
ENDBRANCH   3  17
TORSDOF 3
ENDMDL
