MODEL 1
REMARK VINA RESULT:      -9.2      0.000      0.000
REMARK  Name = 
REMARK  4 active torsions:
REMARK  status: ('A' for Active; 'I' for Inactive)
REMARK    1  A    between atoms: C_1  and  N_2
REMARK    2  A    between atoms: C_6  and  N_7
REMARK    3  A    between atoms: N_7  and  S_8
REMARK    4  A    between atoms: S_8  and  C_11
REMARK                            x       y       z     vdW  Elec       q    Type
REMARK                         _______ _______ _______ _____ _____    ______ ____
ROOT
ATOM      1  N   UNL     1       2.855   6.164  20.284  0.00  0.00    +0.000 N 
ATOM      2  H   UNL     1       2.882   6.066  21.297  0.00  0.00    +0.000 HD
ENDROOT
BRANCH   1   8
ATOM      3  C   UNL     1      -1.543  12.064  20.900  0.00  0.00    +0.000 C 
ATOM      4  N   UNL     1      -0.667  11.202  20.134  0.00  0.00    +0.000 N 
ATOM      5  C   UNL     1       0.030  10.149  20.850  0.00  0.00    +0.000 C 
ATOM      6  C   UNL     1       0.868   9.265  19.986  0.00  0.00    +0.000 A 
ATOM      7  C   UNL     1       1.465   8.114  20.510  0.00  0.00    +0.000 A 
ATOM      8  C   UNL     1       2.288   7.324  19.708  0.00  0.00    +0.000 A 
ATOM      9  C   UNL     1       2.514   7.669  18.377  0.00  0.00    +0.000 A 
ATOM     10  C   UNL     1       1.915   8.819  17.848  0.00  0.00    +0.000 A 
ATOM     11  C   UNL     1       1.096   9.608  18.658  0.00  0.00    +0.000 A 
ATOM     12  N   UNL     1       0.492  10.753  18.151  0.00  0.00    +0.000 N 
ATOM     13  C   UNL     1      -0.376  11.555  18.836  0.00  0.00    +0.000 C 
ATOM     14  O   UNL     1      -0.867  12.533  18.277  0.00  0.00    +0.000 OA
ATOM     15  H   UNL     1       0.650  11.033  17.193  0.00  0.00    +0.000 HD
ENDBRANCH   1   8
BRANCH   1  16
ATOM     16  S   UNL     1       2.852   4.711  19.445  0.00  0.00    +0.000 S 
ATOM     17  O   UNL     1       3.081   3.680  20.435  0.00  0.00    +0.000 OA
ATOM     18  O   UNL     1       1.695   4.663  18.577  0.00  0.00    +0.000 OA
BRANCH  16  19
ATOM     19  C   UNL     1       4.313   4.818  18.431  0.00  0.00    +0.000 A 
ATOM     20  C   UNL     1       5.579   4.961  19.031  0.00  0.00    +0.000 A 
ATOM     21  C   UNL     1       6.728   5.005  18.232  0.00  0.00    +0.000 A 
ATOM     22  C   UNL     1       6.574   4.886  16.864  0.00  0.00    +0.000 A 
ATOM     23  C   UNL     1       5.326   4.736  16.276  0.00  0.00    +0.000 A 
ATOM     24  C   UNL     1       4.176   4.698  17.040  0.00  0.00    +0.000 A 
ATOM     25  C   UNL     1       5.484   4.697  14.803  0.00  0.00    +0.000 C 
ATOM     26  C   UNL     1       6.992   4.454  14.731  0.00  0.00    +0.000 C 
ATOM     27  O   UNL     1       7.604   4.911  15.961  0.00  0.00    +0.000 OA
ENDBRANCH  16  19
ENDBRANCH   1  16
TORSDOF 3
ENDMDL
MODEL 2
REMARK VINA RESULT:      -8.9      2.977      7.555
REMARK  Name = 
REMARK  4 active torsions:
REMARK  status: ('A' for Active; 'I' for Inactive)
REMARK    1  A    between atoms: C_1  and  N_2
REMARK    2  A    between atoms: C_6  and  N_7
REMARK    3  A    between atoms: N_7  and  S_8
REMARK    4  A    between atoms: S_8  and  C_11
REMARK                            x       y       z     vdW  Elec       q    Type
REMARK                         _______ _______ _______ _____ _____    ______ ____
ROOT
ATOM      1  N   UNL     1       4.151   3.515  19.766  0.00  0.00    +0.000 N 
ATOM      2  H   UNL     1       4.519   3.370  20.703  0.00  0.00    +0.000 HD
ENDROOT
BRANCH   1   8
ATOM      3  C   UNL     1       6.446   3.717  12.750  0.00  0.00    +0.000 C 
ATOM      4  N   UNL     1       6.506   4.171  14.124  0.00  0.00    +0.000 N 
ATOM      5  C   UNL     1       5.494   3.675  15.038  0.00  0.00    +0.000 C 
ATOM      6  C   UNL     1       5.654   4.138  16.448  0.00  0.00    +0.000 A 
ATOM      7  C   UNL     1       4.853   3.613  17.467  0.00  0.00    +0.000 A 
ATOM      8  C   UNL     1       4.975   4.091  18.771  0.00  0.00    +0.000 A 
ATOM      9  C   UNL     1       5.902   5.087  19.072  0.00  0.00    +0.000 A 
ATOM     10  C   UNL     1       6.708   5.613  18.055  0.00  0.00    +0.000 A 
ATOM     11  C   UNL     1       6.577   5.133  16.750  0.00  0.00    +0.000 A 
ATOM     12  N   UNL     1       7.369   5.642  15.727  0.00  0.00    +0.000 N 
ATOM     13  C   UNL     1       7.368   5.199  14.435  0.00  0.00    +0.000 C 
ATOM     14  O   UNL     1       8.128   5.711  13.618  0.00  0.00    +0.000 OA
ATOM     15  H   UNL     1       8.040   6.375  15.915  0.00  0.00    +0.000 HD
ENDBRANCH   1   8
BRANCH   1  16
ATOM     16  S   UNL     1       2.483   3.691  19.692  0.00  0.00    +0.000 S 
ATOM     17  O   UNL     1       2.074   3.076  18.447  0.00  0.00    +0.000 OA
ATOM     18  O   UNL     1       1.903   3.276  20.951  0.00  0.00    +0.000 OA
BRANCH  16  19
ATOM     19  C   UNL     1       2.262   5.451  19.523  0.00  0.00    +0.000 A 
ATOM     20  C   UNL     1       2.463   6.071  18.274  0.00  0.00    +0.000 A 
ATOM     21  C   UNL     1       2.250   7.447  18.137  0.00  0.00    +0.000 A 
ATOM     22  C   UNL     1       1.825   8.153  19.246  0.00  0.00    +0.000 A 
ATOM     23  C   UNL     1       1.619   7.539  20.473  0.00  0.00    +0.000 A 
ATOM     24  C   UNL     1       1.831   6.184  20.638  0.00  0.00    +0.000 A 
ATOM     25  C   UNL     1       1.228   8.563  21.470  0.00  0.00    +0.000 C 
ATOM     26  C   UNL     1       0.884   9.707  20.516  0.00  0.00    +0.000 C 
ATOM     27  O   UNL     1       1.576   9.500  19.261  0.00  0.00    +0.000 OA
ENDBRANCH  16  19
ENDBRANCH   1  16
TORSDOF 3
ENDMDL
MODEL 3
REMARK VINA RESULT:      -8.6      3.142      7.385
REMARK  Name = 
REMARK  4 active torsions:
REMARK  status: ('A' for Active; 'I' for Inactive)
REMARK    1  A    between atoms: C_1  and  N_2
REMARK    2  A    between atoms: C_6  and  N_7
REMARK    3  A    between atoms: N_7  and  S_8
REMARK    4  A    between atoms: S_8  and  C_11
REMARK                            x       y       z     vdW  Elec       q    Type
REMARK                         _______ _______ _______ _____ _____    ______ ____
ROOT
ATOM      1  N   UNL     1       4.211   3.532  19.604  0.00  0.00    +0.000 N 
ATOM      2  H   UNL     1       4.552   3.469  20.562  0.00  0.00    +0.000 HD
ENDROOT
BRANCH   1   8
ATOM      3  C   UNL     1       6.458   3.716  12.573  0.00  0.00    +0.000 C 
ATOM      4  N   UNL     1       6.532   4.168  13.946  0.00  0.00    +0.000 N 
ATOM      5  C   UNL     1       5.522   3.682  14.867  0.00  0.00    +0.000 C 
ATOM      6  C   UNL     1       5.697   4.142  16.277  0.00  0.00    +0.000 A 
ATOM      7  C   UNL     1       4.898   3.625  17.301  0.00  0.00    +0.000 A 
ATOM      8  C   UNL     1       5.035   4.100  18.605  0.00  0.00    +0.000 A 
ATOM      9  C   UNL     1       5.974   5.086  18.899  0.00  0.00    +0.000 A 
ATOM     10  C   UNL     1       6.778   5.605  17.877  0.00  0.00    +0.000 A 
ATOM     11  C   UNL     1       6.632   5.127  16.572  0.00  0.00    +0.000 A 
ATOM     12  N   UNL     1       7.422   5.629  15.544  0.00  0.00    +0.000 N 
ATOM     13  C   UNL     1       7.407   5.187  14.251  0.00  0.00    +0.000 C 
ATOM     14  O   UNL     1       8.167   5.692  13.429  0.00  0.00    +0.000 OA
ATOM     15  H   UNL     1       8.102   6.355  15.727  0.00  0.00    +0.000 HD
ENDBRANCH   1   8
BRANCH   1  16
ATOM     16  S   UNL     1       2.540   3.591  19.463  0.00  0.00    +0.000 S 
ATOM     17  O   UNL     1       2.240   3.138  18.121  0.00  0.00    +0.000 OA
ATOM     18  O   UNL     1       1.940   2.952  20.614  0.00  0.00    +0.000 OA
BRANCH  16  19
ATOM     19  C   UNL     1       2.182   5.335  19.536  0.00  0.00    +0.000 A 
ATOM     20  C   UNL     1       1.770   5.920  20.750  0.00  0.00    +0.000 A 
ATOM     21  C   UNL     1       1.528   7.297  20.813  0.00  0.00    +0.000 A 
ATOM     22  C   UNL     1       1.724   8.045  19.667  0.00  0.00    +0.000 A 
ATOM     23  C   UNL     1       2.138   7.468  18.475  0.00  0.00    +0.000 A 
ATOM     24  C   UNL     1       2.375   6.110  18.383  0.00  0.00    +0.000 A 
ATOM     25  C   UNL     1       2.197   8.511  17.424  0.00  0.00    +0.000 C 
ATOM     26  C   UNL     1       2.139   9.752  18.315  0.00  0.00    +0.000 C 
ATOM     27  O   UNL     1       1.528   9.398  19.579  0.00  0.00    +0.000 OA
ENDBRANCH  16  19
ENDBRANCH   1  16
TORSDOF 3
ENDMDL
MODEL 4
REMARK VINA RESULT:      -8.5      1.042      1.102
REMARK  Name = 
REMARK  4 active torsions:
REMARK  status: ('A' for Active; 'I' for Inactive)
REMARK    1  A    between atoms: C_1  and  N_2
REMARK    2  A    between atoms: C_6  and  N_7
REMARK    3  A    between atoms: N_7  and  S_8
REMARK    4  A    between atoms: S_8  and  C_11
REMARK                            x       y       z     vdW  Elec       q    Type
REMARK                         _______ _______ _______ _____ _____    ______ ____
ROOT
ATOM      1  N   UNL     1       2.927   4.892  20.186  0.00  0.00    +0.000 N 
ATOM      2  H   UNL     1       2.819   4.564  21.144  0.00  0.00    +0.000 HD
ENDROOT
BRANCH   1   8
ATOM      3  C   UNL     1      -0.609  11.108  22.025  0.00  0.00    +0.000 C 
ATOM      4  N   UNL     1       0.103  10.281  21.074  0.00  0.00    +0.000 N 
ATOM      5  C   UNL     1       0.691   9.049  21.565  0.00  0.00    +0.000 C 
ATOM      6  C   UNL     1       1.357   8.221  20.517  0.00  0.00    +0.000 A 
ATOM      7  C   UNL     1       1.823   6.936  20.812  0.00  0.00    +0.000 A 
ATOM      8  C   UNL     1       2.490   6.192  19.839  0.00  0.00    +0.000 A 
ATOM      9  C   UNL     1       2.690   6.718  18.565  0.00  0.00    +0.000 A 
ATOM     10  C   UNL     1       2.223   8.003  18.265  0.00  0.00    +0.000 A 
ATOM     11  C   UNL     1       1.559   8.745  19.245  0.00  0.00    +0.000 A 
ATOM     12  N   UNL     1       1.087  10.023  18.966  0.00  0.00    +0.000 N 
ATOM     13  C   UNL     1       0.370  10.803  19.828  0.00  0.00    +0.000 C 
ATOM     14  O   UNL     1      -0.015  11.911  19.464  0.00  0.00    +0.000 OA
ATOM     15  H   UNL     1       1.231  10.434  18.054  0.00  0.00    +0.000 HD
ENDBRANCH   1   8
BRANCH   1  16
ATOM     16  S   UNL     1       2.969   3.674  19.033  0.00  0.00    +0.000 S 
ATOM     17  O   UNL     1       3.300   2.460  19.749  0.00  0.00    +0.000 OA
ATOM     18  O   UNL     1       1.780   3.752  18.212  0.00  0.00    +0.000 OA
BRANCH  16  19
ATOM     19  C   UNL     1       4.376   4.107  18.028  0.00  0.00    +0.000 A 
ATOM     20  C   UNL     1       5.595   4.463  18.637  0.00  0.00    +0.000 A 
ATOM     21  C   UNL     1       6.709   4.764  17.844  0.00  0.00    +0.000 A 
ATOM     22  C   UNL     1       6.571   4.681  16.472  0.00  0.00    +0.000 A 
ATOM     23  C   UNL     1       5.372   4.322  15.874  0.00  0.00    +0.000 A 
ATOM     24  C   UNL     1       4.255   4.029  16.633  0.00  0.00    +0.000 A 
ATOM     25  C   UNL     1       5.524   4.382  14.401  0.00  0.00    +0.000 C 
ATOM     26  C   UNL     1       7.050   4.438  14.321  0.00  0.00    +0.000 C 
ATOM     27  O   UNL     1       7.571   4.946  15.573  0.00  0.00    +0.000 OA
ENDBRANCH  16  19
ENDBRANCH   1  16
TORSDOF 3
ENDMDL
MODEL 5
REMARK VINA RESULT:      -8.4      1.756      2.077
REMARK  Name = 
REMARK  4 active torsions:
REMARK  status: ('A' for Active; 'I' for Inactive)
REMARK    1  A    between atoms: C_1  and  N_2
REMARK    2  A    between atoms: C_6  and  N_7
REMARK    3  A    between atoms: N_7  and  S_8
REMARK    4  A    between atoms: S_8  and  C_11
REMARK                            x       y       z     vdW  Elec       q    Type
REMARK                         _______ _______ _______ _____ _____    ______ ____
ROOT
ATOM      1  N   UNL     1       3.288   4.761  18.737  0.00  0.00    +0.000 N 
ATOM      2  H   UNL     1       2.805   4.093  18.138  0.00  0.00    +0.000 HD
ENDROOT
BRANCH   1   8
ATOM      3  C   UNL     1      -0.256  10.023  22.515  0.00  0.00    +0.000 C 
ATOM      4  N   UNL     1       0.428   9.546  21.331  0.00  0.00    +0.000 N 
ATOM      5  C   UNL     1       1.052   8.238  21.400  0.00  0.00    +0.000 C 
ATOM      6  C   UNL     1       1.686   7.787  20.126  0.00  0.00    +0.000 A 
ATOM      7  C   UNL     1       2.182   6.486  19.997  0.00  0.00    +0.000 A 
ATOM      8  C   UNL     1       2.819   6.092  18.820  0.00  0.00    +0.000 A 
ATOM      9  C   UNL     1       2.958   6.988  17.762  0.00  0.00    +0.000 A 
ATOM     10  C   UNL     1       2.461   8.291  17.887  0.00  0.00    +0.000 A 
ATOM     11  C   UNL     1       1.828   8.680  19.070  0.00  0.00    +0.000 A 
ATOM     12  N   UNL     1       1.327   9.969  19.213  0.00  0.00    +0.000 N 
ATOM     13  C   UNL     1       0.636  10.430  20.297  0.00  0.00    +0.000 C 
ATOM     14  O   UNL     1       0.221  11.586  20.304  0.00  0.00    +0.000 OA
ATOM     15  H   UNL     1       1.427  10.643  18.465  0.00  0.00    +0.000 HD
ENDBRANCH   1   8
BRANCH   1  16
ATOM     16  S   UNL     1       4.908   4.413  19.003  0.00  0.00    +0.000 S 
ATOM     17  O   UNL     1       5.394   5.445  19.895  0.00  0.00    +0.000 OA
ATOM     18  O   UNL     1       5.048   3.013  19.341  0.00  0.00    +0.000 OA
BRANCH  16  19
ATOM     19  C   UNL     1       5.655   4.685  17.408  0.00  0.00    +0.000 A 
ATOM     20  C   UNL     1       6.819   5.470  17.298  0.00  0.00    +0.000 A 
ATOM     21  C   UNL     1       7.424   5.648  16.049  0.00  0.00    +0.000 A 
ATOM     22  C   UNL     1       6.857   5.021  14.956  0.00  0.00    +0.000 A 
ATOM     23  C   UNL     1       5.716   4.241  15.068  0.00  0.00    +0.000 A 
ATOM     24  C   UNL     1       5.093   4.056  16.288  0.00  0.00    +0.000 A 
ATOM     25  C   UNL     1       5.322   3.758  13.723  0.00  0.00    +0.000 C 
ATOM     26  C   UNL     1       6.616   4.066  12.970  0.00  0.00    +0.000 C 
ATOM     27  O   UNL     1       7.339   5.104  13.676  0.00  0.00    +0.000 OA
ENDBRANCH  16  19
ENDBRANCH   1  16
TORSDOF 3
ENDMDL
MODEL 6
REMARK VINA RESULT:      -8.4      0.823      1.449
REMARK  Name = 
REMARK  4 active torsions:
REMARK  status: ('A' for Active; 'I' for Inactive)
REMARK    1  A    between atoms: C_1  and  N_2
REMARK    2  A    between atoms: C_6  and  N_7
REMARK    3  A    between atoms: N_7  and  S_8
REMARK    4  A    between atoms: S_8  and  C_11
REMARK                            x       y       z     vdW  Elec       q    Type
REMARK                         _______ _______ _______ _____ _____    ______ ____
ROOT
ATOM      1  N   UNL     1       2.713   5.956  20.583  0.00  0.00    +0.000 N 
ATOM      2  H   UNL     1       2.886   5.975  21.586  0.00  0.00    +0.000 HD
ENDROOT
BRANCH   1   8
ATOM      3  C   UNL     1      -1.452  12.050  20.780  0.00  0.00    +0.000 C 
ATOM      4  N   UNL     1      -0.587  11.120  20.085  0.00  0.00    +0.000 N 
ATOM      5  C   UNL     1       0.040  10.073  20.871  0.00  0.00    +0.000 C 
ATOM      6  C   UNL     1       0.870   9.118  20.078  0.00  0.00    +0.000 A 
ATOM      7  C   UNL     1       1.399   7.969  20.673  0.00  0.00    +0.000 A 
ATOM      8  C   UNL     1       2.216   7.111  19.937  0.00  0.00    +0.000 A 
ATOM      9  C   UNL     1       2.503   7.387  18.601  0.00  0.00    +0.000 A 
ATOM     10  C   UNL     1       1.972   8.535  18.001  0.00  0.00    +0.000 A 
ATOM     11  C   UNL     1       1.159   9.392  18.746  0.00  0.00    +0.000 A 
ATOM     12  N   UNL     1       0.622  10.537  18.167  0.00  0.00    +0.000 N 
ATOM     13  C   UNL     1      -0.236  11.403  18.784  0.00  0.00    +0.000 C 
ATOM     14  O   UNL     1      -0.665  12.374  18.166  0.00  0.00    +0.000 OA
ATOM     15  H   UNL     1       0.825  10.768  17.204  0.00  0.00    +0.000 HD
ENDBRANCH   1   8
BRANCH   1  16
ATOM     16  S   UNL     1       2.392   4.431  19.961  0.00  0.00    +0.000 S 
ATOM     17  O   UNL     1       2.733   3.494  21.011  0.00  0.00    +0.000 OA
ATOM     18  O   UNL     1       1.075   4.427  19.361  0.00  0.00    +0.000 OA
BRANCH  16  19
ATOM     19  C   UNL     1       3.602   4.251  18.666  0.00  0.00    +0.000 A 
ATOM     20  C   UNL     1       3.209   3.800  17.391  0.00  0.00    +0.000 A 
ATOM     21  C   UNL     1       4.156   3.698  16.365  0.00  0.00    +0.000 A 
ATOM     22  C   UNL     1       5.458   4.068  16.643  0.00  0.00    +0.000 A 
ATOM     23  C   UNL     1       5.841   4.520  17.897  0.00  0.00    +0.000 A 
ATOM     24  C   UNL     1       4.929   4.622  18.929  0.00  0.00    +0.000 A 
ATOM     25  C   UNL     1       7.301   4.778  17.896  0.00  0.00    +0.000 C 
ATOM     26  C   UNL     1       7.543   4.773  16.387  0.00  0.00    +0.000 C 
ATOM     27  O   UNL     1       6.488   4.022  15.741  0.00  0.00    +0.000 OA
ENDBRANCH  16  19
ENDBRANCH   1  16
TORSDOF 3
ENDMDL
MODEL 7
REMARK VINA RESULT:      -8.1      3.193      4.975
REMARK  Name = 
REMARK  4 active torsions:
REMARK  status: ('A' for Active; 'I' for Inactive)
REMARK    1  A    between atoms: C_1  and  N_2
REMARK    2  A    between atoms: C_6  and  N_7
REMARK    3  A    between atoms: N_7  and  S_8
REMARK    4  A    between atoms: S_8  and  C_11
REMARK                            x       y       z     vdW  Elec       q    Type
REMARK                         _______ _______ _______ _____ _____    ______ ____
ROOT
ATOM      1  N   UNL     1       0.921  10.157  20.370  0.00  0.00    +0.000 N 
ATOM      2  H   UNL     1       1.683  10.813  20.526  0.00  0.00    +0.000 HD
ENDROOT
BRANCH   1   8
ATOM      3  C   UNL     1      -3.834  10.160  14.721  0.00  0.00    +0.000 C 
ATOM      4  N   UNL     1      -3.400  10.627  16.021  0.00  0.00    +0.000 N 
ATOM      5  C   UNL     1      -2.258   9.965  16.623  0.00  0.00    +0.000 C 
ATOM      6  C   UNL     1      -1.831  10.538  17.934  0.00  0.00    +0.000 A 
ATOM      7  C   UNL     1      -0.651  10.109  18.550  0.00  0.00    +0.000 A 
ATOM      8  C   UNL     1      -0.290  10.613  19.799  0.00  0.00    +0.000 A 
ATOM      9  C   UNL     1      -1.095  11.554  20.438  0.00  0.00    +0.000 A 
ATOM     10  C   UNL     1      -2.275  11.987  19.823  0.00  0.00    +0.000 A 
ATOM     11  C   UNL     1      -2.634  11.475  18.574  0.00  0.00    +0.000 A 
ATOM     12  N   UNL     1      -3.802  11.894  17.947  0.00  0.00    +0.000 N 
ATOM     13  C   UNL     1      -4.210  11.507  16.701  0.00  0.00    +0.000 C 
ATOM     14  O   UNL     1      -5.253  11.960  16.238  0.00  0.00    +0.000 OA
ATOM     15  H   UNL     1      -4.411  12.565  18.395  0.00  0.00    +0.000 HD
ENDBRANCH   1   8
BRANCH   1  16
ATOM     16  S   UNL     1       0.928   8.825  21.392  0.00  0.00    +0.000 S 
ATOM     17  O   UNL     1       1.915   9.113  22.411  0.00  0.00    +0.000 OA
ATOM     18  O   UNL     1      -0.433   8.489  21.749  0.00  0.00    +0.000 OA
BRANCH  16  19
ATOM     19  C   UNL     1       1.578   7.522  20.365  0.00  0.00    +0.000 A 
ATOM     20  C   UNL     1       2.209   7.834  19.144  0.00  0.00    +0.000 A 
ATOM     21  C   UNL     1       2.753   6.810  18.359  0.00  0.00    +0.000 A 
ATOM     22  C   UNL     1       2.665   5.514  18.830  0.00  0.00    +0.000 A 
ATOM     23  C   UNL     1       2.052   5.210  20.036  0.00  0.00    +0.000 A 
ATOM     24  C   UNL     1       1.499   6.200  20.826  0.00  0.00    +0.000 A 
ATOM     25  C   UNL     1       2.065   3.741  20.233  0.00  0.00    +0.000 C 
ATOM     26  C   UNL     1       3.099   3.367  19.171  0.00  0.00    +0.000 C 
ATOM     27  O   UNL     1       3.152   4.415  18.173  0.00  0.00    +0.000 OA
ENDBRANCH  16  19
ENDBRANCH   1  16
TORSDOF 3
ENDMDL
MODEL 8
REMARK VINA RESULT:      -8.1      2.029      3.245
REMARK  Name = 
REMARK  4 active torsions:
REMARK  status: ('A' for Active; 'I' for Inactive)
REMARK    1  A    between atoms: C_1  and  N_2
REMARK    2  A    between atoms: C_6  and  N_7
REMARK    3  A    between atoms: N_7  and  S_8
REMARK    4  A    between atoms: S_8  and  C_11
REMARK                            x       y       z     vdW  Elec       q    Type
REMARK                         _______ _______ _______ _____ _____    ______ ____
ROOT
ATOM      1  N   UNL     1       2.352   3.263  18.529  0.00  0.00    +0.000 N 
ATOM      2  H   UNL     1       1.842   2.965  17.700  0.00  0.00    +0.000 HD
ENDROOT
BRANCH   1   8
ATOM      3  C   UNL     1       1.975  10.612  17.922  0.00  0.00    +0.000 C 
ATOM      4  N   UNL     1       1.868   9.390  18.691  0.00  0.00    +0.000 N 
ATOM      5  C   UNL     1       1.981   8.134  17.973  0.00  0.00    +0.000 C 
ATOM      6  C   UNL     1       1.920   6.919  18.838  0.00  0.00    +0.000 A 
ATOM      7  C   UNL     1       2.178   5.651  18.307  0.00  0.00    +0.000 A 
ATOM      8  C   UNL     1       2.066   4.519  19.113  0.00  0.00    +0.000 A 
ATOM      9  C   UNL     1       1.708   4.641  20.454  0.00  0.00    +0.000 A 
ATOM     10  C   UNL     1       1.452   5.909  20.989  0.00  0.00    +0.000 A 
ATOM     11  C   UNL     1       1.560   7.039  20.176  0.00  0.00    +0.000 A 
ATOM     12  N   UNL     1       1.311   8.307  20.690  0.00  0.00    +0.000 N 
ATOM     13  C   UNL     1       1.452   9.478  20.001  0.00  0.00    +0.000 C 
ATOM     14  O   UNL     1       1.224  10.544  20.565  0.00  0.00    +0.000 OA
ATOM     15  H   UNL     1       1.036   8.423  21.656  0.00  0.00    +0.000 HD
ENDBRANCH   1   8
BRANCH   1  16
ATOM     16  S   UNL     1       3.875   2.577  18.694  0.00  0.00    +0.000 S 
ATOM     17  O   UNL     1       4.162   2.584  20.113  0.00  0.00    +0.000 OA
ATOM     18  O   UNL     1       3.931   1.349  17.930  0.00  0.00    +0.000 OA
BRANCH  16  19
ATOM     19  C   UNL     1       4.949   3.770  17.921  0.00  0.00    +0.000 A 
ATOM     20  C   UNL     1       4.891   3.974  16.528  0.00  0.00    +0.000 A 
ATOM     21  C   UNL     1       5.709   4.940  15.930  0.00  0.00    +0.000 A 
ATOM     22  C   UNL     1       6.542   5.681  16.746  0.00  0.00    +0.000 A 
ATOM     23  C   UNL     1       6.592   5.485  18.118  0.00  0.00    +0.000 A 
ATOM     24  C   UNL     1       5.802   4.532  18.732  0.00  0.00    +0.000 A 
ATOM     25  C   UNL     1       7.617   6.382  18.702  0.00  0.00    +0.000 C 
ATOM     26  C   UNL     1       7.806   7.330  17.518  0.00  0.00    +0.000 C 
ATOM     27  O   UNL     1       7.395   6.658  16.303  0.00  0.00    +0.000 OA
ENDBRANCH  16  19
ENDBRANCH   1  16
TORSDOF 3
ENDMDL
MODEL 9
REMARK VINA RESULT:      -8.0      1.812      2.545
REMARK  Name = 
REMARK  4 active torsions:
REMARK  status: ('A' for Active; 'I' for Inactive)
REMARK    1  A    between atoms: C_1  and  N_2
REMARK    2  A    between atoms: C_6  and  N_7
REMARK    3  A    between atoms: N_7  and  S_8
REMARK    4  A    between atoms: S_8  and  C_11
REMARK                            x       y       z     vdW  Elec       q    Type
REMARK                         _______ _______ _______ _____ _____    ______ ____
ROOT
ATOM      1  N   UNL     1       3.239   4.662  18.584  0.00  0.00    +0.000 N 
ATOM      2  H   UNL     1       2.894   4.289  17.702  0.00  0.00    +0.000 HD
ENDROOT
BRANCH   1   8
ATOM      3  C   UNL     1       1.528  11.834  18.185  0.00  0.00    +0.000 C 
ATOM      4  N   UNL     1       1.537  10.563  18.878  0.00  0.00    +0.000 N 
ATOM      5  C   UNL     1       2.013   9.404  18.146  0.00  0.00    +0.000 C 
ATOM      6  C   UNL     1       2.049   8.142  18.943  0.00  0.00    +0.000 A 
ATOM      7  C   UNL     1       2.636   6.985  18.421  0.00  0.00    +0.000 A 
ATOM      8  C   UNL     1       2.618   5.798  19.153  0.00  0.00    +0.000 A 
ATOM      9  C   UNL     1       2.024   5.757  20.413  0.00  0.00    +0.000 A 
ATOM     10  C   UNL     1       1.437   6.915  20.940  0.00  0.00    +0.000 A 
ATOM     11  C   UNL     1       1.455   8.099  20.199  0.00  0.00    +0.000 A 
ATOM     12  N   UNL     1       0.879   9.258  20.706  0.00  0.00    +0.000 N 
ATOM     13  C   UNL     1       0.900  10.480  20.096  0.00  0.00    +0.000 C 
ATOM     14  O   UNL     1       0.375  11.443  20.649  0.00  0.00    +0.000 OA
ATOM     15  H   UNL     1       0.429   9.253  21.612  0.00  0.00    +0.000 HD
ENDBRANCH   1   8
BRANCH   1  16
ATOM     16  S   UNL     1       4.854   4.331  18.898  0.00  0.00    +0.000 S 
ATOM     17  O   UNL     1       5.300   5.362  19.811  0.00  0.00    +0.000 OA
ATOM     18  O   UNL     1       4.999   2.930  19.231  0.00  0.00    +0.000 OA
BRANCH  16  19
ATOM     19  C   UNL     1       5.645   4.621  17.328  0.00  0.00    +0.000 A 
ATOM     20  C   UNL     1       6.844   5.359  17.268  0.00  0.00    +0.000 A 
ATOM     21  C   UNL     1       7.483   5.551  16.038  0.00  0.00    +0.000 A 
ATOM     22  C   UNL     1       6.914   4.983  14.914  0.00  0.00    +0.000 A 
ATOM     23  C   UNL     1       5.739   4.249  14.977  0.00  0.00    +0.000 A 
ATOM     24  C   UNL     1       5.083   4.052  16.177  0.00  0.00    +0.000 A 
ATOM     25  C   UNL     1       5.354   3.827  13.609  0.00  0.00    +0.000 C 
ATOM     26  C   UNL     1       6.677   4.103  12.893  0.00  0.00    +0.000 C 
ATOM     27  O   UNL     1       7.426   5.086  13.647  0.00  0.00    +0.000 OA
ENDBRANCH  16  19
ENDBRANCH   1  16
TORSDOF 3
ENDMDL
