MODEL 1
REMARK VINA RESULT:      -8.9      0.000      0.000
REMARK  Name = 
REMARK  6 active torsions:
REMARK  status: ('A' for Active; 'I' for Inactive)
REMARK    1  A    between atoms: C_2  and  C_3
REMARK    2  A    between atoms: C_3  and  C_4
REMARK    3  A    between atoms: N_9  and  C_10
REMARK    4  A    between atoms: C_10  and  C_11
REMARK    5  A    between atoms: C_10  and  C_17
REMARK    6  A    between atoms: C_22  and  C_23
REMARK                            x       y       z     vdW  Elec       q    Type
REMARK                         _______ _______ _______ _____ _____    ______ ____
ROOT
ATOM      1  C   UNL     1       2.990   5.902  18.920  0.00  0.00    +0.000 C 
ENDROOT
BRANCH   1   2
ATOM      2  C   UNL     1       2.375   7.287  19.170  0.00  0.00    +0.000 A 
ATOM      3  C   UNL     1       1.801   7.474  20.444  0.00  0.00    +0.000 A 
ATOM      4  C   UNL     1       1.092   8.627  20.770  0.00  0.00    +0.000 A 
ATOM      5  C   UNL     1       0.978   9.635  19.818  0.00  0.00    +0.000 A 
ATOM      6  N   UNL     1       0.335  10.830  19.934  0.00  0.00    +0.000 NA
ATOM      7  C   UNL     1       0.605  11.492  18.824  0.00  0.00    +0.000 A 
ATOM      8  N   UNL     1       1.333  10.704  17.952  0.00  0.00    +0.000 N 
ATOM      9  C   UNL     1       1.588   9.496  18.577  0.00  0.00    +0.000 A 
ATOM     10  C   UNL     1       2.285   8.325  18.205  0.00  0.00    +0.000 A 
ATOM     11  H   UNL     1       1.675  10.985  17.036  0.00  0.00    +0.000 HD
BRANCH   7  12
ATOM     12  C   UNL     1       0.257  12.917  18.541  0.00  0.00    +0.000 C 
ATOM     13  F   UNL     1      -0.834  13.037  17.731  0.00  0.00    +0.000 F 
ATOM     14  F   UNL     1      -0.028  13.595  19.679  0.00  0.00    +0.000 F 
ATOM     15  F   UNL     1       1.270  13.584  17.930  0.00  0.00    +0.000 F 
ENDBRANCH   7  12
ENDBRANCH   1   2
BRANCH   1  16
ATOM     16  C   UNL     1       2.283   4.721  19.571  0.00  0.00    +0.000 A 
ATOM     17  C   UNL     1       1.376   3.908  18.874  0.00  0.00    +0.000 A 
ATOM     18  C   UNL     1       0.789   2.801  19.493  0.00  0.00    +0.000 A 
ATOM     19  C   UNL     1       1.083   2.501  20.821  0.00  0.00    +0.000 A 
ATOM     20  C   UNL     1       1.947   3.320  21.542  0.00  0.00    +0.000 A 
ATOM     21  C   UNL     1       2.541   4.421  20.923  0.00  0.00    +0.000 A 
ENDBRANCH   1  16
BRANCH   1  24
ATOM     22  O   UNL     1       4.983   4.256  17.748  0.00  0.00    +0.000 OA
ATOM     23  C   UNL     1       5.308   5.086  18.589  0.00  0.00    +0.000 C 
ATOM     24  N   UNL     1       4.419   5.927  19.218  0.00  0.00    +0.000 N 
ATOM     25  H   UNL     1       4.772   6.696  19.764  0.00  0.00    +0.000 HD
BRANCH  23  26
ATOM     26  C   UNL     1       6.754   5.250  19.025  0.00  0.00    +0.000 C 
BRANCH  26  27
ATOM     27  C   UNL     1       7.548   6.171  18.099  0.00  0.00    +0.000 C 
ATOM     28  C   UNL     1       6.654   7.025  17.243  0.00  0.00    +0.000 C 
ATOM     29  C   UNL     1       7.034   8.307  17.233  0.00  0.00    +0.000 C 
ATOM     30  C   UNL     1       8.243   8.537  18.074  0.00  0.00    +0.000 C 
ATOM     31  C   UNL     1       8.378   7.227  18.853  0.00  0.00    +0.000 C 
ENDBRANCH  26  27
ENDBRANCH  23  26
ENDBRANCH   1  24
TORSDOF 6
ENDMDL
MODEL 2
REMARK VINA RESULT:      -8.8      2.309      5.403
REMARK  Name = 
REMARK  6 active torsions:
REMARK  status: ('A' for Active; 'I' for Inactive)
REMARK    1  A    between atoms: C_2  and  C_3
REMARK    2  A    between atoms: C_3  and  C_4
REMARK    3  A    between atoms: N_9  and  C_10
REMARK    4  A    between atoms: C_10  and  C_11
REMARK    5  A    between atoms: C_10  and  C_17
REMARK    6  A    between atoms: C_22  and  C_23
REMARK                            x       y       z     vdW  Elec       q    Type
REMARK                         _______ _______ _______ _____ _____    ______ ____
ROOT
ATOM      1  C   UNL     1       4.615   4.832  18.100  0.00  0.00    +0.000 C 
ENDROOT
BRANCH   1   2
ATOM      2  C   UNL     1       3.681   6.018  18.376  0.00  0.00    +0.000 A 
ATOM      3  C   UNL     1       3.627   6.996  17.361  0.00  0.00    +0.000 A 
ATOM      4  C   UNL     1       2.929   8.190  17.525  0.00  0.00    +0.000 A 
ATOM      5  C   UNL     1       2.239   8.404  18.713  0.00  0.00    +0.000 A 
ATOM      6  N   UNL     1       1.500   9.492  19.069  0.00  0.00    +0.000 NA
ATOM      7  C   UNL     1       0.944   9.185  20.227  0.00  0.00    +0.000 A 
ATOM      8  N   UNL     1       1.390   7.952  20.669  0.00  0.00    +0.000 N 
ATOM      9  C   UNL     1       2.228   7.428  19.701  0.00  0.00    +0.000 A 
ATOM     10  C   UNL     1       2.954   6.223  19.579  0.00  0.00    +0.000 A 
ATOM     11  H   UNL     1       1.103   7.486  21.526  0.00  0.00    +0.000 HD
BRANCH   7  12
ATOM     12  C   UNL     1      -0.083   9.991  20.952  0.00  0.00    +0.000 C 
ATOM     13  F   UNL     1      -1.040  10.490  20.118  0.00  0.00    +0.000 F 
ATOM     14  F   UNL     1      -0.728   9.250  21.886  0.00  0.00    +0.000 F 
ATOM     15  F   UNL     1       0.459  11.053  21.601  0.00  0.00    +0.000 F 
ENDBRANCH   7  12
ENDBRANCH   1   2
BRANCH   1  16
ATOM     16  C   UNL     1       5.428   4.896  16.815  0.00  0.00    +0.000 A 
ATOM     17  C   UNL     1       6.703   5.479  16.758  0.00  0.00    +0.000 A 
ATOM     18  C   UNL     1       7.439   5.469  15.570  0.00  0.00    +0.000 A 
ATOM     19  C   UNL     1       6.906   4.896  14.417  0.00  0.00    +0.000 A 
ATOM     20  C   UNL     1       5.625   4.350  14.443  0.00  0.00    +0.000 A 
ATOM     21  C   UNL     1       4.893   4.351  15.631  0.00  0.00    +0.000 A 
ENDBRANCH   1  16
BRANCH   1  24
ATOM     22  O   UNL     1       5.215   2.713  19.890  0.00  0.00    +0.000 OA
ATOM     23  C   UNL     1       4.253   2.609  19.138  0.00  0.00    +0.000 C 
ATOM     24  N   UNL     1       3.882   3.576  18.232  0.00  0.00    +0.000 N 
ATOM     25  H   UNL     1       2.989   3.502  17.773  0.00  0.00    +0.000 HD
BRANCH  23  26
ATOM     26  C   UNL     1       3.377   1.367  19.136  0.00  0.00    +0.000 C 
BRANCH  26  27
ATOM     27  C   UNL     1       1.998   1.618  19.744  0.00  0.00    +0.000 C 
ATOM     28  C   UNL     1       2.075   2.394  21.030  0.00  0.00    +0.000 C 
ATOM     29  C   UNL     1       1.195   3.399  21.070  0.00  0.00    +0.000 C 
ATOM     30  C   UNL     1       0.375   3.474  19.827  0.00  0.00    +0.000 C 
ATOM     31  C   UNL     1       1.102   2.522  18.876  0.00  0.00    +0.000 C 
ENDBRANCH  26  27
ENDBRANCH  23  26
ENDBRANCH   1  24
TORSDOF 6
ENDMDL
MODEL 3
REMARK VINA RESULT:      -8.7      1.185      1.698
REMARK  Name = 
REMARK  6 active torsions:
REMARK  status: ('A' for Active; 'I' for Inactive)
REMARK    1  A    between atoms: C_2  and  C_3
REMARK    2  A    between atoms: C_3  and  C_4
REMARK    3  A    between atoms: N_9  and  C_10
REMARK    4  A    between atoms: C_10  and  C_11
REMARK    5  A    between atoms: C_10  and  C_17
REMARK    6  A    between atoms: C_22  and  C_23
REMARK                            x       y       z     vdW  Elec       q    Type
REMARK                         _______ _______ _______ _____ _____    ______ ____
ROOT
ATOM      1  C   UNL     1       2.947   5.880  18.897  0.00  0.00    +0.000 C 
ENDROOT
BRANCH   1   2
ATOM      2  C   UNL     1       2.263   7.245  19.063  0.00  0.00    +0.000 A 
ATOM      3  C   UNL     1       2.227   8.048  17.905  0.00  0.00    +0.000 A 
ATOM      4  C   UNL     1       1.759   9.360  17.933  0.00  0.00    +0.000 A 
ATOM      5  C   UNL     1       1.284   9.876  19.134  0.00  0.00    +0.000 A 
ATOM      6  N   UNL     1       0.786  11.121  19.374  0.00  0.00    +0.000 NA
ATOM      7  C   UNL     1       0.354  11.101  20.621  0.00  0.00    +0.000 A 
ATOM      8  N   UNL     1       0.653   9.891  21.220  0.00  0.00    +0.000 N 
ATOM      9  C   UNL     1       1.254   9.081  20.272  0.00  0.00    +0.000 A 
ATOM     10  C   UNL     1       1.753   7.760  20.284  0.00  0.00    +0.000 A 
ATOM     11  H   UNL     1       0.417   9.621  22.172  0.00  0.00    +0.000 HD
BRANCH   7  12
ATOM     12  C   UNL     1      -0.419  12.181  21.303  0.00  0.00    +0.000 C 
ATOM     13  F   UNL     1      -1.696  12.284  20.835  0.00  0.00    +0.000 F 
ATOM     14  F   UNL     1      -0.510  11.962  22.637  0.00  0.00    +0.000 F 
ATOM     15  F   UNL     1       0.152  13.403  21.144  0.00  0.00    +0.000 F 
ENDBRANCH   7  12
ENDBRANCH   1   2
BRANCH   1  16
ATOM     16  C   UNL     1       2.264   4.697  19.569  0.00  0.00    +0.000 A 
ATOM     17  C   UNL     1       1.394   3.838  18.881  0.00  0.00    +0.000 A 
ATOM     18  C   UNL     1       0.830   2.731  19.521  0.00  0.00    +0.000 A 
ATOM     19  C   UNL     1       1.111   2.476  20.861  0.00  0.00    +0.000 A 
ATOM     20  C   UNL     1       1.939   3.339  21.573  0.00  0.00    +0.000 A 
ATOM     21  C   UNL     1       2.510   4.440  20.933  0.00  0.00    +0.000 A 
ENDBRANCH   1  16
BRANCH   1  24
ATOM     22  O   UNL     1       5.043   4.223  17.942  0.00  0.00    +0.000 OA
ATOM     23  C   UNL     1       5.304   5.128  18.727  0.00  0.00    +0.000 C 
ATOM     24  N   UNL     1       4.359   5.981  19.251  0.00  0.00    +0.000 N 
ATOM     25  H   UNL     1       4.662   6.803  19.748  0.00  0.00    +0.000 HD
BRANCH  23  26
ATOM     26  C   UNL     1       6.723   5.379  19.208  0.00  0.00    +0.000 C 
BRANCH  26  27
ATOM     27  C   UNL     1       7.540   6.214  18.222  0.00  0.00    +0.000 C 
ATOM     28  C   UNL     1       6.668   7.022  17.301  0.00  0.00    +0.000 C 
ATOM     29  C   UNL     1       7.075   8.291  17.200  0.00  0.00    +0.000 C 
ATOM     30  C   UNL     1       8.286   8.556  18.029  0.00  0.00    +0.000 C 
ATOM     31  C   UNL     1       8.389   7.304  18.901  0.00  0.00    +0.000 C 
ENDBRANCH  26  27
ENDBRANCH  23  26
ENDBRANCH   1  24
TORSDOF 6
ENDMDL
MODEL 4
REMARK VINA RESULT:      -8.7      1.442      2.291
REMARK  Name = 
REMARK  6 active torsions:
REMARK  status: ('A' for Active; 'I' for Inactive)
REMARK    1  A    between atoms: C_2  and  C_3
REMARK    2  A    between atoms: C_3  and  C_4
REMARK    3  A    between atoms: N_9  and  C_10
REMARK    4  A    between atoms: C_10  and  C_11
REMARK    5  A    between atoms: C_10  and  C_17
REMARK    6  A    between atoms: C_22  and  C_23
REMARK                            x       y       z     vdW  Elec       q    Type
REMARK                         _______ _______ _______ _____ _____    ______ ____
ROOT
ATOM      1  C   UNL     1       2.752   6.106  18.502  0.00  0.00    +0.000 C 
ENDROOT
BRANCH   1   2
ATOM      2  C   UNL     1       2.214   7.491  18.892  0.00  0.00    +0.000 A 
ATOM      3  C   UNL     1       1.794   7.622  20.231  0.00  0.00    +0.000 A 
ATOM      4  C   UNL     1       1.163   8.774  20.696  0.00  0.00    +0.000 A 
ATOM      5  C   UNL     1       0.976   9.835  19.817  0.00  0.00    +0.000 A 
ATOM      6  N   UNL     1       0.389  11.039  20.068  0.00  0.00    +0.000 NA
ATOM      7  C   UNL     1       0.553  11.754  18.971  0.00  0.00    +0.000 A 
ATOM      8  N   UNL     1       1.153  10.997  17.982  0.00  0.00    +0.000 N 
ATOM      9  C   UNL     1       1.437   9.750  18.510  0.00  0.00    +0.000 A 
ATOM     10  C   UNL     1       2.049   8.583  18.000  0.00  0.00    +0.000 A 
ATOM     11  H   UNL     1       1.398  11.319  17.049  0.00  0.00    +0.000 HD
BRANCH   7  12
ATOM     12  C   UNL     1       0.222  13.201  18.805  0.00  0.00    +0.000 C 
ATOM     13  F   UNL     1       1.312  13.951  18.471  0.00  0.00    +0.000 F 
ATOM     14  F   UNL     1      -0.696  13.392  17.826  0.00  0.00    +0.000 F 
ATOM     15  F   UNL     1      -0.292  13.746  19.937  0.00  0.00    +0.000 F 
ENDBRANCH   7  12
ENDBRANCH   1   2
BRANCH   1  16
ATOM     16  C   UNL     1       2.242   4.929  19.321  0.00  0.00    +0.000 A 
ATOM     17  C   UNL     1       2.625   4.715  20.653  0.00  0.00    +0.000 A 
ATOM     18  C   UNL     1       2.092   3.651  21.387  0.00  0.00    +0.000 A 
ATOM     19  C   UNL     1       1.185   2.775  20.796  0.00  0.00    +0.000 A 
ATOM     20  C   UNL     1       0.824   2.945  19.462  0.00  0.00    +0.000 A 
ATOM     21  C   UNL     1       1.349   4.012  18.731  0.00  0.00    +0.000 A 
ENDBRANCH   1  16
BRANCH   1  24
ATOM     22  O   UNL     1       4.296   6.916  16.263  0.00  0.00    +0.000 OA
ATOM     23  C   UNL     1       4.866   6.554  17.286  0.00  0.00    +0.000 C 
ATOM     24  N   UNL     1       4.208   6.139  18.422  0.00  0.00    +0.000 N 
ATOM     25  H   UNL     1       4.730   6.023  19.276  0.00  0.00    +0.000 HD
BRANCH  23  26
ATOM     26  C   UNL     1       6.382   6.520  17.381  0.00  0.00    +0.000 C 
BRANCH  26  27
ATOM     27  C   UNL     1       6.996   5.367  16.587  0.00  0.00    +0.000 C 
ATOM     28  C   UNL     1       6.169   4.114  16.672  0.00  0.00    +0.000 C 
ATOM     29  C   UNL     1       5.985   3.545  15.476  0.00  0.00    +0.000 C 
ATOM     30  C   UNL     1       6.653   4.311  14.385  0.00  0.00    +0.000 C 
ATOM     31  C   UNL     1       7.037   5.624  15.069  0.00  0.00    +0.000 C 
ENDBRANCH  26  27
ENDBRANCH  23  26
ENDBRANCH   1  24
TORSDOF 6
ENDMDL
MODEL 5
REMARK VINA RESULT:      -8.6      2.279      5.368
REMARK  Name = 
REMARK  6 active torsions:
REMARK  status: ('A' for Active; 'I' for Inactive)
REMARK    1  A    between atoms: C_2  and  C_3
REMARK    2  A    between atoms: C_3  and  C_4
REMARK    3  A    between atoms: N_9  and  C_10
REMARK    4  A    between atoms: C_10  and  C_11
REMARK    5  A    between atoms: C_10  and  C_17
REMARK    6  A    between atoms: C_22  and  C_23
REMARK                            x       y       z     vdW  Elec       q    Type
REMARK                         _______ _______ _______ _____ _____    ______ ____
ROOT
ATOM      1  C   UNL     1       4.584   4.800  18.122  0.00  0.00    +0.000 C 
ENDROOT
BRANCH   1   2
ATOM      2  C   UNL     1       3.659   5.998  18.381  0.00  0.00    +0.000 A 
ATOM      3  C   UNL     1       3.611   6.960  17.350  0.00  0.00    +0.000 A 
ATOM      4  C   UNL     1       2.923   8.161  17.496  0.00  0.00    +0.000 A 
ATOM      5  C   UNL     1       2.236   8.401  18.681  0.00  0.00    +0.000 A 
ATOM      6  N   UNL     1       1.506   9.499  19.021  0.00  0.00    +0.000 NA
ATOM      7  C   UNL     1       0.950   9.215  20.185  0.00  0.00    +0.000 A 
ATOM      8  N   UNL     1       1.387   7.987  20.645  0.00  0.00    +0.000 N 
ATOM      9  C   UNL     1       2.220   7.440  19.685  0.00  0.00    +0.000 A 
ATOM     10  C   UNL     1       2.936   6.228  19.581  0.00  0.00    +0.000 A 
ATOM     11  H   UNL     1       1.098   7.537  21.510  0.00  0.00    +0.000 HD
BRANCH   7  12
ATOM     12  C   UNL     1      -0.069  10.040  20.899  0.00  0.00    +0.000 C 
ATOM     13  F   UNL     1       0.470  11.153  21.474  0.00  0.00    +0.000 F 
ATOM     14  F   UNL     1      -1.041  10.470  20.057  0.00  0.00    +0.000 F 
ATOM     15  F   UNL     1      -0.688   9.351  21.892  0.00  0.00    +0.000 F 
ENDBRANCH   7  12
ENDBRANCH   1   2
BRANCH   1  16
ATOM     16  C   UNL     1       5.391   4.835  16.832  0.00  0.00    +0.000 A 
ATOM     17  C   UNL     1       4.923   4.272  15.635  0.00  0.00    +0.000 A 
ATOM     18  C   UNL     1       5.672   4.374  14.459  0.00  0.00    +0.000 A 
ATOM     19  C   UNL     1       6.906   5.020  14.465  0.00  0.00    +0.000 A 
ATOM     20  C   UNL     1       7.406   5.548  15.652  0.00  0.00    +0.000 A 
ATOM     21  C   UNL     1       6.656   5.456  16.825  0.00  0.00    +0.000 A 
ENDBRANCH   1  16
BRANCH   1  24
ATOM     22  O   UNL     1       5.220   2.680  19.898  0.00  0.00    +0.000 OA
ATOM     23  C   UNL     1       4.233   2.584  19.178  0.00  0.00    +0.000 C 
ATOM     24  N   UNL     1       3.843   3.553  18.281  0.00  0.00    +0.000 N 
ATOM     25  H   UNL     1       2.934   3.487  17.851  0.00  0.00    +0.000 HD
BRANCH  23  26
ATOM     26  C   UNL     1       3.345   1.351  19.207  0.00  0.00    +0.000 C 
BRANCH  26  27
ATOM     27  C   UNL     1       1.967   1.632  19.806  0.00  0.00    +0.000 C 
ATOM     28  C   UNL     1       2.052   2.412  21.088  0.00  0.00    +0.000 C 
ATOM     29  C   UNL     1       1.191   3.435  21.119  0.00  0.00    +0.000 C 
ATOM     30  C   UNL     1       0.380   3.519  19.871  0.00  0.00    +0.000 C 
ATOM     31  C   UNL     1       1.094   2.548  18.928  0.00  0.00    +0.000 C 
ENDBRANCH  26  27
ENDBRANCH  23  26
ENDBRANCH   1  24
TORSDOF 6
ENDMDL
MODEL 6
REMARK VINA RESULT:      -8.6      4.544      7.365
REMARK  Name = 
REMARK  6 active torsions:
REMARK  status: ('A' for Active; 'I' for Inactive)
REMARK    1  A    between atoms: C_2  and  C_3
REMARK    2  A    between atoms: C_3  and  C_4
REMARK    3  A    between atoms: N_9  and  C_10
REMARK    4  A    between atoms: C_10  and  C_11
REMARK    5  A    between atoms: C_10  and  C_17
REMARK    6  A    between atoms: C_22  and  C_23
REMARK                            x       y       z     vdW  Elec       q    Type
REMARK                         _______ _______ _______ _____ _____    ______ ____
ROOT
ATOM      1  C   UNL     1       5.754   4.393  16.109  0.00  0.00    +0.000 C 
ENDROOT
BRANCH   1   2
ATOM      2  C   UNL     1       6.608   5.436  16.843  0.00  0.00    +0.000 A 
ATOM      3  C   UNL     1       7.340   4.951  17.946  0.00  0.00    +0.000 A 
ATOM      4  C   UNL     1       8.054   5.801  18.788  0.00  0.00    +0.000 A 
ATOM      5  C   UNL     1       8.069   7.163  18.507  0.00  0.00    +0.000 A 
ATOM      6  N   UNL     1       8.700   8.155  19.195  0.00  0.00    +0.000 NA
ATOM      7  C   UNL     1       8.526   9.253  18.484  0.00  0.00    +0.000 A 
ATOM      8  N   UNL     1       7.711   9.003  17.395  0.00  0.00    +0.000 N 
ATOM      9  C   UNL     1       7.404   7.654  17.390  0.00  0.00    +0.000 A 
ATOM     10  C   UNL     1       6.644   6.823  16.538  0.00  0.00    +0.000 A 
ATOM     11  H   UNL     1       7.435   9.680  16.688  0.00  0.00    +0.000 HD
BRANCH   7  12
ATOM     12  C   UNL     1       9.163  10.579  18.740  0.00  0.00    +0.000 C 
ATOM     13  F   UNL     1       8.876  11.065  19.983  0.00  0.00    +0.000 F 
ATOM     14  F   UNL     1      10.514  10.508  18.653  0.00  0.00    +0.000 F 
ATOM     15  F   UNL     1       8.762  11.525  17.852  0.00  0.00    +0.000 F 
ENDBRANCH   7  12
ENDBRANCH   1   2
BRANCH   1  16
ATOM     16  C   UNL     1       6.031   4.218  14.622  0.00  0.00    +0.000 A 
ATOM     17  C   UNL     1       7.187   4.721  14.007  0.00  0.00    +0.000 A 
ATOM     18  C   UNL     1       7.429   4.492  12.649  0.00  0.00    +0.000 A 
ATOM     19  C   UNL     1       6.513   3.775  11.883  0.00  0.00    +0.000 A 
ATOM     20  C   UNL     1       5.341   3.303  12.466  0.00  0.00    +0.000 A 
ATOM     21  C   UNL     1       5.101   3.524  13.823  0.00  0.00    +0.000 A 
ENDBRANCH   1  16
BRANCH   1  24
ATOM     22  O   UNL     1       4.103   2.826  17.804  0.00  0.00    +0.000 OA
ATOM     23  C   UNL     1       3.625   3.799  17.233  0.00  0.00    +0.000 C 
ATOM     24  N   UNL     1       4.339   4.617  16.388  0.00  0.00    +0.000 N 
ATOM     25  H   UNL     1       3.934   5.491  16.092  0.00  0.00    +0.000 HD
BRANCH  23  26
ATOM     26  C   UNL     1       2.164   4.181  17.404  0.00  0.00    +0.000 C 
BRANCH  26  27
ATOM     27  C   UNL     1       1.827   4.590  18.838  0.00  0.00    +0.000 C 
ATOM     28  C   UNL     1       1.039   3.532  19.561  0.00  0.00    +0.000 C 
ATOM     29  C   UNL     1       1.521   3.288  20.784  0.00  0.00    +0.000 C 
ATOM     30  C   UNL     1       2.707   4.134  21.096  0.00  0.00    +0.000 C 
ATOM     31  C   UNL     1       3.067   4.740  19.738  0.00  0.00    +0.000 C 
ENDBRANCH  26  27
ENDBRANCH  23  26
ENDBRANCH   1  24
TORSDOF 6
ENDMDL
MODEL 7
REMARK VINA RESULT:      -8.6      4.613      7.627
REMARK  Name = 
REMARK  6 active torsions:
REMARK  status: ('A' for Active; 'I' for Inactive)
REMARK    1  A    between atoms: C_2  and  C_3
REMARK    2  A    between atoms: C_3  and  C_4
REMARK    3  A    between atoms: N_9  and  C_10
REMARK    4  A    between atoms: C_10  and  C_11
REMARK    5  A    between atoms: C_10  and  C_17
REMARK    6  A    between atoms: C_22  and  C_23
REMARK                            x       y       z     vdW  Elec       q    Type
REMARK                         _______ _______ _______ _____ _____    ______ ____
ROOT
ATOM      1  C   UNL     1       3.339   6.088  18.750  0.00  0.00    +0.000 C 
ENDROOT
BRANCH   1   2
ATOM      2  C   UNL     1       4.438   5.695  17.752  0.00  0.00    +0.000 A 
ATOM      3  C   UNL     1       5.498   4.935  18.287  0.00  0.00    +0.000 A 
ATOM      4  C   UNL     1       6.628   4.618  17.538  0.00  0.00    +0.000 A 
ATOM      5  C   UNL     1       6.693   5.038  16.213  0.00  0.00    +0.000 A 
ATOM      6  N   UNL     1       7.697   4.834  15.316  0.00  0.00    +0.000 NA
ATOM      7  C   UNL     1       7.253   5.307  14.166  0.00  0.00    +0.000 A 
ATOM      8  N   UNL     1       6.015   5.900  14.330  0.00  0.00    +0.000 N 
ATOM      9  C   UNL     1       5.632   5.735  15.649  0.00  0.00    +0.000 A 
ATOM     10  C   UNL     1       4.488   6.101  16.392  0.00  0.00    +0.000 A 
ATOM     11  H   UNL     1       5.457   6.328  13.595  0.00  0.00    +0.000 HD
BRANCH   7  12
ATOM     12  C   UNL     1       7.927   5.174  12.840  0.00  0.00    +0.000 C 
ATOM     13  F   UNL     1       7.722   6.260  12.039  0.00  0.00    +0.000 F 
ATOM     14  F   UNL     1       9.269   5.038  12.974  0.00  0.00    +0.000 F 
ATOM     15  F   UNL     1       7.491   4.092  12.146  0.00  0.00    +0.000 F 
ENDBRANCH   7  12
ENDBRANCH   1   2
BRANCH   1  16
ATOM     16  C   UNL     1       2.463   4.956  19.270  0.00  0.00    +0.000 A 
ATOM     17  C   UNL     1       2.305   4.693  20.639  0.00  0.00    +0.000 A 
ATOM     18  C   UNL     1       1.448   3.679  21.076  0.00  0.00    +0.000 A 
ATOM     19  C   UNL     1       0.753   2.900  20.154  0.00  0.00    +0.000 A 
ATOM     20  C   UNL     1       0.928   3.118  18.790  0.00  0.00    +0.000 A 
ATOM     21  C   UNL     1       1.776   4.137  18.352  0.00  0.00    +0.000 A 
ENDBRANCH   1  16
BRANCH   1  24
ATOM     22  O   UNL     1       2.026   8.094  20.268  0.00  0.00    +0.000 OA
ATOM     23  C   UNL     1       1.959   8.127  19.045  0.00  0.00    +0.000 C 
ATOM     24  N   UNL     1       2.555   7.199  18.221  0.00  0.00    +0.000 N 
ATOM     25  H   UNL     1       2.606   7.382  17.232  0.00  0.00    +0.000 HD
BRANCH  23  26
ATOM     26  C   UNL     1       1.181   9.213  18.321  0.00  0.00    +0.000 C 
BRANCH  26  27
ATOM     27  C   UNL     1       0.268  10.005  19.255  0.00  0.00    +0.000 C 
ATOM     28  C   UNL     1       0.806  11.378  19.549  0.00  0.00    +0.000 C 
ATOM     29  C   UNL     1      -0.128  12.327  19.428  0.00  0.00    +0.000 C 
ATOM     30  C   UNL     1      -1.450  11.761  19.035  0.00  0.00    +0.000 C 
ATOM     31  C   UNL     1      -1.108  10.323  18.640  0.00  0.00    +0.000 C 
ENDBRANCH  26  27
ENDBRANCH  23  26
ENDBRANCH   1  24
TORSDOF 6
ENDMDL
MODEL 8
REMARK VINA RESULT:      -8.6      4.577      7.515
REMARK  Name = 
REMARK  6 active torsions:
REMARK  status: ('A' for Active; 'I' for Inactive)
REMARK    1  A    between atoms: C_2  and  C_3
REMARK    2  A    between atoms: C_3  and  C_4
REMARK    3  A    between atoms: N_9  and  C_10
REMARK    4  A    between atoms: C_10  and  C_11
REMARK    5  A    between atoms: C_10  and  C_17
REMARK    6  A    between atoms: C_22  and  C_23
REMARK                            x       y       z     vdW  Elec       q    Type
REMARK                         _______ _______ _______ _____ _____    ______ ____
ROOT
ATOM      1  C   UNL     1       3.359   6.014  18.829  0.00  0.00    +0.000 C 
ENDROOT
BRANCH   1   2
ATOM      2  C   UNL     1       4.452   5.628  17.822  0.00  0.00    +0.000 A 
ATOM      3  C   UNL     1       5.495   4.830  18.336  0.00  0.00    +0.000 A 
ATOM      4  C   UNL     1       6.620   4.513  17.580  0.00  0.00    +0.000 A 
ATOM      5  C   UNL     1       6.697   4.970  16.268  0.00  0.00    +0.000 A 
ATOM      6  N   UNL     1       7.699   4.772  15.368  0.00  0.00    +0.000 NA
ATOM      7  C   UNL     1       7.269   5.289  14.232  0.00  0.00    +0.000 A 
ATOM      8  N   UNL     1       6.043   5.903  14.410  0.00  0.00    +0.000 N 
ATOM      9  C   UNL     1       5.653   5.706  15.723  0.00  0.00    +0.000 A 
ATOM     10  C   UNL     1       4.515   6.074  16.475  0.00  0.00    +0.000 A 
ATOM     11  H   UNL     1       5.496   6.364  13.688  0.00  0.00    +0.000 HD
BRANCH   7  12
ATOM     12  C   UNL     1       7.944   5.182  12.904  0.00  0.00    +0.000 C 
ATOM     13  F   UNL     1       9.302   5.105  13.012  0.00  0.00    +0.000 F 
ATOM     14  F   UNL     1       7.545   4.075  12.230  0.00  0.00    +0.000 F 
ATOM     15  F   UNL     1       7.678   6.246  12.103  0.00  0.00    +0.000 F 
ENDBRANCH   7  12
ENDBRANCH   1   2
BRANCH   1  16
ATOM     16  C   UNL     1       2.462   4.885  19.317  0.00  0.00    +0.000 A 
ATOM     17  C   UNL     1       1.686   4.107  18.445  0.00  0.00    +0.000 A 
ATOM     18  C   UNL     1       0.918   3.045  18.929  0.00  0.00    +0.000 A 
ATOM     19  C   UNL     1       0.897   2.756  20.291  0.00  0.00    +0.000 A 
ATOM     20  C   UNL     1       1.626   3.542  21.178  0.00  0.00    +0.000 A 
ATOM     21  C   UNL     1       2.402   4.598  20.696  0.00  0.00    +0.000 A 
ENDBRANCH   1  16
BRANCH   1  24
ATOM     22  O   UNL     1       2.034   7.971  20.399  0.00  0.00    +0.000 OA
ATOM     23  C   UNL     1       1.992   8.053  19.177  0.00  0.00    +0.000 C 
ATOM     24  N   UNL     1       2.597   7.153  18.329  0.00  0.00    +0.000 N 
ATOM     25  H   UNL     1       2.670   7.375  17.349  0.00  0.00    +0.000 HD
BRANCH  23  26
ATOM     26  C   UNL     1       1.239   9.175  18.481  0.00  0.00    +0.000 C 
BRANCH  26  27
ATOM     27  C   UNL     1       0.835  10.295  19.439  0.00  0.00    +0.000 C 
ATOM     28  C   UNL     1       1.156  11.658  18.890  0.00  0.00    +0.000 C 
ATOM     29  C   UNL     1       0.135  12.511  19.018  0.00  0.00    +0.000 C 
ATOM     30  C   UNL     1      -1.043  11.876  19.674  0.00  0.00    +0.000 C 
ATOM     31  C   UNL     1      -0.686  10.388  19.664  0.00  0.00    +0.000 C 
ENDBRANCH  26  27
ENDBRANCH  23  26
ENDBRANCH   1  24
TORSDOF 6
ENDMDL
MODEL 9
REMARK VINA RESULT:      -8.6      1.918      5.139
REMARK  Name = 
REMARK  6 active torsions:
REMARK  status: ('A' for Active; 'I' for Inactive)
REMARK    1  A    between atoms: C_2  and  C_3
REMARK    2  A    between atoms: C_3  and  C_4
REMARK    3  A    between atoms: N_9  and  C_10
REMARK    4  A    between atoms: C_10  and  C_11
REMARK    5  A    between atoms: C_10  and  C_17
REMARK    6  A    between atoms: C_22  and  C_23
REMARK                            x       y       z     vdW  Elec       q    Type
REMARK                         _______ _______ _______ _____ _____    ______ ____
ROOT
ATOM      1  C   UNL     1       4.656   4.813  18.134  0.00  0.00    +0.000 C 
ENDROOT
BRANCH   1   2
ATOM      2  C   UNL     1       3.797   6.015  18.551  0.00  0.00    +0.000 A 
ATOM      3  C   UNL     1       3.165   5.902  19.806  0.00  0.00    +0.000 A 
ATOM      4  C   UNL     1       2.252   6.851  20.259  0.00  0.00    +0.000 A 
ATOM      5  C   UNL     1       1.985   7.959  19.461  0.00  0.00    +0.000 A 
ATOM      6  N   UNL     1       1.136   8.992  19.716  0.00  0.00    +0.000 NA
ATOM      7  C   UNL     1       1.312   9.854  18.732  0.00  0.00    +0.000 A 
ATOM      8  N   UNL     1       2.193   9.347  17.794  0.00  0.00    +0.000 N 
ATOM      9  C   UNL     1       2.643   8.120  18.248  0.00  0.00    +0.000 A 
ATOM     10  C   UNL     1       3.548   7.159  17.746  0.00  0.00    +0.000 A 
ATOM     11  H   UNL     1       2.503   9.821  16.949  0.00  0.00    +0.000 HD
BRANCH   7  12
ATOM     12  C   UNL     1       0.723  11.223  18.643  0.00  0.00    +0.000 C 
ATOM     13  F   UNL     1       0.381  11.725  19.865  0.00  0.00    +0.000 F 
ATOM     14  F   UNL     1       1.591  12.104  18.090  0.00  0.00    +0.000 F 
ATOM     15  F   UNL     1      -0.403  11.252  17.884  0.00  0.00    +0.000 F 
ENDBRANCH   7  12
ENDBRANCH   1   2
BRANCH   1  16
ATOM     16  C   UNL     1       5.420   4.950  16.825  0.00  0.00    +0.000 A 
ATOM     17  C   UNL     1       6.635   5.645  16.731  0.00  0.00    +0.000 A 
ATOM     18  C   UNL     1       7.333   5.701  15.521  0.00  0.00    +0.000 A 
ATOM     19  C   UNL     1       6.819   5.081  14.384  0.00  0.00    +0.000 A 
ATOM     20  C   UNL     1       5.594   4.422  14.447  0.00  0.00    +0.000 A 
ATOM     21  C   UNL     1       4.901   4.358  15.657  0.00  0.00    +0.000 A 
ENDBRANCH   1  16
BRANCH   1  24
ATOM     22  O   UNL     1       5.119   2.585  19.831  0.00  0.00    +0.000 OA
ATOM     23  C   UNL     1       4.170   2.562  19.056  0.00  0.00    +0.000 C 
ATOM     24  N   UNL     1       3.864   3.588  18.190  0.00  0.00    +0.000 N 
ATOM     25  H   UNL     1       2.978   3.578  17.710  0.00  0.00    +0.000 HD
BRANCH  23  26
ATOM     26  C   UNL     1       3.239   1.364  18.975  0.00  0.00    +0.000 C 
BRANCH  26  27
ATOM     27  C   UNL     1       1.884   1.626  19.633  0.00  0.00    +0.000 C 
ATOM     28  C   UNL     1       2.024   2.224  21.006  0.00  0.00    +0.000 C 
ATOM     29  C   UNL     1       1.214   3.272  21.189  0.00  0.00    +0.000 C 
ATOM     30  C   UNL     1       0.392   3.559  19.979  0.00  0.00    +0.000 C 
ATOM     31  C   UNL     1       1.045   2.691  18.902  0.00  0.00    +0.000 C 
ENDBRANCH  26  27
ENDBRANCH  23  26
ENDBRANCH   1  24
TORSDOF 6
ENDMDL
