MODEL 1
REMARK VINA RESULT:      -7.9      0.000      0.000
REMARK  Name = 
REMARK  3 active torsions:
REMARK  status: ('A' for Active; 'I' for Inactive)
REMARK    1  A    between atoms: C_2  and  C_4
REMARK    2  A    between atoms: C_8  and  N_9
REMARK    3  A    between atoms: C_12  and  C_13
REMARK                            x       y       z     vdW  Elec       q    Type
REMARK                         _______ _______ _______ _____ _____    ______ ____
ROOT
ATOM      1  N   UNL     1       1.432   9.378  19.509  0.00  0.00    +0.000 N 
ATOM      2  C   UNL     1       2.043   8.232  18.983  0.00  0.00    +0.000 A 
ATOM      3  N   UNL     1       1.780   7.072  19.589  0.00  0.00    +0.000 NA
ATOM      4  C   UNL     1       2.426   5.953  19.150  0.00  0.00    +0.000 A 
ATOM      5  C   UNL     1       3.380   6.005  18.109  0.00  0.00    +0.000 A 
ATOM      6  C   UNL     1       4.208   4.948  17.626  0.00  0.00    +0.000 A 
ATOM      7  C   UNL     1       5.085   5.133  16.558  0.00  0.00    +0.000 A 
ATOM      8  C   UNL     1       5.173   6.380  15.965  0.00  0.00    +0.000 A 
ATOM      9  C   UNL     1       4.400   7.431  16.459  0.00  0.00    +0.000 A 
ATOM     10  C   UNL     1       3.524   7.269  17.525  0.00  0.00    +0.000 A 
ATOM     11  N   UNL     1       2.876   8.353  17.953  0.00  0.00    +0.000 NA
ATOM     12  H   UNL     1       0.677   9.016  20.087  0.00  0.00    +0.000 HD
ENDROOT
BRANCH   4  13
ATOM     13  C   UNL     1       2.050   4.709  19.890  0.00  0.00    +0.000 A 
ATOM     14  C   UNL     1       1.262   3.683  19.327  0.00  0.00    +0.000 A 
ATOM     15  C   UNL     1       0.998   2.490  20.011  0.00  0.00    +0.000 A 
ATOM     16  C   UNL     1       1.460   2.316  21.311  0.00  0.00    +0.000 A 
ATOM     17  C   UNL     1       2.179   3.337  21.924  0.00  0.00    +0.000 A 
ATOM     18  C   UNL     1       2.472   4.513  21.220  0.00  0.00    +0.000 A 
ENDBRANCH   4  13
BRANCH   1  23
ATOM     19  C   UNL     1       0.615  11.732  19.053  0.00  0.00    +0.000 C 
ATOM     20  C   UNL     1      -0.835  11.544  19.500  0.00  0.00    +0.000 C 
ATOM     21  C   UNL     1      -1.428  10.555  18.507  0.00  0.00    +0.000 C 
ATOM     22  C   UNL     1      -0.253   9.893  17.786  0.00  0.00    +0.000 C 
ATOM     23  C   UNL     1       1.034  10.365  18.491  0.00  0.00    +0.000 C 
BRANCH  19  25
ATOM     24  N   UNL     1       2.356  13.313  19.731  0.00  0.00    +0.000 N 
ATOM     25  C   UNL     1       1.479  12.351  20.133  0.00  0.00    +0.000 C 
ATOM     26  O   UNL     1       1.462  11.967  21.299  0.00  0.00    +0.000 OA
ATOM     27  H   UNL     1       2.857  13.787  20.470  0.00  0.00    +0.000 HD
ATOM     28  H   UNL     1       2.076  13.880  18.934  0.00  0.00    +0.000 HD
ENDBRANCH  19  25
ENDBRANCH   1  23
TORSDOF 3
ENDMDL
MODEL 2
REMARK VINA RESULT:      -6.8      3.748      6.804
REMARK  Name = 
REMARK  3 active torsions:
REMARK  status: ('A' for Active; 'I' for Inactive)
REMARK    1  A    between atoms: C_2  and  C_4
REMARK    2  A    between atoms: C_8  and  N_9
REMARK    3  A    between atoms: C_12  and  C_13
REMARK                            x       y       z     vdW  Elec       q    Type
REMARK                         _______ _______ _______ _____ _____    ______ ____
ROOT
ATOM      1  N   UNL     1      -1.942  13.046  21.481  0.00  0.00    +0.000 N 
ATOM      2  C   UNL     1      -1.966  12.168  20.389  0.00  0.00    +0.000 A 
ATOM      3  N   UNL     1      -0.941  11.320  20.272  0.00  0.00    +0.000 NA
ATOM      4  C   UNL     1      -0.896  10.511  19.174  0.00  0.00    +0.000 A 
ATOM      5  C   UNL     1      -1.876  10.579  18.158  0.00  0.00    +0.000 A 
ATOM      6  C   UNL     1      -1.898   9.882  16.913  0.00  0.00    +0.000 A 
ATOM      7  C   UNL     1      -2.956  10.018  16.015  0.00  0.00    +0.000 A 
ATOM      8  C   UNL     1      -4.003  10.868  16.328  0.00  0.00    +0.000 A 
ATOM      9  C   UNL     1      -3.969  11.587  17.522  0.00  0.00    +0.000 A 
ATOM     10  C   UNL     1      -2.921  11.470  18.429  0.00  0.00    +0.000 A 
ATOM     11  N   UNL     1      -2.963  12.246  19.513  0.00  0.00    +0.000 NA
ATOM     12  H   UNL     1      -1.261  12.638  22.117  0.00  0.00    +0.000 HD
ENDROOT
BRANCH   4  13
ATOM     13  C   UNL     1       0.286   9.594  19.147  0.00  0.00    +0.000 A 
ATOM     14  C   UNL     1       0.709   8.847  20.265  0.00  0.00    +0.000 A 
ATOM     15  C   UNL     1       1.766   7.930  20.188  0.00  0.00    +0.000 A 
ATOM     16  C   UNL     1       2.476   7.784  19.002  0.00  0.00    +0.000 A 
ATOM     17  C   UNL     1       2.132   8.560  17.900  0.00  0.00    +0.000 A 
ATOM     18  C   UNL     1       1.050   9.447  17.972  0.00  0.00    +0.000 A 
ENDBRANCH   4  13
BRANCH   1  23
ATOM     19  C   UNL     1      -3.643  14.806  22.135  0.00  0.00    +0.000 C 
ATOM     20  C   UNL     1      -2.941  15.324  23.390  0.00  0.00    +0.000 C 
ATOM     21  C   UNL     1      -2.960  14.154  24.363  0.00  0.00    +0.000 C 
ATOM     22  C   UNL     1      -3.282  12.903  23.544  0.00  0.00    +0.000 C 
ATOM     23  C   UNL     1      -3.269  13.318  22.059  0.00  0.00    +0.000 C 
BRANCH  19  25
ATOM     24  N   UNL     1      -4.447  15.996  20.152  0.00  0.00    +0.000 N 
ATOM     25  C   UNL     1      -3.369  15.670  20.919  0.00  0.00    +0.000 C 
ATOM     26  O   UNL     1      -2.236  16.003  20.583  0.00  0.00    +0.000 OA
ATOM     27  H   UNL     1      -4.270  16.649  19.401  0.00  0.00    +0.000 HD
ATOM     28  H   UNL     1      -5.338  16.085  20.633  0.00  0.00    +0.000 HD
ENDBRANCH  19  25
ENDBRANCH   1  23
TORSDOF 3
ENDMDL
MODEL 3
REMARK VINA RESULT:      -6.7      1.874      4.543
REMARK  Name = 
REMARK  3 active torsions:
REMARK  status: ('A' for Active; 'I' for Inactive)
REMARK    1  A    between atoms: C_2  and  C_4
REMARK    2  A    between atoms: C_8  and  N_9
REMARK    3  A    between atoms: C_12  and  C_13
REMARK                            x       y       z     vdW  Elec       q    Type
REMARK                         _______ _______ _______ _____ _____    ______ ____
ROOT
ATOM      1  N   UNL     1       1.343   9.377  18.087  0.00  0.00    +0.000 N 
ATOM      2  C   UNL     1       1.998   8.205  18.489  0.00  0.00    +0.000 A 
ATOM      3  N   UNL     1       3.090   7.856  17.804  0.00  0.00    +0.000 NA
ATOM      4  C   UNL     1       3.700   6.676  18.120  0.00  0.00    +0.000 A 
ATOM      5  C   UNL     1       3.185   5.815  19.116  0.00  0.00    +0.000 A 
ATOM      6  C   UNL     1       3.646   4.513  19.472  0.00  0.00    +0.000 A 
ATOM      7  C   UNL     1       3.062   3.786  20.508  0.00  0.00    +0.000 A 
ATOM      8  C   UNL     1       1.992   4.331  21.196  0.00  0.00    +0.000 A 
ATOM      9  C   UNL     1       1.505   5.585  20.826  0.00  0.00    +0.000 A 
ATOM     10  C   UNL     1       2.070   6.323  19.792  0.00  0.00    +0.000 A 
ATOM     11  N   UNL     1       1.490   7.484  19.485  0.00  0.00    +0.000 NA
ATOM     12  H   UNL     1       2.030   9.865  17.517  0.00  0.00    +0.000 HD
ENDROOT
BRANCH   4  13
ATOM     13  C   UNL     1       4.917   6.387  17.300  0.00  0.00    +0.000 A 
ATOM     14  C   UNL     1       6.206   6.844  17.644  0.00  0.00    +0.000 A 
ATOM     15  C   UNL     1       7.342   6.485  16.906  0.00  0.00    +0.000 A 
ATOM     16  C   UNL     1       7.211   5.712  15.759  0.00  0.00    +0.000 A 
ATOM     17  C   UNL     1       5.945   5.305  15.350  0.00  0.00    +0.000 A 
ATOM     18  C   UNL     1       4.817   5.635  16.113  0.00  0.00    +0.000 A 
ENDBRANCH   4  13
BRANCH   1  23
ATOM     19  C   UNL     1      -0.267  11.206  18.780  0.00  0.00    +0.000 C 
ATOM     20  C   UNL     1       0.555  12.403  18.306  0.00  0.00    +0.000 C 
ATOM     21  C   UNL     1       1.795  12.402  19.188  0.00  0.00    +0.000 C 
ATOM     22  C   UNL     1       1.871  11.023  19.844  0.00  0.00    +0.000 C 
ATOM     23  C   UNL     1       0.772  10.155  19.199  0.00  0.00    +0.000 C 
BRANCH  19  25
ATOM     24  N   UNL     1      -1.881  11.796  17.036  0.00  0.00    +0.000 N 
ATOM     25  C   UNL     1      -1.326  10.795  17.775  0.00  0.00    +0.000 C 
ATOM     26  O   UNL     1      -1.731   9.641  17.671  0.00  0.00    +0.000 OA
ATOM     27  H   UNL     1      -2.513  11.503  16.304  0.00  0.00    +0.000 HD
ATOM     28  H   UNL     1      -1.286  12.595  16.831  0.00  0.00    +0.000 HD
ENDBRANCH  19  25
ENDBRANCH   1  23
TORSDOF 3
ENDMDL
MODEL 4
REMARK VINA RESULT:      -6.6      3.413      6.374
REMARK  Name = 
REMARK  3 active torsions:
REMARK  status: ('A' for Active; 'I' for Inactive)
REMARK    1  A    between atoms: C_2  and  C_4
REMARK    2  A    between atoms: C_8  and  N_9
REMARK    3  A    between atoms: C_12  and  C_13
REMARK                            x       y       z     vdW  Elec       q    Type
REMARK                         _______ _______ _______ _____ _____    ______ ____
ROOT
ATOM      1  N   UNL     1      -3.334  11.149  19.214  0.00  0.00    +0.000 N 
ATOM      2  C   UNL     1      -1.981  11.474  19.047  0.00  0.00    +0.000 A 
ATOM      3  N   UNL     1      -1.112  10.460  19.030  0.00  0.00    +0.000 NA
ATOM      4  C   UNL     1       0.219  10.752  18.952  0.00  0.00    +0.000 A 
ATOM      5  C   UNL     1       0.688  12.085  18.926  0.00  0.00    +0.000 A 
ATOM      6  C   UNL     1       2.040  12.540  18.959  0.00  0.00    +0.000 A 
ATOM      7  C   UNL     1       2.360  13.895  18.889  0.00  0.00    +0.000 A 
ATOM      8  C   UNL     1       1.340  14.827  18.809  0.00  0.00    +0.000 A 
ATOM      9  C   UNL     1       0.014  14.395  18.821  0.00  0.00    +0.000 A 
ATOM     10  C   UNL     1      -0.327  13.049  18.896  0.00  0.00    +0.000 A 
ATOM     11  N   UNL     1      -1.625  12.752  18.958  0.00  0.00    +0.000 NA
ATOM     12  H   UNL     1      -3.381  10.155  19.001  0.00  0.00    +0.000 HD
ENDROOT
BRANCH   4  13
ATOM     13  C   UNL     1       1.102   9.546  18.929  0.00  0.00    +0.000 A 
ATOM     14  C   UNL     1       1.289   8.705  20.046  0.00  0.00    +0.000 A 
ATOM     15  C   UNL     1       2.053   7.533  19.973  0.00  0.00    +0.000 A 
ATOM     16  C   UNL     1       2.710   7.203  18.793  0.00  0.00    +0.000 A 
ATOM     17  C   UNL     1       2.606   8.049  17.693  0.00  0.00    +0.000 A 
ATOM     18  C   UNL     1       1.810   9.199  17.762  0.00  0.00    +0.000 A 
ENDBRANCH   4  13
BRANCH   1  23
ATOM     19  C   UNL     1      -5.280  12.768  19.305  0.00  0.00    +0.000 C 
ATOM     20  C   UNL     1      -6.388  11.754  19.586  0.00  0.00    +0.000 C 
ATOM     21  C   UNL     1      -6.453  10.887  18.337  0.00  0.00    +0.000 C 
ATOM     22  C   UNL     1      -5.160  11.132  17.559  0.00  0.00    +0.000 C 
ATOM     23  C   UNL     1      -4.255  12.007  18.450  0.00  0.00    +0.000 C 
BRANCH  19  25
ATOM     24  N   UNL     1      -3.861  14.438  20.398  0.00  0.00    +0.000 N 
ATOM     25  C   UNL     1      -4.785  13.451  20.565  0.00  0.00    +0.000 C 
ATOM     26  O   UNL     1      -5.127  13.097  21.690  0.00  0.00    +0.000 OA
ATOM     27  H   UNL     1      -3.611  14.952  21.232  0.00  0.00    +0.000 HD
ATOM     28  H   UNL     1      -3.917  14.972  19.534  0.00  0.00    +0.000 HD
ENDBRANCH  19  25
ENDBRANCH   1  23
TORSDOF 3
ENDMDL
MODEL 5
REMARK VINA RESULT:      -6.6      4.271      9.031
REMARK  Name = 
REMARK  3 active torsions:
REMARK  status: ('A' for Active; 'I' for Inactive)
REMARK    1  A    between atoms: C_2  and  C_4
REMARK    2  A    between atoms: C_8  and  N_9
REMARK    3  A    between atoms: C_12  and  C_13
REMARK                            x       y       z     vdW  Elec       q    Type
REMARK                         _______ _______ _______ _____ _____    ______ ____
ROOT
ATOM      1  N   UNL     1       1.323  12.109  20.742  0.00  0.00    +0.000 N 
ATOM      2  C   UNL     1       1.566  13.288  20.026  0.00  0.00    +0.000 A 
ATOM      3  N   UNL     1       2.843  13.642  19.858  0.00  0.00    +0.000 NA
ATOM      4  C   UNL     1       3.107  14.829  19.237  0.00  0.00    +0.000 A 
ATOM      5  C   UNL     1       2.073  15.692  18.810  0.00  0.00    +0.000 A 
ATOM      6  C   UNL     1       2.197  17.000  18.254  0.00  0.00    +0.000 A 
ATOM      7  C   UNL     1       1.083  17.729  17.839  0.00  0.00    +0.000 A 
ATOM      8  C   UNL     1      -0.178  17.179  17.989  0.00  0.00    +0.000 A 
ATOM      9  C   UNL     1      -0.313  15.920  18.572  0.00  0.00    +0.000 A 
ATOM     10  C   UNL     1       0.784  15.179  18.998  0.00  0.00    +0.000 A 
ATOM     11  N   UNL     1       0.538  14.011  19.593  0.00  0.00    +0.000 NA
ATOM     12  H   UNL     1       2.216  11.622  20.735  0.00  0.00    +0.000 HD
ENDROOT
BRANCH   4  13
ATOM     13  C   UNL     1       4.566  15.123  19.092  0.00  0.00    +0.000 A 
ATOM     14  C   UNL     1       5.315  15.817  20.065  0.00  0.00    +0.000 A 
ATOM     15  C   UNL     1       6.698  16.002  19.943  0.00  0.00    +0.000 A 
ATOM     16  C   UNL     1       7.364  15.556  18.808  0.00  0.00    +0.000 A 
ATOM     17  C   UNL     1       6.643  14.931  17.794  0.00  0.00    +0.000 A 
ATOM     18  C   UNL     1       5.266  14.715  17.939  0.00  0.00    +0.000 A 
ENDBRANCH   4  13
BRANCH   1  23
ATOM     19  C   UNL     1      -0.277  10.191  21.168  0.00  0.00    +0.000 C 
ATOM     20  C   UNL     1       0.684   9.042  20.869  0.00  0.00    +0.000 C 
ATOM     21  C   UNL     1       1.003   9.171  19.387  0.00  0.00    +0.000 C 
ATOM     22  C   UNL     1       0.575  10.576  18.963  0.00  0.00    +0.000 C 
ATOM     23  C   UNL     1       0.174  11.333  20.244  0.00  0.00    +0.000 C 
BRANCH  19  25
ATOM     24  N   UNL     1      -0.405   9.401  23.482  0.00  0.00    +0.000 N 
ATOM     25  C   UNL     1      -0.391  10.481  22.652  0.00  0.00    +0.000 C 
ATOM     26  O   UNL     1      -0.543  11.616  23.097  0.00  0.00    +0.000 OA
ATOM     27  H   UNL     1      -0.383   9.607  24.471  0.00  0.00    +0.000 HD
ATOM     28  H   UNL     1       0.118   8.585  23.175  0.00  0.00    +0.000 HD
ENDBRANCH  19  25
ENDBRANCH   1  23
TORSDOF 3
ENDMDL
MODEL 6
REMARK VINA RESULT:      -6.5      2.450      7.512
REMARK  Name = 
REMARK  3 active torsions:
REMARK  status: ('A' for Active; 'I' for Inactive)
REMARK    1  A    between atoms: C_2  and  C_4
REMARK    2  A    between atoms: C_8  and  N_9
REMARK    3  A    between atoms: C_12  and  C_13
REMARK                            x       y       z     vdW  Elec       q    Type
REMARK                         _______ _______ _______ _____ _____    ______ ____
ROOT
ATOM      1  N   UNL     1       1.573   8.265  18.135  0.00  0.00    +0.000 N 
ATOM      2  C   UNL     1       1.052   9.555  18.307  0.00  0.00    +0.000 A 
ATOM      3  N   UNL     1      -0.224   9.744  17.960  0.00  0.00    +0.000 NA
ATOM      4  C   UNL     1      -0.733  11.007  18.039  0.00  0.00    +0.000 A 
ATOM      5  C   UNL     1       0.060  12.106  18.439  0.00  0.00    +0.000 A 
ATOM      6  C   UNL     1      -0.301  13.487  18.460  0.00  0.00    +0.000 A 
ATOM      7  C   UNL     1       0.578  14.468  18.917  0.00  0.00    +0.000 A 
ATOM      8  C   UNL     1       1.842  14.098  19.341  0.00  0.00    +0.000 A 
ATOM      9  C   UNL     1       2.220  12.757  19.282  0.00  0.00    +0.000 A 
ATOM     10  C   UNL     1       1.361  11.764  18.824  0.00  0.00    +0.000 A 
ATOM     11  N   UNL     1       1.845  10.523  18.757  0.00  0.00    +0.000 NA
ATOM     12  H   UNL     1       0.751   7.673  18.039  0.00  0.00    +0.000 HD
ENDROOT
BRANCH   4  13
ATOM     13  C   UNL     1      -2.171  11.105  17.639  0.00  0.00    +0.000 A 
ATOM     14  C   UNL     1      -3.192  11.519  18.519  0.00  0.00    +0.000 A 
ATOM     15  C   UNL     1      -4.516  11.686  18.094  0.00  0.00    +0.000 A 
ATOM     16  C   UNL     1      -4.871  11.377  16.786  0.00  0.00    +0.000 A 
ATOM     17  C   UNL     1      -3.904  10.897  15.910  0.00  0.00    +0.000 A 
ATOM     18  C   UNL     1      -2.573  10.768  16.331  0.00  0.00    +0.000 A 
ENDBRANCH   4  13
BRANCH   1  23
ATOM     19  C   UNL     1       3.270   6.546  18.897  0.00  0.00    +0.000 C 
ATOM     20  C   UNL     1       2.290   5.447  19.306  0.00  0.00    +0.000 C 
ATOM     21  C   UNL     1       1.524   6.023  20.488  0.00  0.00    +0.000 C 
ATOM     22  C   UNL     1       1.767   7.533  20.480  0.00  0.00    +0.000 C 
ATOM     23  C   UNL     1       2.529   7.862  19.180  0.00  0.00    +0.000 C 
BRANCH  19  25
ATOM     24  N   UNL     1       3.978   5.040  17.101  0.00  0.00    +0.000 N 
ATOM     25  C   UNL     1       3.832   6.333  17.505  0.00  0.00    +0.000 C 
ATOM     26  O   UNL     1       4.214   7.259  16.794  0.00  0.00    +0.000 OA
ATOM     27  H   UNL     1       4.261   4.910  16.139  0.00  0.00    +0.000 HD
ATOM     28  H   UNL     1       3.313   4.368  17.475  0.00  0.00    +0.000 HD
ENDBRANCH  19  25
ENDBRANCH   1  23
TORSDOF 3
ENDMDL
MODEL 7
REMARK VINA RESULT:      -6.5      2.673      7.213
REMARK  Name = 
REMARK  3 active torsions:
REMARK  status: ('A' for Active; 'I' for Inactive)
REMARK    1  A    between atoms: C_2  and  C_4
REMARK    2  A    between atoms: C_8  and  N_9
REMARK    3  A    between atoms: C_12  and  C_13
REMARK                            x       y       z     vdW  Elec       q    Type
REMARK                         _______ _______ _______ _____ _____    ______ ____
ROOT
ATOM      1  N   UNL     1       2.840   7.597  18.348  0.00  0.00    +0.000 N 
ATOM      2  C   UNL     1       1.840   8.229  19.100  0.00  0.00    +0.000 A 
ATOM      3  N   UNL     1       0.862   8.831  18.420  0.00  0.00    +0.000 NA
ATOM      4  C   UNL     1      -0.081   9.524  19.123  0.00  0.00    +0.000 A 
ATOM      5  C   UNL     1      -0.020   9.645  20.530  0.00  0.00    +0.000 A 
ATOM      6  C   UNL     1      -0.862  10.423  21.380  0.00  0.00    +0.000 A 
ATOM      7  C   UNL     1      -0.709  10.418  22.766  0.00  0.00    +0.000 A 
ATOM      8  C   UNL     1       0.298   9.657  23.332  0.00  0.00    +0.000 A 
ATOM      9  C   UNL     1       1.154   8.929  22.507  0.00  0.00    +0.000 A 
ATOM     10  C   UNL     1       1.023   8.924  21.123  0.00  0.00    +0.000 A 
ATOM     11  N   UNL     1       1.930   8.237  20.426  0.00  0.00    +0.000 NA
ATOM     12  H   UNL     1       2.434   7.500  17.421  0.00  0.00    +0.000 HD
ENDROOT
BRANCH   4  13
ATOM     13  C   UNL     1      -1.135  10.150  18.267  0.00  0.00    +0.000 A 
ATOM     14  C   UNL     1      -1.455   9.687  16.973  0.00  0.00    +0.000 A 
ATOM     15  C   UNL     1      -2.506  10.237  16.227  0.00  0.00    +0.000 A 
ATOM     16  C   UNL     1      -3.226  11.315  16.729  0.00  0.00    +0.000 A 
ATOM     17  C   UNL     1      -2.889  11.844  17.971  0.00  0.00    +0.000 A 
ATOM     18  C   UNL     1      -1.862  11.265  18.728  0.00  0.00    +0.000 A 
ENDBRANCH   4  13
BRANCH   1  23
ATOM     19  C   UNL     1       4.332   5.568  18.073  0.00  0.00    +0.000 C 
ATOM     20  C   UNL     1       3.449   4.786  17.101  0.00  0.00    +0.000 C 
ATOM     21  C   UNL     1       2.198   4.443  17.895  0.00  0.00    +0.000 C 
ATOM     22  C   UNL     1       2.192   5.351  19.126  0.00  0.00    +0.000 C 
ATOM     23  C   UNL     1       3.349   6.355  18.953  0.00  0.00    +0.000 C 
BRANCH  19  25
ATOM     24  N   UNL     1       6.626   6.421  18.010  0.00  0.00    +0.000 N 
ATOM     25  C   UNL     1       5.428   6.343  17.366  0.00  0.00    +0.000 C 
ATOM     26  O   UNL     1       5.244   6.939  16.309  0.00  0.00    +0.000 OA
ATOM     27  H   UNL     1       7.377   6.855  17.490  0.00  0.00    +0.000 HD
ATOM     28  H   UNL     1       6.878   5.633  18.602  0.00  0.00    +0.000 HD
ENDBRANCH  19  25
ENDBRANCH   1  23
TORSDOF 3
ENDMDL
MODEL 8
REMARK VINA RESULT:      -6.5      3.636      6.544
REMARK  Name = 
REMARK  3 active torsions:
REMARK  status: ('A' for Active; 'I' for Inactive)
REMARK    1  A    between atoms: C_2  and  C_4
REMARK    2  A    between atoms: C_8  and  N_9
REMARK    3  A    between atoms: C_12  and  C_13
REMARK                            x       y       z     vdW  Elec       q    Type
REMARK                         _______ _______ _______ _____ _____    ______ ____
ROOT
ATOM      1  N   UNL     1      -3.379  11.535  19.638  0.00  0.00    +0.000 N 
ATOM      2  C   UNL     1      -2.032  11.786  19.346  0.00  0.00    +0.000 A 
ATOM      3  N   UNL     1      -1.220  10.729  19.274  0.00  0.00    +0.000 NA
ATOM      4  C   UNL     1       0.112  10.950  19.073  0.00  0.00    +0.000 A 
ATOM      5  C   UNL     1       0.643  12.256  18.980  0.00  0.00    +0.000 A 
ATOM      6  C   UNL     1       2.015  12.640  18.886  0.00  0.00    +0.000 A 
ATOM      7  C   UNL     1       2.396  13.975  18.761  0.00  0.00    +0.000 A 
ATOM      8  C   UNL     1       1.421  14.958  18.753  0.00  0.00    +0.000 A 
ATOM      9  C   UNL     1       0.081  14.596  18.890  0.00  0.00    +0.000 A 
ATOM     10  C   UNL     1      -0.319  13.271  19.020  0.00  0.00    +0.000 A 
ATOM     11  N   UNL     1      -1.621  13.043  19.201  0.00  0.00    +0.000 NA
ATOM     12  H   UNL     1      -3.495  10.542  19.449  0.00  0.00    +0.000 HD
ENDROOT
BRANCH   4  13
ATOM     13  C   UNL     1       0.928   9.699  18.997  0.00  0.00    +0.000 A 
ATOM     14  C   UNL     1       1.541   9.248  17.810  0.00  0.00    +0.000 A 
ATOM     15  C   UNL     1       2.372   8.120  17.786  0.00  0.00    +0.000 A 
ATOM     16  C   UNL     1       2.559   7.369  18.941  0.00  0.00    +0.000 A 
ATOM     17  C   UNL     1       1.910   7.744  20.113  0.00  0.00    +0.000 A 
ATOM     18  C   UNL     1       1.111   8.894  20.139  0.00  0.00    +0.000 A 
ENDBRANCH   4  13
BRANCH   1  23
ATOM     19  C   UNL     1      -5.581  12.783  19.742  0.00  0.00    +0.000 C 
ATOM     20  C   UNL     1      -6.513  11.586  19.558  0.00  0.00    +0.000 C 
ATOM     21  C   UNL     1      -6.233  11.083  18.149  0.00  0.00    +0.000 C 
ATOM     22  C   UNL     1      -4.907  11.706  17.712  0.00  0.00    +0.000 C 
ATOM     23  C   UNL     1      -4.319  12.428  18.941  0.00  0.00    +0.000 C 
BRANCH  19  25
ATOM     24  N   UNL     1      -5.417  14.500  21.480  0.00  0.00    +0.000 N 
ATOM     25  C   UNL     1      -5.411  13.167  21.199  0.00  0.00    +0.000 C 
ATOM     26  O   UNL     1      -5.201  12.342  22.083  0.00  0.00    +0.000 OA
ATOM     27  H   UNL     1      -5.402  14.743  22.461  0.00  0.00    +0.000 HD
ATOM     28  H   UNL     1      -5.982  15.090  20.874  0.00  0.00    +0.000 HD
ENDBRANCH  19  25
ENDBRANCH   1  23
TORSDOF 3
ENDMDL
MODEL 9
REMARK VINA RESULT:      -6.5      3.252      6.553
REMARK  Name = 
REMARK  3 active torsions:
REMARK  status: ('A' for Active; 'I' for Inactive)
REMARK    1  A    between atoms: C_2  and  C_4
REMARK    2  A    between atoms: C_8  and  N_9
REMARK    3  A    between atoms: C_12  and  C_13
REMARK                            x       y       z     vdW  Elec       q    Type
REMARK                         _______ _______ _______ _____ _____    ______ ____
ROOT
ATOM      1  N   UNL     1       0.420  14.151  20.161  0.00  0.00    +0.000 N 
ATOM      2  C   UNL     1      -0.201  12.981  19.703  0.00  0.00    +0.000 A 
ATOM      3  N   UNL     1       0.565  11.892  19.595  0.00  0.00    +0.000 NA
ATOM      4  C   UNL     1       0.007  10.761  19.073  0.00  0.00    +0.000 A 
ATOM      5  C   UNL     1      -1.331  10.732  18.618  0.00  0.00    +0.000 A 
ATOM      6  C   UNL     1      -2.008   9.666  17.953  0.00  0.00    +0.000 A 
ATOM      7  C   UNL     1      -3.351   9.763  17.591  0.00  0.00    +0.000 A 
ATOM      8  C   UNL     1      -4.041  10.932  17.863  0.00  0.00    +0.000 A 
ATOM      9  C   UNL     1      -3.376  11.995  18.472  0.00  0.00    +0.000 A 
ATOM     10  C   UNL     1      -2.036  11.921  18.836  0.00  0.00    +0.000 A 
ATOM     11  N   UNL     1      -1.485  13.017  19.361  0.00  0.00    +0.000 NA
ATOM     12  H   UNL     1       1.284  13.826  20.588  0.00  0.00    +0.000 HD
ENDROOT
BRANCH   4  13
ATOM     13  C   UNL     1       0.946   9.599  19.007  0.00  0.00    +0.000 A 
ATOM     14  C   UNL     1       1.153   8.711  20.083  0.00  0.00    +0.000 A 
ATOM     15  C   UNL     1       1.972   7.580  19.965  0.00  0.00    +0.000 A 
ATOM     16  C   UNL     1       2.665   7.343  18.783  0.00  0.00    +0.000 A 
ATOM     17  C   UNL     1       2.541   8.239  17.726  0.00  0.00    +0.000 A 
ATOM     18  C   UNL     1       1.690   9.347  17.838  0.00  0.00    +0.000 A 
ENDBRANCH   4  13
BRANCH   1  23
ATOM     19  C   UNL     1      -0.477  16.473  20.633  0.00  0.00    +0.000 C 
ATOM     20  C   UNL     1       0.791  17.070  21.242  0.00  0.00    +0.000 C 
ATOM     21  C   UNL     1       1.011  16.295  22.532  0.00  0.00    +0.000 C 
ATOM     22  C   UNL     1       0.148  15.036  22.445  0.00  0.00    +0.000 C 
ATOM     23  C   UNL     1      -0.437  14.986  21.019  0.00  0.00    +0.000 C 
BRANCH  19  25
ATOM     24  N   UNL     1      -1.844  17.326  18.790  0.00  0.00    +0.000 N 
ATOM     25  C   UNL     1      -0.636  16.821  19.166  0.00  0.00    +0.000 C 
ATOM     26  O   UNL     1       0.236  16.595  18.332  0.00  0.00    +0.000 OA
ATOM     27  H   UNL     1      -1.908  17.645  17.833  0.00  0.00    +0.000 HD
ATOM     28  H   UNL     1      -2.346  17.871  19.487  0.00  0.00    +0.000 HD
ENDBRANCH  19  25
ENDBRANCH   1  23
TORSDOF 3
ENDMDL
