MODEL 1
REMARK VINA RESULT:      -9.0      0.000      0.000
REMARK  Name = 
REMARK  6 active torsions:
REMARK  status: ('A' for Active; 'I' for Inactive)
REMARK    1  A    between atoms: C_1  and  C_2
REMARK    2  A    between atoms: C_4  and  N_5
REMARK    3  A    between atoms: C_6  and  C_8
REMARK    4  A    between atoms: N_12  and  C_13
REMARK    5  A    between atoms: C_13  and  C_14
REMARK    6  A    between atoms: C_23  and  N_24
REMARK                            x       y       z     vdW  Elec       q    Type
REMARK                         _______ _______ _______ _____ _____    ______ ____
ROOT
ATOM      1  N   UNL     1       8.453   8.186  18.705  0.00  0.00    +0.000 N 
ATOM      2  C   UNL     1       7.615   7.488  17.842  0.00  0.00    +0.000 C 
ATOM      3  O   UNL     1       6.873   7.960  16.989  0.00  0.00    +0.000 OA
ATOM      4  H   UNL     1       8.940   7.632  19.397  0.00  0.00    +0.000 HD
ENDROOT
BRANCH   1   8
ATOM      5  C   UNL     1      10.511  12.115  20.887  0.00  0.00    +0.000 C 
ATOM      6  C   UNL     1       9.803  11.556  19.681  0.00  0.00    +0.000 A 
ATOM      7  C   UNL     1       9.507  10.172  19.737  0.00  0.00    +0.000 A 
ATOM      8  C   UNL     1       8.784   9.550  18.731  0.00  0.00    +0.000 A 
ATOM      9  C   UNL     1       8.317  10.323  17.670  0.00  0.00    +0.000 A 
ATOM     10  C   UNL     1       8.615  11.685  17.593  0.00  0.00    +0.000 A 
ATOM     11  C   UNL     1       9.391  12.333  18.570  0.00  0.00    +0.000 A 
BRANCH  11  12
ATOM     12  N   UNL     1       9.746  13.706  18.366  0.00  0.00    +0.000 N 
ATOM     13  C   UNL     1       9.040  14.791  19.008  0.00  0.00    +0.000 C 
ATOM     14  C   UNL     1       9.705  16.047  18.489  0.00  0.00    +0.000 C 
ATOM     15  C   UNL     1      11.137  15.619  18.265  0.00  0.00    +0.000 C 
ATOM     16  C   UNL     1      11.008  14.156  17.923  0.00  0.00    +0.000 C 
ATOM     17  O   UNL     1      11.903  13.523  17.382  0.00  0.00    +0.000 OA
ENDBRANCH  11  12
ENDBRANCH   1   8
BRANCH   2  18
ATOM     18  C   UNL     1       7.716   5.988  18.124  0.00  0.00    +0.000 C 
ATOM     19  C   UNL     1       7.316   5.208  16.868  0.00  0.00    +0.000 C 
ATOM     20  C   UNL     1       5.995   4.591  17.202  0.00  0.00    +0.000 C 
ATOM     21  O   UNL     1       5.274   4.031  16.393  0.00  0.00    +0.000 OA
ATOM     22  N   UNL     1       5.812   4.659  18.567  0.00  0.00    +0.000 N 
ATOM     23  C   UNL     1       6.850   5.416  19.240  0.00  0.00    +0.000 C 
BRANCH  22  24
ATOM     24  C   UNL     1       4.999   3.661  19.245  0.00  0.00    +0.000 C 
BRANCH  24  25
ATOM     25  C   UNL     1       3.643   4.126  19.698  0.00  0.00    +0.000 A 
ATOM     26  C   UNL     1       2.737   3.261  20.320  0.00  0.00    +0.000 A 
ATOM     27  C   UNL     1       1.496   3.729  20.755  0.00  0.00    +0.000 A 
ATOM     28  C   UNL     1       1.162   5.073  20.600  0.00  0.00    +0.000 A 
ATOM     29  C   UNL     1       2.075   5.956  20.028  0.00  0.00    +0.000 A 
ATOM     30  C   UNL     1       3.312   5.487  19.586  0.00  0.00    +0.000 A 
ENDBRANCH  24  25
ENDBRANCH  22  24
ENDBRANCH   2  18
TORSDOF 5
ENDMDL
MODEL 2
REMARK VINA RESULT:      -8.9      1.010      1.517
REMARK  Name = 
REMARK  6 active torsions:
REMARK  status: ('A' for Active; 'I' for Inactive)
REMARK    1  A    between atoms: C_1  and  C_2
REMARK    2  A    between atoms: C_4  and  N_5
REMARK    3  A    between atoms: C_6  and  C_8
REMARK    4  A    between atoms: N_12  and  C_13
REMARK    5  A    between atoms: C_13  and  C_14
REMARK    6  A    between atoms: C_23  and  N_24
REMARK                            x       y       z     vdW  Elec       q    Type
REMARK                         _______ _______ _______ _____ _____    ______ ____
ROOT
ATOM      1  N   UNL     1       8.661   8.419  18.808  0.00  0.00    +0.000 N 
ATOM      2  C   UNL     1       7.747   7.878  17.911  0.00  0.00    +0.000 C 
ATOM      3  O   UNL     1       6.986   8.491  17.171  0.00  0.00    +0.000 OA
ATOM      4  H   UNL     1       9.155   7.757  19.393  0.00  0.00    +0.000 HD
ENDROOT
BRANCH   1   8
ATOM      5  C   UNL     1       9.577  12.315  21.708  0.00  0.00    +0.000 C 
ATOM      6  C   UNL     1       9.592  11.733  20.320  0.00  0.00    +0.000 A 
ATOM      7  C   UNL     1       9.174  10.382  20.223  0.00  0.00    +0.000 A 
ATOM      8  C   UNL     1       9.060   9.751  18.994  0.00  0.00    +0.000 A 
ATOM      9  C   UNL     1       9.332  10.485  17.840  0.00  0.00    +0.000 A 
ATOM     10  C   UNL     1       9.760  11.811  17.921  0.00  0.00    +0.000 A 
ATOM     11  C   UNL     1       9.936  12.462  19.155  0.00  0.00    +0.000 A 
BRANCH  11  12
ATOM     12  N   UNL     1      10.482  13.787  19.162  0.00  0.00    +0.000 N 
ATOM     13  C   UNL     1      11.904  14.037  19.096  0.00  0.00    +0.000 C 
ATOM     14  C   UNL     1      12.036  15.543  19.172  0.00  0.00    +0.000 C 
ATOM     15  C   UNL     1      10.778  16.040  18.498  0.00  0.00    +0.000 C 
ATOM     16  C   UNL     1       9.776  14.953  18.798  0.00  0.00    +0.000 C 
ATOM     17  O   UNL     1       8.570  15.119  18.688  0.00  0.00    +0.000 OA
ENDBRANCH  11  12
ENDBRANCH   1   8
BRANCH   2  18
ATOM     18  C   UNL     1       7.787   6.351  17.989  0.00  0.00    +0.000 C 
ATOM     19  C   UNL     1       7.238   5.763  16.686  0.00  0.00    +0.000 C 
ATOM     20  C   UNL     1       5.918   5.166  17.059  0.00  0.00    +0.000 C 
ATOM     21  O   UNL     1       5.100   4.751  16.255  0.00  0.00    +0.000 OA
ATOM     22  N   UNL     1       5.857   5.060  18.433  0.00  0.00    +0.000 N 
ATOM     23  C   UNL     1       6.989   5.675  19.098  0.00  0.00    +0.000 C 
BRANCH  22  24
ATOM     24  C   UNL     1       5.051   4.019  19.050  0.00  0.00    +0.000 C 
BRANCH  24  25
ATOM     25  C   UNL     1       3.725   4.464  19.601  0.00  0.00    +0.000 A 
ATOM     26  C   UNL     1       3.332   5.807  19.585  0.00  0.00    +0.000 A 
ATOM     27  C   UNL     1       2.083   6.185  20.078  0.00  0.00    +0.000 A 
ATOM     28  C   UNL     1       1.203   5.221  20.565  0.00  0.00    +0.000 A 
ATOM     29  C   UNL     1       1.560   3.876  20.542  0.00  0.00    +0.000 A 
ATOM     30  C   UNL     1       2.812   3.498  20.055  0.00  0.00    +0.000 A 
ENDBRANCH  24  25
ENDBRANCH  22  24
ENDBRANCH   2  18
TORSDOF 5
ENDMDL
MODEL 3
REMARK VINA RESULT:      -8.9      0.957      1.204
REMARK  Name = 
REMARK  6 active torsions:
REMARK  status: ('A' for Active; 'I' for Inactive)
REMARK    1  A    between atoms: C_1  and  C_2
REMARK    2  A    between atoms: C_4  and  N_5
REMARK    3  A    between atoms: C_6  and  C_8
REMARK    4  A    between atoms: N_12  and  C_13
REMARK    5  A    between atoms: C_13  and  C_14
REMARK    6  A    between atoms: C_23  and  N_24
REMARK                            x       y       z     vdW  Elec       q    Type
REMARK                         _______ _______ _______ _____ _____    ______ ____
ROOT
ATOM      1  N   UNL     1       8.395   8.046  18.656  0.00  0.00    +0.000 N 
ATOM      2  C   UNL     1       7.499   7.361  17.842  0.00  0.00    +0.000 C 
ATOM      3  O   UNL     1       6.698   7.847  17.052  0.00  0.00    +0.000 OA
ATOM      4  H   UNL     1       8.929   7.481  19.303  0.00  0.00    +0.000 HD
ENDROOT
BRANCH   1   8
ATOM      5  C   UNL     1      10.552  11.953  20.783  0.00  0.00    +0.000 C 
ATOM      6  C   UNL     1       9.788  11.407  19.606  0.00  0.00    +0.000 A 
ATOM      7  C   UNL     1       9.496  10.021  19.660  0.00  0.00    +0.000 A 
ATOM      8  C   UNL     1       8.725   9.410  18.683  0.00  0.00    +0.000 A 
ATOM      9  C   UNL     1       8.208  10.195  17.654  0.00  0.00    +0.000 A 
ATOM     10  C   UNL     1       8.501  11.558  17.579  0.00  0.00    +0.000 A 
ATOM     11  C   UNL     1       9.322  12.195  18.525  0.00  0.00    +0.000 A 
BRANCH  11  12
ATOM     12  N   UNL     1       9.667  13.572  18.320  0.00  0.00    +0.000 N 
ATOM     13  C   UNL     1      10.744  13.977  17.446  0.00  0.00    +0.000 C 
ATOM     14  C   UNL     1      10.786  15.486  17.558  0.00  0.00    +0.000 C 
ATOM     15  C   UNL     1       9.343  15.860  17.807  0.00  0.00    +0.000 C 
ATOM     16  C   UNL     1       8.802  14.662  18.547  0.00  0.00    +0.000 C 
ATOM     17  O   UNL     1       7.761  14.698  19.188  0.00  0.00    +0.000 OA
ENDBRANCH  11  12
ENDBRANCH   1   8
BRANCH   2  18
ATOM     18  C   UNL     1       7.620   5.857  18.091  0.00  0.00    +0.000 C 
ATOM     19  C   UNL     1       7.151   5.098  16.847  0.00  0.00    +0.000 C 
ATOM     20  C   UNL     1       5.854   4.470  17.245  0.00  0.00    +0.000 C 
ATOM     21  O   UNL     1       5.089   3.922  16.469  0.00  0.00    +0.000 OA
ATOM     22  N   UNL     1       5.749   4.512  18.620  0.00  0.00    +0.000 N 
ATOM     23  C   UNL     1       6.821   5.262  19.245  0.00  0.00    +0.000 C 
BRANCH  22  24
ATOM     24  C   UNL     1       4.979   3.500  19.325  0.00  0.00    +0.000 C 
BRANCH  24  25
ATOM     25  C   UNL     1       3.558   3.870  19.646  0.00  0.00    +0.000 A 
ATOM     26  C   UNL     1       2.539   2.912  19.692  0.00  0.00    +0.000 A 
ATOM     27  C   UNL     1       1.234   3.282  20.021  0.00  0.00    +0.000 A 
ATOM     28  C   UNL     1       0.942   4.608  20.336  0.00  0.00    +0.000 A 
ATOM     29  C   UNL     1       1.956   5.562  20.342  0.00  0.00    +0.000 A 
ATOM     30  C   UNL     1       3.259   5.194  20.007  0.00  0.00    +0.000 A 
ENDBRANCH  24  25
ENDBRANCH  22  24
ENDBRANCH   2  18
TORSDOF 5
ENDMDL
MODEL 4
REMARK VINA RESULT:      -8.8      5.941      7.929
REMARK  Name = 
REMARK  6 active torsions:
REMARK  status: ('A' for Active; 'I' for Inactive)
REMARK    1  A    between atoms: C_1  and  C_2
REMARK    2  A    between atoms: C_4  and  N_5
REMARK    3  A    between atoms: C_6  and  C_8
REMARK    4  A    between atoms: N_12  and  C_13
REMARK    5  A    between atoms: C_13  and  C_14
REMARK    6  A    between atoms: C_23  and  N_24
REMARK                            x       y       z     vdW  Elec       q    Type
REMARK                         _______ _______ _______ _____ _____    ______ ____
ROOT
ATOM      1  N   UNL     1       3.080   6.052  18.503  0.00  0.00    +0.000 N 
ATOM      2  C   UNL     1       2.603   4.892  17.903  0.00  0.00    +0.000 C 
ATOM      3  O   UNL     1       1.439   4.628  17.627  0.00  0.00    +0.000 OA
ATOM      4  H   UNL     1       4.067   6.065  18.724  0.00  0.00    +0.000 HD
ENDROOT
BRANCH   1   8
ATOM      5  C   UNL     1       0.668   9.019  21.636  0.00  0.00    +0.000 C 
ATOM      6  C   UNL     1       1.253   8.828  20.262  0.00  0.00    +0.000 A 
ATOM      7  C   UNL     1       1.907   7.589  20.046  0.00  0.00    +0.000 A 
ATOM      8  C   UNL     1       2.414   7.251  18.801  0.00  0.00    +0.000 A 
ATOM      9  C   UNL     1       2.238   8.143  17.745  0.00  0.00    +0.000 A 
ATOM     10  C   UNL     1       1.609   9.374  17.946  0.00  0.00    +0.000 A 
ATOM     11  C   UNL     1       1.132   9.767  19.208  0.00  0.00    +0.000 A 
BRANCH  11  12
ATOM     12  N   UNL     1       0.598  11.089  19.360  0.00  0.00    +0.000 N 
ATOM     13  C   UNL     1       1.443  12.254  19.489  0.00  0.00    +0.000 C 
ATOM     14  C   UNL     1       0.483  13.410  19.667  0.00  0.00    +0.000 C 
ATOM     15  C   UNL     1      -0.729  12.987  18.869  0.00  0.00    +0.000 C 
ATOM     16  C   UNL     1      -0.702  11.482  18.977  0.00  0.00    +0.000 C 
ATOM     17  O   UNL     1      -1.674  10.785  18.725  0.00  0.00    +0.000 OA
ENDBRANCH  11  12
ENDBRANCH   1   8
BRANCH   2  18
ATOM     18  C   UNL     1       3.762   3.928  17.648  0.00  0.00    +0.000 C 
ATOM     19  C   UNL     1       4.695   3.924  18.862  0.00  0.00    +0.000 C 
ATOM     20  C   UNL     1       5.935   4.619  18.398  0.00  0.00    +0.000 C 
ATOM     21  O   UNL     1       6.847   4.962  19.132  0.00  0.00    +0.000 OA
ATOM     22  N   UNL     1       5.913   4.681  17.020  0.00  0.00    +0.000 N 
ATOM     23  C   UNL     1       4.667   4.205  16.453  0.00  0.00    +0.000 C 
BRANCH  22  24
ATOM     24  C   UNL     1       7.159   4.713  16.270  0.00  0.00    +0.000 C 
BRANCH  24  25
ATOM     25  C   UNL     1       7.024   4.593  14.778  0.00  0.00    +0.000 A 
ATOM     26  C   UNL     1       7.801   5.360  13.903  0.00  0.00    +0.000 A 
ATOM     27  C   UNL     1       7.673   5.206  12.522  0.00  0.00    +0.000 A 
ATOM     28  C   UNL     1       6.788   4.263  12.003  0.00  0.00    +0.000 A 
ATOM     29  C   UNL     1       6.045   3.458  12.863  0.00  0.00    +0.000 A 
ATOM     30  C   UNL     1       6.167   3.616  14.244  0.00  0.00    +0.000 A 
ENDBRANCH  24  25
ENDBRANCH  22  24
ENDBRANCH   2  18
TORSDOF 5
ENDMDL
MODEL 5
REMARK VINA RESULT:      -8.7      5.910      7.847
REMARK  Name = 
REMARK  6 active torsions:
REMARK  status: ('A' for Active; 'I' for Inactive)
REMARK    1  A    between atoms: C_1  and  C_2
REMARK    2  A    between atoms: C_4  and  N_5
REMARK    3  A    between atoms: C_6  and  C_8
REMARK    4  A    between atoms: N_12  and  C_13
REMARK    5  A    between atoms: C_13  and  C_14
REMARK    6  A    between atoms: C_23  and  N_24
REMARK                            x       y       z     vdW  Elec       q    Type
REMARK                         _______ _______ _______ _____ _____    ______ ____
ROOT
ATOM      1  N   UNL     1       3.009   6.540  18.288  0.00  0.00    +0.000 N 
ATOM      2  C   UNL     1       2.761   5.180  18.439  0.00  0.00    +0.000 C 
ATOM      3  O   UNL     1       1.913   4.658  19.153  0.00  0.00    +0.000 OA
ATOM      4  H   UNL     1       3.802   6.785  17.710  0.00  0.00    +0.000 HD
ENDROOT
BRANCH   1   8
ATOM      5  C   UNL     1       0.654   8.953  21.903  0.00  0.00    +0.000 C 
ATOM      6  C   UNL     1       1.142   8.959  20.478  0.00  0.00    +0.000 A 
ATOM      7  C   UNL     1       1.859   7.805  20.076  0.00  0.00    +0.000 A 
ATOM      8  C   UNL     1       2.290   7.645  18.768  0.00  0.00    +0.000 A 
ATOM      9  C   UNL     1       1.972   8.632  17.836  0.00  0.00    +0.000 A 
ATOM     10  C   UNL     1       1.280   9.781  18.221  0.00  0.00    +0.000 A 
ATOM     11  C   UNL     1       0.877   9.997  19.551  0.00  0.00    +0.000 A 
BRANCH  11  12
ATOM     12  N   UNL     1       0.269  11.249  19.890  0.00  0.00    +0.000 N 
ATOM     13  C   UNL     1      -1.160  11.459  19.822  0.00  0.00    +0.000 C 
ATOM     14  C   UNL     1      -1.357  12.906  20.217  0.00  0.00    +0.000 C 
ATOM     15  C   UNL     1      -0.232  13.161  21.193  0.00  0.00    +0.000 C 
ATOM     16  C   UNL     1       0.856  12.235  20.710  0.00  0.00    +0.000 C 
ATOM     17  O   UNL     1       2.025  12.361  21.045  0.00  0.00    +0.000 OA
ENDBRANCH  11  12
ENDBRANCH   1   8
BRANCH   2  18
ATOM     18  C   UNL     1       3.744   4.377  17.586  0.00  0.00    +0.000 C 
ATOM     19  C   UNL     1       4.827   3.779  18.490  0.00  0.00    +0.000 C 
ATOM     20  C   UNL     1       6.069   4.545  18.162  0.00  0.00    +0.000 C 
ATOM     21  O   UNL     1       7.108   4.473  18.797  0.00  0.00    +0.000 OA
ATOM     22  N   UNL     1       5.867   5.223  16.978  0.00  0.00    +0.000 N 
ATOM     23  C   UNL     1       4.505   5.117  16.492  0.00  0.00    +0.000 C 
BRANCH  22  24
ATOM     24  C   UNL     1       6.993   5.526  16.109  0.00  0.00    +0.000 C 
BRANCH  24  25
ATOM     25  C   UNL     1       6.928   4.932  14.730  0.00  0.00    +0.000 A 
ATOM     26  C   UNL     1       6.022   3.917  14.405  0.00  0.00    +0.000 A 
ATOM     27  C   UNL     1       5.967   3.406  13.108  0.00  0.00    +0.000 A 
ATOM     28  C   UNL     1       6.796   3.924  12.116  0.00  0.00    +0.000 A 
ATOM     29  C   UNL     1       7.668   4.969  12.413  0.00  0.00    +0.000 A 
ATOM     30  C   UNL     1       7.728   5.476  13.712  0.00  0.00    +0.000 A 
ENDBRANCH  24  25
ENDBRANCH  22  24
ENDBRANCH   2  18
TORSDOF 5
ENDMDL
MODEL 6
REMARK VINA RESULT:      -8.7      5.820      8.095
REMARK  Name = 
REMARK  6 active torsions:
REMARK  status: ('A' for Active; 'I' for Inactive)
REMARK    1  A    between atoms: C_1  and  C_2
REMARK    2  A    between atoms: C_4  and  N_5
REMARK    3  A    between atoms: C_6  and  C_8
REMARK    4  A    between atoms: N_12  and  C_13
REMARK    5  A    between atoms: C_13  and  C_14
REMARK    6  A    between atoms: C_23  and  N_24
REMARK                            x       y       z     vdW  Elec       q    Type
REMARK                         _______ _______ _______ _____ _____    ______ ____
ROOT
ATOM      1  N   UNL     1       3.803   6.158  18.231  0.00  0.00    +0.000 N 
ATOM      2  C   UNL     1       3.530   4.906  17.692  0.00  0.00    +0.000 C 
ATOM      3  O   UNL     1       2.429   4.393  17.534  0.00  0.00    +0.000 OA
ATOM      4  H   UNL     1       4.781   6.386  18.354  0.00  0.00    +0.000 HD
ENDROOT
BRANCH   1   8
ATOM      5  C   UNL     1       0.699   8.345  21.395  0.00  0.00    +0.000 C 
ATOM      6  C   UNL     1       1.412   8.402  20.071  0.00  0.00    +0.000 A 
ATOM      7  C   UNL     1       2.276   7.312  19.798  0.00  0.00    +0.000 A 
ATOM      8  C   UNL     1       2.928   7.198  18.580  0.00  0.00    +0.000 A 
ATOM      9  C   UNL     1       2.689   8.164  17.604  0.00  0.00    +0.000 A 
ATOM     10  C   UNL     1       1.853   9.251  17.863  0.00  0.00    +0.000 A 
ATOM     11  C   UNL     1       1.220   9.422  19.107  0.00  0.00    +0.000 A 
BRANCH  11  12
ATOM     12  N   UNL     1       0.466  10.619  19.336  0.00  0.00    +0.000 N 
ATOM     13  C   UNL     1       1.089  11.864  19.723  0.00  0.00    +0.000 C 
ATOM     14  C   UNL     1      -0.059  12.834  19.897  0.00  0.00    +0.000 C 
ATOM     15  C   UNL     1      -1.078  12.357  18.888  0.00  0.00    +0.000 C 
ATOM     16  C   UNL     1      -0.822  10.872  18.819  0.00  0.00    +0.000 C 
ATOM     17  O   UNL     1      -1.630  10.085  18.348  0.00  0.00    +0.000 OA
ENDBRANCH  11  12
ENDBRANCH   1   8
BRANCH   2  18
ATOM     18  C   UNL     1       4.839   4.200  17.335  0.00  0.00    +0.000 C 
ATOM     19  C   UNL     1       6.019   5.109  17.694  0.00  0.00    +0.000 C 
ATOM     20  C   UNL     1       6.577   5.554  16.380  0.00  0.00    +0.000 C 
ATOM     21  O   UNL     1       7.422   6.425  16.252  0.00  0.00    +0.000 OA
ATOM     22  N   UNL     1       6.071   4.739  15.389  0.00  0.00    +0.000 N 
ATOM     23  C   UNL     1       5.064   3.816  15.877  0.00  0.00    +0.000 C 
BRANCH  22  24
ATOM     24  C   UNL     1       6.837   4.501  14.177  0.00  0.00    +0.000 C 
BRANCH  24  25
ATOM     25  C   UNL     1       6.123   3.742  13.093  0.00  0.00    +0.000 A 
ATOM     26  C   UNL     1       4.820   4.068  12.701  0.00  0.00    +0.000 A 
ATOM     27  C   UNL     1       4.193   3.363  11.673  0.00  0.00    +0.000 A 
ATOM     28  C   UNL     1       4.874   2.346  11.007  0.00  0.00    +0.000 A 
ATOM     29  C   UNL     1       6.189   2.045  11.353  0.00  0.00    +0.000 A 
ATOM     30  C   UNL     1       6.813   2.745  12.386  0.00  0.00    +0.000 A 
ENDBRANCH  24  25
ENDBRANCH  22  24
ENDBRANCH   2  18
TORSDOF 5
ENDMDL
MODEL 7
REMARK VINA RESULT:      -8.7      7.043     11.010
REMARK  Name = 
REMARK  6 active torsions:
REMARK  status: ('A' for Active; 'I' for Inactive)
REMARK    1  A    between atoms: C_1  and  C_2
REMARK    2  A    between atoms: C_4  and  N_5
REMARK    3  A    between atoms: C_6  and  C_8
REMARK    4  A    between atoms: N_12  and  C_13
REMARK    5  A    between atoms: C_13  and  C_14
REMARK    6  A    between atoms: C_23  and  N_24
REMARK                            x       y       z     vdW  Elec       q    Type
REMARK                         _______ _______ _______ _____ _____    ______ ____
ROOT
ATOM      1  N   UNL     1       0.590   9.928  20.322  0.00  0.00    +0.000 N 
ATOM      2  C   UNL     1      -0.120  10.122  21.503  0.00  0.00    +0.000 C 
ATOM      3  O   UNL     1      -0.429   9.271  22.328  0.00  0.00    +0.000 OA
ATOM      4  H   UNL     1       0.688  10.738  19.724  0.00  0.00    +0.000 HD
ENDROOT
BRANCH   1   8
ATOM      5  C   UNL     1       2.267   5.317  20.922  0.00  0.00    +0.000 C 
ATOM      6  C   UNL     1       2.088   6.495  20.001  0.00  0.00    +0.000 A 
ATOM      7  C   UNL     1       1.409   7.605  20.560  0.00  0.00    +0.000 A 
ATOM      8  C   UNL     1       1.252   8.785  19.848  0.00  0.00    +0.000 A 
ATOM      9  C   UNL     1       1.811   8.874  18.574  0.00  0.00    +0.000 A 
ATOM     10  C   UNL     1       2.469   7.783  18.005  0.00  0.00    +0.000 A 
ATOM     11  C   UNL     1       2.597   6.556  18.680  0.00  0.00    +0.000 A 
BRANCH  11  12
ATOM     12  N   UNL     1       3.188   5.449  17.989  0.00  0.00    +0.000 N 
ATOM     13  C   UNL     1       4.607   5.177  18.035  0.00  0.00    +0.000 C 
ATOM     14  C   UNL     1       4.798   3.966  17.147  0.00  0.00    +0.000 C 
ATOM     15  C   UNL     1       3.504   3.202  17.312  0.00  0.00    +0.000 C 
ATOM     16  C   UNL     1       2.495   4.292  17.576  0.00  0.00    +0.000 C 
ATOM     17  O   UNL     1       1.290   4.116  17.464  0.00  0.00    +0.000 OA
ENDBRANCH  11  12
ENDBRANCH   1   8
BRANCH   2  18
ATOM     18  C   UNL     1      -0.511  11.595  21.634  0.00  0.00    +0.000 C 
ATOM     19  C   UNL     1      -1.233  11.810  22.967  0.00  0.00    +0.000 C 
ATOM     20  C   UNL     1      -2.660  12.066  22.596  0.00  0.00    +0.000 C 
ATOM     21  O   UNL     1      -3.579  12.115  23.396  0.00  0.00    +0.000 OA
ATOM     22  N   UNL     1      -2.718  12.351  21.248  0.00  0.00    +0.000 N 
ATOM     23  C   UNL     1      -1.444  12.178  20.578  0.00  0.00    +0.000 C 
BRANCH  22  24
ATOM     24  C   UNL     1      -3.773  13.206  20.728  0.00  0.00    +0.000 C 
BRANCH  24  25
ATOM     25  C   UNL     1      -4.874  12.502  19.984  0.00  0.00    +0.000 A 
ATOM     26  C   UNL     1      -4.677  11.968  18.706  0.00  0.00    +0.000 A 
ATOM     27  C   UNL     1      -5.710  11.295  18.053  0.00  0.00    +0.000 A 
ATOM     28  C   UNL     1      -6.941  11.125  18.684  0.00  0.00    +0.000 A 
ATOM     29  C   UNL     1      -7.135  11.608  19.975  0.00  0.00    +0.000 A 
ATOM     30  C   UNL     1      -6.104  12.286  20.626  0.00  0.00    +0.000 A 
ENDBRANCH  24  25
ENDBRANCH  22  24
ENDBRANCH   2  18
TORSDOF 5
ENDMDL
MODEL 8
REMARK VINA RESULT:      -8.6      5.851      8.059
REMARK  Name = 
REMARK  6 active torsions:
REMARK  status: ('A' for Active; 'I' for Inactive)
REMARK    1  A    between atoms: C_1  and  C_2
REMARK    2  A    between atoms: C_4  and  N_5
REMARK    3  A    between atoms: C_6  and  C_8
REMARK    4  A    between atoms: N_12  and  C_13
REMARK    5  A    between atoms: C_13  and  C_14
REMARK    6  A    between atoms: C_23  and  N_24
REMARK                            x       y       z     vdW  Elec       q    Type
REMARK                         _______ _______ _______ _____ _____    ______ ____
ROOT
ATOM      1  N   UNL     1       3.727   6.269  18.402  0.00  0.00    +0.000 N 
ATOM      2  C   UNL     1       3.512   5.052  17.763  0.00  0.00    +0.000 C 
ATOM      3  O   UNL     1       2.433   4.548  17.478  0.00  0.00    +0.000 OA
ATOM      4  H   UNL     1       4.689   6.490  18.624  0.00  0.00    +0.000 HD
ENDROOT
BRANCH   1   8
ATOM      5  C   UNL     1       0.557   8.388  21.547  0.00  0.00    +0.000 C 
ATOM      6  C   UNL     1       1.264   8.451  20.219  0.00  0.00    +0.000 A 
ATOM      7  C   UNL     1       2.165   7.390  19.959  0.00  0.00    +0.000 A 
ATOM      8  C   UNL     1       2.817   7.281  18.740  0.00  0.00    +0.000 A 
ATOM      9  C   UNL     1       2.540   8.224  17.751  0.00  0.00    +0.000 A 
ATOM     10  C   UNL     1       1.667   9.284  17.998  0.00  0.00    +0.000 A 
ATOM     11  C   UNL     1       1.032   9.451  19.242  0.00  0.00    +0.000 A 
BRANCH  11  12
ATOM     12  N   UNL     1       0.236  10.623  19.456  0.00  0.00    +0.000 N 
ATOM     13  C   UNL     1      -1.147  10.704  19.045  0.00  0.00    +0.000 C 
ATOM     14  C   UNL     1      -1.580  12.105  19.419  0.00  0.00    +0.000 C 
ATOM     15  C   UNL     1      -0.757  12.411  20.648  0.00  0.00    +0.000 C 
ATOM     16  C   UNL     1       0.504  11.615  20.423  0.00  0.00    +0.000 C 
ATOM     17  O   UNL     1       1.539  11.829  21.038  0.00  0.00    +0.000 OA
ENDBRANCH  11  12
ENDBRANCH   1   8
BRANCH   2  18
ATOM     18  C   UNL     1       4.853   4.375  17.476  0.00  0.00    +0.000 C 
ATOM     19  C   UNL     1       5.991   5.354  17.783  0.00  0.00    +0.000 C 
ATOM     20  C   UNL     1       6.552   5.723  16.447  0.00  0.00    +0.000 C 
ATOM     21  O   UNL     1       7.365   6.614  16.265  0.00  0.00    +0.000 OA
ATOM     22  N   UNL     1       6.094   4.817  15.513  0.00  0.00    +0.000 N 
ATOM     23  C   UNL     1       5.116   3.893  16.054  0.00  0.00    +0.000 C 
BRANCH  22  24
ATOM     24  C   UNL     1       6.888   4.521  14.332  0.00  0.00    +0.000 C 
BRANCH  24  25
ATOM     25  C   UNL     1       6.168   3.800  13.226  0.00  0.00    +0.000 A 
ATOM     26  C   UNL     1       4.856   4.127  12.865  0.00  0.00    +0.000 A 
ATOM     27  C   UNL     1       4.223   3.460  11.816  0.00  0.00    +0.000 A 
ATOM     28  C   UNL     1       4.906   2.480  11.098  0.00  0.00    +0.000 A 
ATOM     29  C   UNL     1       6.229   2.179  11.414  0.00  0.00    +0.000 A 
ATOM     30  C   UNL     1       6.859   2.842  12.468  0.00  0.00    +0.000 A 
ENDBRANCH  24  25
ENDBRANCH  22  24
ENDBRANCH   2  18
TORSDOF 5
ENDMDL
MODEL 9
REMARK VINA RESULT:      -8.6      0.736      1.121
REMARK  Name = 
REMARK  6 active torsions:
REMARK  status: ('A' for Active; 'I' for Inactive)
REMARK    1  A    between atoms: C_1  and  C_2
REMARK    2  A    between atoms: C_4  and  N_5
REMARK    3  A    between atoms: C_6  and  C_8
REMARK    4  A    between atoms: N_12  and  C_13
REMARK    5  A    between atoms: C_13  and  C_14
REMARK    6  A    between atoms: C_23  and  N_24
REMARK                            x       y       z     vdW  Elec       q    Type
REMARK                         _______ _______ _______ _____ _____    ______ ____
ROOT
ATOM      1  N   UNL     1       8.244   7.905  18.607  0.00  0.00    +0.000 N 
ATOM      2  C   UNL     1       7.344   7.234  17.785  0.00  0.00    +0.000 C 
ATOM      3  O   UNL     1       6.599   7.728  16.947  0.00  0.00    +0.000 OA
ATOM      4  H   UNL     1       8.724   7.339  19.295  0.00  0.00    +0.000 HD
ENDROOT
BRANCH   1   8
ATOM      5  C   UNL     1      10.720  11.717  20.547  0.00  0.00    +0.000 C 
ATOM      6  C   UNL     1       9.860  11.199  19.426  0.00  0.00    +0.000 A 
ATOM      7  C   UNL     1       9.502   9.831  19.516  0.00  0.00    +0.000 A 
ATOM      8  C   UNL     1       8.644   9.250  18.595  0.00  0.00    +0.000 A 
ATOM      9  C   UNL     1       8.105  10.050  17.589  0.00  0.00    +0.000 A 
ATOM     10  C   UNL     1       8.461  11.395  17.478  0.00  0.00    +0.000 A 
ATOM     11  C   UNL     1       9.369  11.999  18.364  0.00  0.00    +0.000 A 
BRANCH  11  12
ATOM     12  N   UNL     1       9.770  13.354  18.121  0.00  0.00    +0.000 N 
ATOM     13  C   UNL     1       9.171  14.473  18.811  0.00  0.00    +0.000 C 
ATOM     14  C   UNL     1       9.848  15.695  18.228  0.00  0.00    +0.000 C 
ATOM     15  C   UNL     1      11.234  15.199  17.889  0.00  0.00    +0.000 C 
ATOM     16  C   UNL     1      11.009  13.742  17.570  0.00  0.00    +0.000 C 
ATOM     17  O   UNL     1      11.825  13.067  16.960  0.00  0.00    +0.000 OA
ENDBRANCH  11  12
ENDBRANCH   1   8
BRANCH   2  18
ATOM     18  C   UNL     1       7.378   5.737  18.095  0.00  0.00    +0.000 C 
ATOM     19  C   UNL     1       7.608   4.957  16.797  0.00  0.00    +0.000 C 
ATOM     20  C   UNL     1       6.304   4.278  16.520  0.00  0.00    +0.000 C 
ATOM     21  O   UNL     1       6.039   3.697  15.480  0.00  0.00    +0.000 OA
ATOM     22  N   UNL     1       5.535   4.319  17.664  0.00  0.00    +0.000 N 
ATOM     23  C   UNL     1       6.135   5.113  18.719  0.00  0.00    +0.000 C 
BRANCH  22  24
ATOM     24  C   UNL     1       4.553   3.279  17.922  0.00  0.00    +0.000 C 
BRANCH  24  25
ATOM     25  C   UNL     1       3.589   3.557  19.042  0.00  0.00    +0.000 A 
ATOM     26  C   UNL     1       2.604   4.545  18.939  0.00  0.00    +0.000 A 
ATOM     27  C   UNL     1       1.705   4.760  19.985  0.00  0.00    +0.000 A 
ATOM     28  C   UNL     1       1.765   3.970  21.131  0.00  0.00    +0.000 A 
ATOM     29  C   UNL     1       2.708   2.950  21.226  0.00  0.00    +0.000 A 
ATOM     30  C   UNL     1       3.611   2.739  20.183  0.00  0.00    +0.000 A 
ENDBRANCH  24  25
ENDBRANCH  22  24
ENDBRANCH   2  18
TORSDOF 5
ENDMDL
