MODEL 1
REMARK VINA RESULT:      -8.0      0.000      0.000
REMARK  Name = 
REMARK  5 active torsions:
REMARK  status: ('A' for Active; 'I' for Inactive)
REMARK    1  A    between atoms: C_1  and  N_2
REMARK    2  A    between atoms: N_2  and  C_3
REMARK    3  A    between atoms: N_2  and  C_15
REMARK    4  A    between atoms: C_3  and  C_4
REMARK    5  A    between atoms: C_15  and  C_16
REMARK                            x       y       z     vdW  Elec       q    Type
REMARK                         _______ _______ _______ _____ _____    ______ ____
ROOT
ATOM      1  C   UNL     1       1.461   3.024  18.803  0.00  0.00    +0.000 C 
ATOM      2  N   UNL     1       2.538   4.032  18.780  0.00  0.00    +0.000 NA
ENDROOT
BRANCH   2   3
ATOM      3  C   UNL     1       2.624   4.708  20.101  0.00  0.00    +0.000 C 
BRANCH   3   4
ATOM      4  C   UNL     1       2.224   6.174  20.012  0.00  0.00    +0.000 A 
ATOM      5  N   UNL     1       2.400   6.842  18.916  0.00  0.00    +0.000 NA
ATOM      6  C   UNL     1       1.994   8.187  18.892  0.00  0.00    +0.000 A 
ATOM      7  C   UNL     1       2.174   8.922  17.719  0.00  0.00    +0.000 A 
ATOM      8  C   UNL     1       1.774  10.260  17.650  0.00  0.00    +0.000 A 
ATOM      9  C   UNL     1       1.193  10.876  18.759  0.00  0.00    +0.000 A 
ATOM     10  C   UNL     1       1.014  10.156  19.941  0.00  0.00    +0.000 A 
ATOM     11  C   UNL     1       1.416   8.818  19.996  0.00  0.00    +0.000 A 
ATOM     12  C   UNL     1       1.249   8.019  21.225  0.00  0.00    +0.000 A 
ATOM     13  O   UNL     1       0.778   8.493  22.252  0.00  0.00    +0.000 OA
ATOM     14  N   UNL     1       1.662   6.713  21.139  0.00  0.00    +0.000 N 
ATOM     15  H   UNL     1       1.615   6.159  21.983  0.00  0.00    +0.000 HD
ENDBRANCH   3   4
ENDBRANCH   2   3
BRANCH   2  16
ATOM     16  C   UNL     1       3.843   3.355  18.540  0.00  0.00    +0.000 C 
BRANCH  16  17
ATOM     17  C   UNL     1       4.741   4.065  17.542  0.00  0.00    +0.000 A 
ATOM     18  C   UNL     1       4.457   3.956  16.167  0.00  0.00    +0.000 A 
ATOM     19  C   UNL     1       5.272   4.580  15.239  0.00  0.00    +0.000 A 
ATOM     20  F   UNL     1       5.001   4.466  13.933  0.00  0.00    +0.000 F 
ATOM     21  C   UNL     1       6.368   5.325  15.647  0.00  0.00    +0.000 A 
ATOM     22  C   UNL     1       6.647   5.463  17.015  0.00  0.00    +0.000 A 
ATOM     23  C   UNL     1       7.734   6.232  17.450  0.00  0.00    +0.000 A 
ATOM     24  C   UNL     1       7.985   6.374  18.807  0.00  0.00    +0.000 A 
ATOM     25  C   UNL     1       7.141   5.729  19.687  0.00  0.00    +0.000 A 
ATOM     26  N   UNL     1       6.089   4.973  19.303  0.00  0.00    +0.000 NA
ATOM     27  C   UNL     1       5.830   4.835  17.986  0.00  0.00    +0.000 A 
ENDBRANCH  16  17
ENDBRANCH   2  16
TORSDOF 4
ENDMDL
MODEL 2
REMARK VINA RESULT:      -7.9      1.302      1.938
REMARK  Name = 
REMARK  5 active torsions:
REMARK  status: ('A' for Active; 'I' for Inactive)
REMARK    1  A    between atoms: C_1  and  N_2
REMARK    2  A    between atoms: N_2  and  C_3
REMARK    3  A    between atoms: N_2  and  C_15
REMARK    4  A    between atoms: C_3  and  C_4
REMARK    5  A    between atoms: C_15  and  C_16
REMARK                            x       y       z     vdW  Elec       q    Type
REMARK                         _______ _______ _______ _____ _____    ______ ____
ROOT
ATOM      1  C   UNL     1       2.051   2.058  18.643  0.00  0.00    +0.000 C 
ATOM      2  N   UNL     1       2.814   3.319  18.720  0.00  0.00    +0.000 NA
ENDROOT
BRANCH   2   3
ATOM      3  C   UNL     1       2.574   3.974  20.032  0.00  0.00    +0.000 C 
BRANCH   3   4
ATOM      4  C   UNL     1       2.246   5.452  19.874  0.00  0.00    +0.000 A 
ATOM      5  N   UNL     1       1.613   6.091  20.806  0.00  0.00    +0.000 NA
ATOM      6  C   UNL     1       1.356   7.458  20.608  0.00  0.00    +0.000 A 
ATOM      7  C   UNL     1       0.676   8.164  21.603  0.00  0.00    +0.000 A 
ATOM      8  C   UNL     1       0.409   9.529  21.449  0.00  0.00    +0.000 A 
ATOM      9  C   UNL     1       0.819  10.198  20.296  0.00  0.00    +0.000 A 
ATOM     10  C   UNL     1       1.493   9.503  19.290  0.00  0.00    +0.000 A 
ATOM     11  C   UNL     1       1.755   8.140  19.456  0.00  0.00    +0.000 A 
ATOM     12  C   UNL     1       2.461   7.365  18.419  0.00  0.00    +0.000 A 
ATOM     13  O   UNL     1       2.824   7.869  17.362  0.00  0.00    +0.000 OA
ATOM     14  N   UNL     1       2.677   6.043  18.716  0.00  0.00    +0.000 N 
ATOM     15  H   UNL     1       3.105   5.473  17.999  0.00  0.00    +0.000 HD
ENDBRANCH   3   4
ENDBRANCH   2   3
BRANCH   2  16
ATOM     16  C   UNL     1       4.270   3.022  18.629  0.00  0.00    +0.000 C 
BRANCH  16  17
ATOM     17  C   UNL     1       5.012   3.842  17.589  0.00  0.00    +0.000 A 
ATOM     18  C   UNL     1       4.668   3.700  16.232  0.00  0.00    +0.000 A 
ATOM     19  C   UNL     1       5.343   4.426  15.265  0.00  0.00    +0.000 A 
ATOM     20  F   UNL     1       5.016   4.280  13.976  0.00  0.00    +0.000 F 
ATOM     21  C   UNL     1       6.355   5.305  15.618  0.00  0.00    +0.000 A 
ATOM     22  C   UNL     1       6.689   5.476  16.970  0.00  0.00    +0.000 A 
ATOM     23  C   UNL     1       7.692   6.378  17.351  0.00  0.00    +0.000 A 
ATOM     24  C   UNL     1       7.997   6.549  18.694  0.00  0.00    +0.000 A 
ATOM     25  C   UNL     1       7.294   5.799  19.613  0.00  0.00    +0.000 A 
ATOM     26  N   UNL     1       6.328   4.914  19.281  0.00  0.00    +0.000 NA
ATOM     27  C   UNL     1       6.016   4.746  17.979  0.00  0.00    +0.000 A 
ENDBRANCH  16  17
ENDBRANCH   2  16
TORSDOF 4
ENDMDL
MODEL 3
REMARK VINA RESULT:      -7.7      2.025      3.205
REMARK  Name = 
REMARK  5 active torsions:
REMARK  status: ('A' for Active; 'I' for Inactive)
REMARK    1  A    between atoms: C_1  and  N_2
REMARK    2  A    between atoms: N_2  and  C_3
REMARK    3  A    between atoms: N_2  and  C_15
REMARK    4  A    between atoms: C_3  and  C_4
REMARK    5  A    between atoms: C_15  and  C_16
REMARK                            x       y       z     vdW  Elec       q    Type
REMARK                         _______ _______ _______ _____ _____    ______ ____
ROOT
ATOM      1  C   UNL     1       2.104   3.737  18.084  0.00  0.00    +0.000 C 
ATOM      2  N   UNL     1       3.109   4.698  18.577  0.00  0.00    +0.000 NA
ENDROOT
BRANCH   2   3
ATOM      3  C   UNL     1       2.722   5.185  19.926  0.00  0.00    +0.000 C 
BRANCH   3   4
ATOM      4  C   UNL     1       2.180   6.607  19.880  0.00  0.00    +0.000 A 
ATOM      5  N   UNL     1       1.568   7.114  20.903  0.00  0.00    +0.000 NA
ATOM      6  C   UNL     1       1.108   8.438  20.804  0.00  0.00    +0.000 A 
ATOM      7  C   UNL     1       0.447   9.002  21.898  0.00  0.00    +0.000 A 
ATOM      8  C   UNL     1      -0.018  10.320  21.844  0.00  0.00    +0.000 A 
ATOM      9  C   UNL     1       0.169  11.084  20.691  0.00  0.00    +0.000 A 
ATOM     10  C   UNL     1       0.821  10.530  19.588  0.00  0.00    +0.000 A 
ATOM     11  C   UNL     1       1.283   9.212  19.655  0.00  0.00    +0.000 A 
ATOM     12  C   UNL     1       1.973   8.585  18.512  0.00  0.00    +0.000 A 
ATOM     13  O   UNL     1       2.149   9.175  17.453  0.00  0.00    +0.000 OA
ATOM     14  N   UNL     1       2.399   7.297  18.716  0.00  0.00    +0.000 N 
ATOM     15  H   UNL     1       2.822   6.821  17.931  0.00  0.00    +0.000 HD
ENDBRANCH   3   4
ENDBRANCH   2   3
BRANCH   2  16
ATOM     16  C   UNL     1       4.425   4.013  18.710  0.00  0.00    +0.000 C 
BRANCH  16  17
ATOM     17  C   UNL     1       5.586   4.760  18.078  0.00  0.00    +0.000 A 
ATOM     18  C   UNL     1       6.396   5.577  18.889  0.00  0.00    +0.000 A 
ATOM     19  C   UNL     1       7.450   6.281  18.329  0.00  0.00    +0.000 A 
ATOM     20  F   UNL     1       8.212   7.062  19.104  0.00  0.00    +0.000 F 
ATOM     21  C   UNL     1       7.726   6.184  16.975  0.00  0.00    +0.000 A 
ATOM     22  C   UNL     1       6.942   5.352  16.162  0.00  0.00    +0.000 A 
ATOM     23  C   UNL     1       7.219   5.220  14.794  0.00  0.00    +0.000 A 
ATOM     24  C   UNL     1       6.446   4.379  14.008  0.00  0.00    +0.000 A 
ATOM     25  C   UNL     1       5.409   3.703  14.616  0.00  0.00    +0.000 A 
ATOM     26  N   UNL     1       5.108   3.813  15.929  0.00  0.00    +0.000 NA
ATOM     27  C   UNL     1       5.858   4.622  16.706  0.00  0.00    +0.000 A 
ENDBRANCH  16  17
ENDBRANCH   2  16
TORSDOF 4
ENDMDL
MODEL 4
REMARK VINA RESULT:      -7.7      1.661      2.515
REMARK  Name = 
REMARK  5 active torsions:
REMARK  status: ('A' for Active; 'I' for Inactive)
REMARK    1  A    between atoms: C_1  and  N_2
REMARK    2  A    between atoms: N_2  and  C_3
REMARK    3  A    between atoms: N_2  and  C_15
REMARK    4  A    between atoms: C_3  and  C_4
REMARK    5  A    between atoms: C_15  and  C_16
REMARK                            x       y       z     vdW  Elec       q    Type
REMARK                         _______ _______ _______ _____ _____    ______ ____
ROOT
ATOM      1  C   UNL     1       1.539   3.409  18.438  0.00  0.00    +0.000 C 
ATOM      2  N   UNL     1       2.710   4.277  18.672  0.00  0.00    +0.000 NA
ENDROOT
BRANCH   2   3
ATOM      3  C   UNL     1       2.631   4.874  20.030  0.00  0.00    +0.000 C 
BRANCH   3   4
ATOM      4  C   UNL     1       2.206   6.335  19.981  0.00  0.00    +0.000 A 
ATOM      5  N   UNL     1       2.411   7.047  18.919  0.00  0.00    +0.000 NA
ATOM      6  C   UNL     1       1.979   8.384  18.930  0.00  0.00    +0.000 A 
ATOM      7  C   UNL     1       2.191   9.168  17.793  0.00  0.00    +0.000 A 
ATOM      8  C   UNL     1       1.767  10.500  17.760  0.00  0.00    +0.000 A 
ATOM      9  C   UNL     1       1.130  11.062  18.867  0.00  0.00    +0.000 A 
ATOM     10  C   UNL     1       0.920  10.293  20.013  0.00  0.00    +0.000 A 
ATOM     11  C   UNL     1       1.346   8.962  20.033  0.00  0.00    +0.000 A 
ATOM     12  C   UNL     1       1.148   8.113  21.223  0.00  0.00    +0.000 A 
ATOM     13  O   UNL     1       0.628   8.538  22.248  0.00  0.00    +0.000 OA
ATOM     14  N   UNL     1       1.589   6.819  21.104  0.00  0.00    +0.000 N 
ATOM     15  H   UNL     1       1.521   6.232  21.924  0.00  0.00    +0.000 HD
ENDBRANCH   3   4
ENDBRANCH   2   3
BRANCH   2  16
ATOM     16  C   UNL     1       3.952   3.456  18.616  0.00  0.00    +0.000 C 
BRANCH  16  17
ATOM     17  C   UNL     1       5.209   4.247  18.300  0.00  0.00    +0.000 A 
ATOM     18  C   UNL     1       5.928   4.840  19.355  0.00  0.00    +0.000 A 
ATOM     19  C   UNL     1       7.068   5.579  19.087  0.00  0.00    +0.000 A 
ATOM     20  F   UNL     1       7.743   6.146  20.094  0.00  0.00    +0.000 F 
ATOM     21  C   UNL     1       7.520   5.737  17.787  0.00  0.00    +0.000 A 
ATOM     22  C   UNL     1       6.827   5.129  16.729  0.00  0.00    +0.000 A 
ATOM     23  C   UNL     1       7.281   5.255  15.409  0.00  0.00    +0.000 A 
ATOM     24  C   UNL     1       6.595   4.632  14.377  0.00  0.00    +0.000 A 
ATOM     25  C   UNL     1       5.465   3.909  14.701  0.00  0.00    +0.000 A 
ATOM     26  N   UNL     1       4.995   3.774  15.961  0.00  0.00    +0.000 NA
ATOM     27  C   UNL     1       5.658   4.368  16.974  0.00  0.00    +0.000 A 
ENDBRANCH  16  17
ENDBRANCH   2  16
TORSDOF 4
ENDMDL
MODEL 5
REMARK VINA RESULT:      -7.5      3.178      4.414
REMARK  Name = 
REMARK  5 active torsions:
REMARK  status: ('A' for Active; 'I' for Inactive)
REMARK    1  A    between atoms: C_1  and  N_2
REMARK    2  A    between atoms: N_2  and  C_3
REMARK    3  A    between atoms: N_2  and  C_15
REMARK    4  A    between atoms: C_3  and  C_4
REMARK    5  A    between atoms: C_15  and  C_16
REMARK                            x       y       z     vdW  Elec       q    Type
REMARK                         _______ _______ _______ _____ _____    ______ ____
ROOT
ATOM      1  C   UNL     1       1.742   8.222  20.040  0.00  0.00    +0.000 C 
ATOM      2  N   UNL     1       1.907   8.180  18.574  0.00  0.00    +0.000 NA
ENDROOT
BRANCH   2   3
ATOM      3  C   UNL     1       1.847   9.558  18.021  0.00  0.00    +0.000 C 
BRANCH   3   4
ATOM      4  C   UNL     1       0.500  10.215  18.285  0.00  0.00    +0.000 A 
ATOM      5  N   UNL     1      -0.577   9.762  17.727  0.00  0.00    +0.000 NA
ATOM      6  C   UNL     1      -1.792  10.401  18.025  0.00  0.00    +0.000 A 
ATOM      7  C   UNL     1      -2.964   9.925  17.434  0.00  0.00    +0.000 A 
ATOM      8  C   UNL     1      -4.196  10.527  17.712  0.00  0.00    +0.000 A 
ATOM      9  C   UNL     1      -4.264  11.615  18.584  0.00  0.00    +0.000 A 
ATOM     10  C   UNL     1      -3.099  12.105  19.176  0.00  0.00    +0.000 A 
ATOM     11  C   UNL     1      -1.875  11.494  18.891  0.00  0.00    +0.000 A 
ATOM     12  C   UNL     1      -0.618  11.981  19.491  0.00  0.00    +0.000 A 
ATOM     13  O   UNL     1      -0.586  12.951  20.240  0.00  0.00    +0.000 OA
ATOM     14  N   UNL     1       0.509  11.278  19.149  0.00  0.00    +0.000 N 
ATOM     15  H   UNL     1       1.392  11.626  19.498  0.00  0.00    +0.000 HD
ENDBRANCH   3   4
ENDBRANCH   2   3
BRANCH   2  16
ATOM     16  C   UNL     1       3.249   7.625  18.243  0.00  0.00    +0.000 C 
BRANCH  16  17
ATOM     17  C   UNL     1       3.238   6.161  17.840  0.00  0.00    +0.000 A 
ATOM     18  C   UNL     1       2.091   5.388  18.102  0.00  0.00    +0.000 A 
ATOM     19  C   UNL     1       2.066   4.047  17.758  0.00  0.00    +0.000 A 
ATOM     20  F   UNL     1       0.975   3.315  18.018  0.00  0.00    +0.000 F 
ATOM     21  C   UNL     1       3.158   3.452  17.146  0.00  0.00    +0.000 A 
ATOM     22  C   UNL     1       4.296   4.219  16.854  0.00  0.00    +0.000 A 
ATOM     23  C   UNL     1       5.401   3.644  16.212  0.00  0.00    +0.000 A 
ATOM     24  C   UNL     1       6.512   4.420  15.915  0.00  0.00    +0.000 A 
ATOM     25  C   UNL     1       6.483   5.750  16.281  0.00  0.00    +0.000 A 
ATOM     26  N   UNL     1       5.439   6.335  16.909  0.00  0.00    +0.000 NA
ATOM     27  C   UNL     1       4.350   5.592  17.196  0.00  0.00    +0.000 A 
ENDBRANCH  16  17
ENDBRANCH   2  16
TORSDOF 4
ENDMDL
MODEL 6
REMARK VINA RESULT:      -7.5      3.344      4.691
REMARK  Name = 
REMARK  5 active torsions:
REMARK  status: ('A' for Active; 'I' for Inactive)
REMARK    1  A    between atoms: C_1  and  N_2
REMARK    2  A    between atoms: N_2  and  C_3
REMARK    3  A    between atoms: N_2  and  C_15
REMARK    4  A    between atoms: C_3  and  C_4
REMARK    5  A    between atoms: C_15  and  C_16
REMARK                            x       y       z     vdW  Elec       q    Type
REMARK                         _______ _______ _______ _____ _____    ______ ____
ROOT
ATOM      1  C   UNL     1       1.728   8.208  20.115  0.00  0.00    +0.000 C 
ATOM      2  N   UNL     1       1.775   8.283  18.642  0.00  0.00    +0.000 NA
ENDROOT
BRANCH   2   3
ATOM      3  C   UNL     1       1.641   9.696  18.204  0.00  0.00    +0.000 C 
BRANCH   3   4
ATOM      4  C   UNL     1       0.205  10.188  18.314  0.00  0.00    +0.000 A 
ATOM      5  N   UNL     1      -0.154  10.967  19.285  0.00  0.00    +0.000 NA
ATOM      6  C   UNL     1      -1.490  11.402  19.320  0.00  0.00    +0.000 A 
ATOM      7  C   UNL     1      -1.895  12.244  20.359  0.00  0.00    +0.000 A 
ATOM      8  C   UNL     1      -3.213  12.707  20.425  0.00  0.00    +0.000 A 
ATOM      9  C   UNL     1      -4.139  12.327  19.454  0.00  0.00    +0.000 A 
ATOM     10  C   UNL     1      -3.751  11.480  18.415  0.00  0.00    +0.000 A 
ATOM     11  C   UNL     1      -2.430  11.025  18.358  0.00  0.00    +0.000 A 
ATOM     12  C   UNL     1      -1.975  10.126  17.281  0.00  0.00    +0.000 A 
ATOM     13  O   UNL     1      -2.733   9.720  16.408  0.00  0.00    +0.000 OA
ATOM     14  N   UNL     1      -0.650   9.774  17.327  0.00  0.00    +0.000 N 
ATOM     15  H   UNL     1      -0.325   9.112  16.636  0.00  0.00    +0.000 HD
ENDBRANCH   3   4
ENDBRANCH   2   3
BRANCH   2  16
ATOM     16  C   UNL     1       3.097   7.791  18.164  0.00  0.00    +0.000 C 
BRANCH  16  17
ATOM     17  C   UNL     1       3.127   6.313  17.819  0.00  0.00    +0.000 A 
ATOM     18  C   UNL     1       1.989   5.526  18.081  0.00  0.00    +0.000 A 
ATOM     19  C   UNL     1       2.001   4.172  17.789  0.00  0.00    +0.000 A 
ATOM     20  F   UNL     1       0.919   3.428  18.047  0.00  0.00    +0.000 F 
ATOM     21  C   UNL     1       3.122   3.578  17.231  0.00  0.00    +0.000 A 
ATOM     22  C   UNL     1       4.252   4.357  16.940  0.00  0.00    +0.000 A 
ATOM     23  C   UNL     1       5.387   3.782  16.352  0.00  0.00    +0.000 A 
ATOM     24  C   UNL     1       6.489   4.569  16.055  0.00  0.00    +0.000 A 
ATOM     25  C   UNL     1       6.423   5.911  16.368  0.00  0.00    +0.000 A 
ATOM     26  N   UNL     1       5.349   6.497  16.942  0.00  0.00    +0.000 NA
ATOM     27  C   UNL     1       4.268   5.743  17.229  0.00  0.00    +0.000 A 
ENDBRANCH  16  17
ENDBRANCH   2  16
TORSDOF 4
ENDMDL
MODEL 7
REMARK VINA RESULT:      -7.3      3.336      5.189
REMARK  Name = 
REMARK  5 active torsions:
REMARK  status: ('A' for Active; 'I' for Inactive)
REMARK    1  A    between atoms: C_1  and  N_2
REMARK    2  A    between atoms: N_2  and  C_3
REMARK    3  A    between atoms: N_2  and  C_15
REMARK    4  A    between atoms: C_3  and  C_4
REMARK    5  A    between atoms: C_15  and  C_16
REMARK                            x       y       z     vdW  Elec       q    Type
REMARK                         _______ _______ _______ _____ _____    ______ ____
ROOT
ATOM      1  C   UNL     1      -0.040   8.453  21.561  0.00  0.00    +0.000 C 
ATOM      2  N   UNL     1       0.685   8.335  20.281  0.00  0.00    +0.000 NA
ENDROOT
BRANCH   2   3
ATOM      3  C   UNL     1       0.888   9.683  19.690  0.00  0.00    +0.000 C 
BRANCH   3   4
ATOM      4  C   UNL     1      -0.371  10.198  19.010  0.00  0.00    +0.000 A 
ATOM      5  N   UNL     1      -0.723   9.751  17.846  0.00  0.00    +0.000 NA
ATOM      6  C   UNL     1      -1.906  10.253  17.278  0.00  0.00    +0.000 A 
ATOM      7  C   UNL     1      -2.302   9.781  16.024  0.00  0.00    +0.000 A 
ATOM      8  C   UNL     1      -3.479  10.248  15.429  0.00  0.00    +0.000 A 
ATOM      9  C   UNL     1      -4.268  11.195  16.082  0.00  0.00    +0.000 A 
ATOM     10  C   UNL     1      -3.880  11.681  17.332  0.00  0.00    +0.000 A 
ATOM     11  C   UNL     1      -2.703  11.205  17.918  0.00  0.00    +0.000 A 
ATOM     12  C   UNL     1      -2.253  11.692  19.235  0.00  0.00    +0.000 A 
ATOM     13  O   UNL     1      -2.870  12.547  19.860  0.00  0.00    +0.000 OA
ATOM     14  N   UNL     1      -1.096  11.128  19.708  0.00  0.00    +0.000 N 
ATOM     15  H   UNL     1      -0.731  11.485  20.581  0.00  0.00    +0.000 HD
ENDBRANCH   3   4
ENDBRANCH   2   3
BRANCH   2  16
ATOM     16  C   UNL     1       2.032   7.748  20.527  0.00  0.00    +0.000 C 
BRANCH  16  17
ATOM     17  C   UNL     1       2.483   6.753  19.473  0.00  0.00    +0.000 A 
ATOM     18  C   UNL     1       3.286   7.203  18.407  0.00  0.00    +0.000 A 
ATOM     19  C   UNL     1       3.695   6.316  17.425  0.00  0.00    +0.000 A 
ATOM     20  F   UNL     1       4.452   6.751  16.411  0.00  0.00    +0.000 F 
ATOM     21  C   UNL     1       3.329   4.980  17.481  0.00  0.00    +0.000 A 
ATOM     22  C   UNL     1       2.551   4.515  18.552  0.00  0.00    +0.000 A 
ATOM     23  C   UNL     1       2.191   3.163  18.641  0.00  0.00    +0.000 A 
ATOM     24  C   UNL     1       1.437   2.716  19.716  0.00  0.00    +0.000 A 
ATOM     25  C   UNL     1       1.057   3.642  20.664  0.00  0.00    +0.000 A 
ATOM     26  N   UNL     1       1.379   4.954  20.605  0.00  0.00    +0.000 NA
ATOM     27  C   UNL     1       2.119   5.400  19.569  0.00  0.00    +0.000 A 
ENDBRANCH  16  17
ENDBRANCH   2  16
TORSDOF 4
ENDMDL
MODEL 8
REMARK VINA RESULT:      -7.3      3.549      5.123
REMARK  Name = 
REMARK  5 active torsions:
REMARK  status: ('A' for Active; 'I' for Inactive)
REMARK    1  A    between atoms: C_1  and  N_2
REMARK    2  A    between atoms: N_2  and  C_3
REMARK    3  A    between atoms: N_2  and  C_15
REMARK    4  A    between atoms: C_3  and  C_4
REMARK    5  A    between atoms: C_15  and  C_16
REMARK                            x       y       z     vdW  Elec       q    Type
REMARK                         _______ _______ _______ _____ _____    ______ ____
ROOT
ATOM      1  C   UNL     1       1.021   8.485  21.370  0.00  0.00    +0.000 C 
ATOM      2  N   UNL     1       1.206   8.429  19.907  0.00  0.00    +0.000 NA
ENDROOT
BRANCH   2   3
ATOM      3  C   UNL     1       1.259   9.806  19.353  0.00  0.00    +0.000 C 
BRANCH   3   4
ATOM      4  C   UNL     1      -0.108  10.278  18.880  0.00  0.00    +0.000 A 
ATOM      5  N   UNL     1      -0.590   9.877  17.746  0.00  0.00    +0.000 NA
ATOM      6  C   UNL     1      -1.865  10.335  17.374  0.00  0.00    +0.000 A 
ATOM      7  C   UNL     1      -2.401   9.911  16.156  0.00  0.00    +0.000 A 
ATOM      8  C   UNL     1      -3.672  10.336  15.753  0.00  0.00    +0.000 A 
ATOM      9  C   UNL     1      -4.416  11.191  16.566  0.00  0.00    +0.000 A 
ATOM     10  C   UNL     1      -3.890  11.628  17.782  0.00  0.00    +0.000 A 
ATOM     11  C   UNL     1      -2.619  11.196  18.175  0.00  0.00    +0.000 A 
ATOM     12  C   UNL     1      -2.021  11.635  19.450  0.00  0.00    +0.000 A 
ATOM     13  O   UNL     1      -2.594  12.411  20.205  0.00  0.00    +0.000 OA
ATOM     14  N   UNL     1      -0.781  11.118  19.727  0.00  0.00    +0.000 N 
ATOM     15  H   UNL     1      -0.322  11.448  20.565  0.00  0.00    +0.000 HD
ENDBRANCH   3   4
ENDBRANCH   2   3
BRANCH   2  16
ATOM     16  C   UNL     1       2.507   7.773  19.598  0.00  0.00    +0.000 C 
BRANCH  16  17
ATOM     17  C   UNL     1       2.423   6.268  19.423  0.00  0.00    +0.000 A 
ATOM     18  C   UNL     1       1.557   5.529  20.252  0.00  0.00    +0.000 A 
ATOM     19  C   UNL     1       1.477   4.153  20.120  0.00  0.00    +0.000 A 
ATOM     20  F   UNL     1       0.658   3.456  20.917  0.00  0.00    +0.000 F 
ATOM     21  C   UNL     1       2.236   3.488  19.170  0.00  0.00    +0.000 A 
ATOM     22  C   UNL     1       3.082   4.215  18.320  0.00  0.00    +0.000 A 
ATOM     23  C   UNL     1       3.839   3.565  17.335  0.00  0.00    +0.000 A 
ATOM     24  C   UNL     1       4.656   4.301  16.490  0.00  0.00    +0.000 A 
ATOM     25  C   UNL     1       4.698   5.668  16.667  0.00  0.00    +0.000 A 
ATOM     26  N   UNL     1       3.989   6.327  17.610  0.00  0.00    +0.000 NA
ATOM     27  C   UNL     1       3.184   5.623  18.433  0.00  0.00    +0.000 A 
ENDBRANCH  16  17
ENDBRANCH   2  16
TORSDOF 4
ENDMDL
MODEL 9
REMARK VINA RESULT:      -7.2      3.677      7.275
REMARK  Name = 
REMARK  5 active torsions:
REMARK  status: ('A' for Active; 'I' for Inactive)
REMARK    1  A    between atoms: C_1  and  N_2
REMARK    2  A    between atoms: N_2  and  C_3
REMARK    3  A    between atoms: N_2  and  C_15
REMARK    4  A    between atoms: C_3  and  C_4
REMARK    5  A    between atoms: C_15  and  C_16
REMARK                            x       y       z     vdW  Elec       q    Type
REMARK                         _______ _______ _______ _____ _____    ______ ____
ROOT
ATOM      1  C   UNL     1       7.801   6.742  18.410  0.00  0.00    +0.000 C 
ATOM      2  N   UNL     1       6.700   5.899  17.906  0.00  0.00    +0.000 NA
ENDROOT
BRANCH   2   3
ATOM      3  C   UNL     1       7.247   4.634  17.350  0.00  0.00    +0.000 C 
BRANCH   3   4
ATOM      4  C   UNL     1       7.099   4.570  15.837  0.00  0.00    +0.000 A 
ATOM      5  N   UNL     1       6.154   3.869  15.295  0.00  0.00    +0.000 NA
ATOM      6  C   UNL     1       6.059   3.865  13.893  0.00  0.00    +0.000 A 
ATOM      7  C   UNL     1       5.045   3.116  13.291  0.00  0.00    +0.000 A 
ATOM      8  C   UNL     1       4.910   3.093  11.899  0.00  0.00    +0.000 A 
ATOM      9  C   UNL     1       5.792   3.817  11.097  0.00  0.00    +0.000 A 
ATOM     10  C   UNL     1       6.814   4.564  11.685  0.00  0.00    +0.000 A 
ATOM     11  C   UNL     1       6.938   4.580  13.077  0.00  0.00    +0.000 A 
ATOM     12  C   UNL     1       8.005   5.352  13.742  0.00  0.00    +0.000 A 
ATOM     13  O   UNL     1       8.840   5.988  13.109  0.00  0.00    +0.000 OA
ATOM     14  N   UNL     1       8.000   5.304  15.113  0.00  0.00    +0.000 N 
ATOM     15  H   UNL     1       8.755   5.775  15.593  0.00  0.00    +0.000 HD
ENDBRANCH   3   4
ENDBRANCH   2   3
BRANCH   2  16
ATOM     16  C   UNL     1       5.797   5.537  19.034  0.00  0.00    +0.000 C 
BRANCH  16  17
ATOM     17  C   UNL     1       4.326   5.482  18.664  0.00  0.00    +0.000 A 
ATOM     18  C   UNL     1       3.660   6.674  18.322  0.00  0.00    +0.000 A 
ATOM     19  C   UNL     1       2.314   6.648  17.998  0.00  0.00    +0.000 A 
ATOM     20  F   UNL     1       1.685   7.787  17.681  0.00  0.00    +0.000 F 
ATOM     21  C   UNL     1       1.609   5.455  17.997  0.00  0.00    +0.000 A 
ATOM     22  C   UNL     1       2.267   4.257  18.311  0.00  0.00    +0.000 A 
ATOM     23  C   UNL     1       1.579   3.035  18.291  0.00  0.00    +0.000 A 
ATOM     24  C   UNL     1       2.249   1.857  18.586  0.00  0.00    +0.000 A 
ATOM     25  C   UNL     1       3.589   1.941  18.902  0.00  0.00    +0.000 A 
ATOM     26  N   UNL     1       4.281   3.102  18.939  0.00  0.00    +0.000 NA
ATOM     27  C   UNL     1       3.642   4.254  18.646  0.00  0.00    +0.000 A 
ENDBRANCH  16  17
ENDBRANCH   2  16
TORSDOF 4
ENDMDL
