MODEL 1
REMARK VINA RESULT:      -9.0      0.000      0.000
REMARK  Name = 
REMARK  6 active torsions:
REMARK  status: ('A' for Active; 'I' for Inactive)
REMARK    1  A    between atoms: C_1  and  C_2
REMARK    2  A    between atoms: C_2  and  C_3
REMARK    3  A    between atoms: N_7  and  C_8
REMARK    4  A    between atoms: C_13  and  N_14
REMARK    5  A    between atoms: C_15  and  C_17
REMARK    6  A    between atoms: C_21  and  N_22
REMARK                            x       y       z     vdW  Elec       q    Type
REMARK                         _______ _______ _______ _____ _____    ______ ____
ROOT
ATOM      1  N   UNL     1       2.366   5.923  18.222  0.00  0.00    +0.000 N 
ATOM      2  C   UNL     1       2.134   6.677  19.360  0.00  0.00    +0.000 C 
ATOM      3  O   UNL     1       2.105   6.214  20.496  0.00  0.00    +0.000 OA
ATOM      4  H   UNL     1       2.572   6.375  17.344  0.00  0.00    +0.000 HD
ENDROOT
BRANCH   1  10
ATOM      5  C   UNL     1       3.973   4.036  18.349  0.00  0.00    +0.000 A 
ATOM      6  C   UNL     1       4.148   2.644  18.285  0.00  0.00    +0.000 A 
ATOM      7  C   UNL     1       3.044   1.789  18.223  0.00  0.00    +0.000 A 
ATOM      8  C   UNL     1       1.751   2.306  18.246  0.00  0.00    +0.000 A 
ATOM      9  C   UNL     1       1.558   3.683  18.306  0.00  0.00    +0.000 A 
ATOM     10  C   UNL     1       2.656   4.549  18.329  0.00  0.00    +0.000 A 
BRANCH   5  15
ATOM     11  C   UNL     1       5.794   5.748  17.732  0.00  0.00    +0.000 A 
ATOM     12  N   UNL     1       6.926   6.081  18.326  0.00  0.00    +0.000 NA
ATOM     13  N   UNL     1       6.903   5.506  19.559  0.00  0.00    +0.000 NA
ATOM     14  N   UNL     1       5.792   4.817  19.740  0.00  0.00    +0.000 NA
ATOM     15  N   UNL     1       5.090   4.885  18.576  0.00  0.00    +0.000 N 
BRANCH  11  17
ATOM     16  C   UNL     1       5.631   5.308  15.279  0.00  0.00    +0.000 C 
ATOM     17  C   UNL     1       5.342   6.279  16.416  0.00  0.00    +0.000 C 
ENDBRANCH  11  17
ENDBRANCH   5  15
ENDBRANCH   1  10
BRANCH   2  18
ATOM     18  C   UNL     1       1.880   8.134  19.162  0.00  0.00    +0.000 A 
ATOM     19  C   UNL     1       2.352   8.866  18.070  0.00  0.00    +0.000 A 
ATOM     20  C   UNL     1       2.027  10.219  17.959  0.00  0.00    +0.000 A 
ATOM     21  C   UNL     1       1.227  10.838  18.928  0.00  0.00    +0.000 A 
ATOM     22  C   UNL     1       0.737  10.122  20.025  0.00  0.00    +0.000 A 
ATOM     23  C   UNL     1       1.100   8.773  20.139  0.00  0.00    +0.000 A 
BRANCH  22  24
ATOM     24  N   UNL     1      -0.142  10.706  20.973  0.00  0.00    +0.000 N 
ATOM     25  C   UNL     1      -1.262  11.533  20.584  0.00  0.00    +0.000 C 
ATOM     26  C   UNL     1      -1.584  12.328  21.830  0.00  0.00    +0.000 C 
ATOM     27  C   UNL     1      -1.211  11.384  22.956  0.00  0.00    +0.000 C 
ATOM     28  C   UNL     1      -0.080  10.571  22.367  0.00  0.00    +0.000 C 
ATOM     29  O   UNL     1       0.676   9.892  23.044  0.00  0.00    +0.000 OA
ENDBRANCH  22  24
ENDBRANCH   2  18
TORSDOF 5
ENDMDL
MODEL 2
REMARK VINA RESULT:      -8.8      0.853      1.123
REMARK  Name = 
REMARK  6 active torsions:
REMARK  status: ('A' for Active; 'I' for Inactive)
REMARK    1  A    between atoms: C_1  and  C_2
REMARK    2  A    between atoms: C_2  and  C_3
REMARK    3  A    between atoms: N_7  and  C_8
REMARK    4  A    between atoms: C_13  and  N_14
REMARK    5  A    between atoms: C_15  and  C_17
REMARK    6  A    between atoms: C_21  and  N_22
REMARK                            x       y       z     vdW  Elec       q    Type
REMARK                         _______ _______ _______ _____ _____    ______ ____
ROOT
ATOM      1  N   UNL     1       2.448   5.788  18.171  0.00  0.00    +0.000 N 
ATOM      2  C   UNL     1       2.242   6.523  19.326  0.00  0.00    +0.000 C 
ATOM      3  O   UNL     1       2.272   6.047  20.457  0.00  0.00    +0.000 OA
ATOM      4  H   UNL     1       2.605   6.255  17.291  0.00  0.00    +0.000 HD
ENDROOT
BRANCH   1  10
ATOM      5  C   UNL     1       4.114   3.952  18.279  0.00  0.00    +0.000 A 
ATOM      6  C   UNL     1       4.336   2.567  18.185  0.00  0.00    +0.000 A 
ATOM      7  C   UNL     1       3.261   1.679  18.085  0.00  0.00    +0.000 A 
ATOM      8  C   UNL     1       1.952   2.153  18.099  0.00  0.00    +0.000 A 
ATOM      9  C   UNL     1       1.713   3.521  18.188  0.00  0.00    +0.000 A 
ATOM     10  C   UNL     1       2.782   4.421  18.250  0.00  0.00    +0.000 A 
BRANCH   5  15
ATOM     11  C   UNL     1       5.925   5.694  17.719  0.00  0.00    +0.000 A 
ATOM     12  N   UNL     1       7.018   6.064  18.363  0.00  0.00    +0.000 NA
ATOM     13  N   UNL     1       6.947   5.512  19.604  0.00  0.00    +0.000 NA
ATOM     14  N   UNL     1       5.843   4.800  19.743  0.00  0.00    +0.000 NA
ATOM     15  N   UNL     1       5.199   4.830  18.544  0.00  0.00    +0.000 N 
BRANCH  11  17
ATOM     16  C   UNL     1       5.601   5.095  15.317  0.00  0.00    +0.000 C 
ATOM     17  C   UNL     1       5.527   6.190  16.373  0.00  0.00    +0.000 C 
ENDBRANCH  11  17
ENDBRANCH   5  15
ENDBRANCH   1  10
BRANCH   2  18
ATOM     18  C   UNL     1       1.938   7.974  19.156  0.00  0.00    +0.000 A 
ATOM     19  C   UNL     1       2.252   8.706  18.009  0.00  0.00    +0.000 A 
ATOM     20  C   UNL     1       1.891  10.053  17.934  0.00  0.00    +0.000 A 
ATOM     21  C   UNL     1       1.212  10.665  18.995  0.00  0.00    +0.000 A 
ATOM     22  C   UNL     1       0.882   9.948  20.150  0.00  0.00    +0.000 A 
ATOM     23  C   UNL     1       1.280   8.606  20.222  0.00  0.00    +0.000 A 
BRANCH  22  24
ATOM     24  N   UNL     1       0.122  10.524  21.201  0.00  0.00    +0.000 N 
ATOM     25  C   UNL     1       0.181  10.029  22.558  0.00  0.00    +0.000 C 
ATOM     26  C   UNL     1      -1.094  10.541  23.192  0.00  0.00    +0.000 C 
ATOM     27  C   UNL     1      -1.342  11.853  22.476  0.00  0.00    +0.000 C 
ATOM     28  C   UNL     1      -0.750  11.616  21.104  0.00  0.00    +0.000 C 
ATOM     29  O   UNL     1      -0.989  12.329  20.142  0.00  0.00    +0.000 OA
ENDBRANCH  22  24
ENDBRANCH   2  18
TORSDOF 5
ENDMDL
MODEL 3
REMARK VINA RESULT:      -8.7      1.090      1.611
REMARK  Name = 
REMARK  6 active torsions:
REMARK  status: ('A' for Active; 'I' for Inactive)
REMARK    1  A    between atoms: C_1  and  C_2
REMARK    2  A    between atoms: C_2  and  C_3
REMARK    3  A    between atoms: N_7  and  C_8
REMARK    4  A    between atoms: C_13  and  N_14
REMARK    5  A    between atoms: C_15  and  C_17
REMARK    6  A    between atoms: C_21  and  N_22
REMARK                            x       y       z     vdW  Elec       q    Type
REMARK                         _______ _______ _______ _____ _____    ______ ____
ROOT
ATOM      1  N   UNL     1       2.235   6.118  17.957  0.00  0.00    +0.000 N 
ATOM      2  C   UNL     1       2.356   6.887  19.102  0.00  0.00    +0.000 C 
ATOM      3  O   UNL     1       2.734   6.450  20.185  0.00  0.00    +0.000 OA
ATOM      4  H   UNL     1       2.111   6.559  17.058  0.00  0.00    +0.000 HD
ENDROOT
BRANCH   1  10
ATOM      5  C   UNL     1       3.840   4.301  17.428  0.00  0.00    +0.000 A 
ATOM      6  C   UNL     1       4.049   2.915  17.336  0.00  0.00    +0.000 A 
ATOM      7  C   UNL     1       3.076   2.018  17.788  0.00  0.00    +0.000 A 
ATOM      8  C   UNL     1       1.896   2.487  18.357  0.00  0.00    +0.000 A 
ATOM      9  C   UNL     1       1.671   3.857  18.453  0.00  0.00    +0.000 A 
ATOM     10  C   UNL     1       2.619   4.763  17.968  0.00  0.00    +0.000 A 
BRANCH   5  15
ATOM     11  C   UNL     1       5.890   5.782  17.912  0.00  0.00    +0.000 A 
ATOM     12  N   UNL     1       6.441   6.771  17.231  0.00  0.00    +0.000 NA
ATOM     13  N   UNL     1       5.865   6.767  15.999  0.00  0.00    +0.000 NA
ATOM     14  N   UNL     1       4.963   5.807  15.902  0.00  0.00    +0.000 NA
ATOM     15  N   UNL     1       4.896   5.201  17.119  0.00  0.00    +0.000 N 
BRANCH  11  17
ATOM     16  C   UNL     1       7.801   5.641  19.514  0.00  0.00    +0.000 C 
ATOM     17  C   UNL     1       6.329   5.338  19.264  0.00  0.00    +0.000 C 
ENDBRANCH  11  17
ENDBRANCH   5  15
ENDBRANCH   1  10
BRANCH   2  18
ATOM     18  C   UNL     1       1.971   8.324  18.992  0.00  0.00    +0.000 A 
ATOM     19  C   UNL     1       2.325   9.146  17.919  0.00  0.00    +0.000 A 
ATOM     20  C   UNL     1       1.883  10.470  17.894  0.00  0.00    +0.000 A 
ATOM     21  C   UNL     1       1.083  10.970  18.928  0.00  0.00    +0.000 A 
ATOM     22  C   UNL     1       0.710  10.163  20.008  0.00  0.00    +0.000 A 
ATOM     23  C   UNL     1       1.190   8.846  20.034  0.00  0.00    +0.000 A 
BRANCH  22  24
ATOM     24  N   UNL     1      -0.167  10.622  21.024  0.00  0.00    +0.000 N 
ATOM     25  C   UNL     1      -1.319  11.448  20.738  0.00  0.00    +0.000 C 
ATOM     26  C   UNL     1      -1.639  12.106  22.062  0.00  0.00    +0.000 C 
ATOM     27  C   UNL     1      -1.217  11.068  23.082  0.00  0.00    +0.000 C 
ATOM     28  C   UNL     1      -0.074  10.352  22.396  0.00  0.00    +0.000 C 
ATOM     29  O   UNL     1       0.716   9.634  22.989  0.00  0.00    +0.000 OA
ENDBRANCH  22  24
ENDBRANCH   2  18
TORSDOF 5
ENDMDL
MODEL 4
REMARK VINA RESULT:      -8.7      1.279      1.296
REMARK  Name = 
REMARK  6 active torsions:
REMARK  status: ('A' for Active; 'I' for Inactive)
REMARK    1  A    between atoms: C_1  and  C_2
REMARK    2  A    between atoms: C_2  and  C_3
REMARK    3  A    between atoms: N_7  and  C_8
REMARK    4  A    between atoms: C_13  and  N_14
REMARK    5  A    between atoms: C_15  and  C_17
REMARK    6  A    between atoms: C_21  and  N_22
REMARK                            x       y       z     vdW  Elec       q    Type
REMARK                         _______ _______ _______ _____ _____    ______ ____
ROOT
ATOM      1  N   UNL     1       3.031   6.127  20.008  0.00  0.00    +0.000 N 
ATOM      2  C   UNL     1       2.372   6.591  18.882  0.00  0.00    +0.000 C 
ATOM      3  O   UNL     1       2.053   5.882  17.933  0.00  0.00    +0.000 OA
ATOM      4  H   UNL     1       3.095   6.703  20.835  0.00  0.00    +0.000 HD
ENDROOT
BRANCH   1  10
ATOM      5  C   UNL     1       4.399   4.119  19.506  0.00  0.00    +0.000 A 
ATOM      6  C   UNL     1       4.491   2.719  19.577  0.00  0.00    +0.000 A 
ATOM      7  C   UNL     1       3.541   1.979  20.286  0.00  0.00    +0.000 A 
ATOM      8  C   UNL     1       2.501   2.622  20.952  0.00  0.00    +0.000 A 
ATOM      9  C   UNL     1       2.392   4.008  20.889  0.00  0.00    +0.000 A 
ATOM     10  C   UNL     1       3.314   4.755  20.150  0.00  0.00    +0.000 A 
BRANCH   5  15
ATOM     11  C   UNL     1       5.848   5.059  17.596  0.00  0.00    +0.000 A 
ATOM     12  N   UNL     1       7.055   5.596  17.590  0.00  0.00    +0.000 NA
ATOM     13  N   UNL     1       7.389   5.823  18.890  0.00  0.00    +0.000 NA
ATOM     14  N   UNL     1       6.423   5.431  19.701  0.00  0.00    +0.000 NA
ATOM     15  N   UNL     1       5.455   4.873  18.924  0.00  0.00    +0.000 N 
BRANCH  11  17
ATOM     16  C   UNL     1       5.826   3.989  15.340  0.00  0.00    +0.000 C 
ATOM     17  C   UNL     1       5.040   4.781  16.377  0.00  0.00    +0.000 C 
ENDBRANCH  11  17
ENDBRANCH   5  15
ENDBRANCH   1  10
BRANCH   2  18
ATOM     18  C   UNL     1       2.069   8.052  18.833  0.00  0.00    +0.000 A 
ATOM     19  C   UNL     1       2.473   8.896  17.796  0.00  0.00    +0.000 A 
ATOM     20  C   UNL     1       2.106  10.243  17.826  0.00  0.00    +0.000 A 
ATOM     21  C   UNL     1       1.331  10.744  18.879  0.00  0.00    +0.000 A 
ATOM     22  C   UNL     1       0.909   9.914  19.923  0.00  0.00    +0.000 A 
ATOM     23  C   UNL     1       1.314   8.572  19.895  0.00  0.00    +0.000 A 
BRANCH  22  24
ATOM     24  N   UNL     1       0.056  10.379  20.956  0.00  0.00    +0.000 N 
ATOM     25  C   UNL     1      -1.126  11.167  20.688  0.00  0.00    +0.000 C 
ATOM     26  C   UNL     1      -1.419  11.853  22.004  0.00  0.00    +0.000 C 
ATOM     27  C   UNL     1      -0.935  10.855  23.037  0.00  0.00    +0.000 C 
ATOM     28  C   UNL     1       0.202  10.150  22.331  0.00  0.00    +0.000 C 
ATOM     29  O   UNL     1       1.030   9.468  22.916  0.00  0.00    +0.000 OA
ENDBRANCH  22  24
ENDBRANCH   2  18
TORSDOF 5
ENDMDL
MODEL 5
REMARK VINA RESULT:      -8.7      1.397      1.609
REMARK  Name = 
REMARK  6 active torsions:
REMARK  status: ('A' for Active; 'I' for Inactive)
REMARK    1  A    between atoms: C_1  and  C_2
REMARK    2  A    between atoms: C_2  and  C_3
REMARK    3  A    between atoms: N_7  and  C_8
REMARK    4  A    between atoms: C_13  and  N_14
REMARK    5  A    between atoms: C_15  and  C_17
REMARK    6  A    between atoms: C_21  and  N_22
REMARK                            x       y       z     vdW  Elec       q    Type
REMARK                         _______ _______ _______ _____ _____    ______ ____
ROOT
ATOM      1  N   UNL     1       3.168   6.203  19.840  0.00  0.00    +0.000 N 
ATOM      2  C   UNL     1       2.401   6.679  18.789  0.00  0.00    +0.000 C 
ATOM      3  O   UNL     1       2.028   5.989  17.845  0.00  0.00    +0.000 OA
ATOM      4  H   UNL     1       3.282   6.754  20.678  0.00  0.00    +0.000 HD
ENDROOT
BRANCH   1  10
ATOM      5  C   UNL     1       4.685   4.306  19.335  0.00  0.00    +0.000 A 
ATOM      6  C   UNL     1       4.845   2.910  19.312  0.00  0.00    +0.000 A 
ATOM      7  C   UNL     1       3.869   2.073  19.863  0.00  0.00    +0.000 A 
ATOM      8  C   UNL     1       2.735   2.613  20.462  0.00  0.00    +0.000 A 
ATOM      9  C   UNL     1       2.559   3.994  20.491  0.00  0.00    +0.000 A 
ATOM     10  C   UNL     1       3.509   4.838  19.908  0.00  0.00    +0.000 A 
BRANCH   5  15
ATOM     11  C   UNL     1       6.075   5.710  17.684  0.00  0.00    +0.000 A 
ATOM     12  N   UNL     1       7.312   6.168  17.743  0.00  0.00    +0.000 NA
ATOM     13  N   UNL     1       7.739   5.978  19.021  0.00  0.00    +0.000 NA
ATOM     14  N   UNL     1       6.800   5.404  19.752  0.00  0.00    +0.000 NA
ATOM     15  N   UNL     1       5.751   5.151  18.923  0.00  0.00    +0.000 N 
BRANCH  11  17
ATOM     16  C   UNL     1       5.456   4.786  15.448  0.00  0.00    +0.000 C 
ATOM     17  C   UNL     1       5.178   5.848  16.503  0.00  0.00    +0.000 C 
ENDBRANCH  11  17
ENDBRANCH   5  15
ENDBRANCH   1  10
BRANCH   2  18
ATOM     18  C   UNL     1       2.045   8.127  18.817  0.00  0.00    +0.000 A 
ATOM     19  C   UNL     1       2.279   9.007  17.758  0.00  0.00    +0.000 A 
ATOM     20  C   UNL     1       1.874  10.339  17.869  0.00  0.00    +0.000 A 
ATOM     21  C   UNL     1       1.230  10.789  19.028  0.00  0.00    +0.000 A 
ATOM     22  C   UNL     1       0.979   9.923  20.098  0.00  0.00    +0.000 A 
ATOM     23  C   UNL     1       1.422   8.598  19.983  0.00  0.00    +0.000 A 
BRANCH  22  24
ATOM     24  N   UNL     1       0.256  10.335  21.246  0.00  0.00    +0.000 N 
ATOM     25  C   UNL     1       0.401   9.682  22.528  0.00  0.00    +0.000 C 
ATOM     26  C   UNL     1      -0.856  10.061  23.280  0.00  0.00    +0.000 C 
ATOM     27  C   UNL     1      -1.186  11.440  22.743  0.00  0.00    +0.000 C 
ATOM     28  C   UNL     1      -0.658  11.395  21.326  0.00  0.00    +0.000 C 
ATOM     29  O   UNL     1      -0.971  12.209  20.471  0.00  0.00    +0.000 OA
ENDBRANCH  22  24
ENDBRANCH   2  18
TORSDOF 5
ENDMDL
MODEL 6
REMARK VINA RESULT:      -8.7      2.167      3.780
REMARK  Name = 
REMARK  6 active torsions:
REMARK  status: ('A' for Active; 'I' for Inactive)
REMARK    1  A    between atoms: C_1  and  C_2
REMARK    2  A    between atoms: C_2  and  C_3
REMARK    3  A    between atoms: N_7  and  C_8
REMARK    4  A    between atoms: C_13  and  N_14
REMARK    5  A    between atoms: C_15  and  C_17
REMARK    6  A    between atoms: C_21  and  N_22
REMARK                            x       y       z     vdW  Elec       q    Type
REMARK                         _______ _______ _______ _____ _____    ______ ____
ROOT
ATOM      1  N   UNL     1       4.467   4.736  17.380  0.00  0.00    +0.000 N 
ATOM      2  C   UNL     1       3.893   5.958  17.690  0.00  0.00    +0.000 C 
ATOM      3  O   UNL     1       4.178   7.011  17.128  0.00  0.00    +0.000 OA
ATOM      4  H   UNL     1       4.063   3.880  17.731  0.00  0.00    +0.000 HD
ENDROOT
BRANCH   1  10
ATOM      5  C   UNL     1       6.701   5.153  16.385  0.00  0.00    +0.000 A 
ATOM      6  C   UNL     1       7.479   5.147  15.215  0.00  0.00    +0.000 A 
ATOM      7  C   UNL     1       6.971   4.620  14.024  0.00  0.00    +0.000 A 
ATOM      8  C   UNL     1       5.691   4.072  13.987  0.00  0.00    +0.000 A 
ATOM      9  C   UNL     1       4.904   4.073  15.135  0.00  0.00    +0.000 A 
ATOM     10  C   UNL     1       5.389   4.632  16.321  0.00  0.00    +0.000 A 
BRANCH   5  15
ATOM     11  C   UNL     1       7.791   6.757  18.078  0.00  0.00    +0.000 A 
ATOM     12  N   UNL     1       8.486   6.535  19.179  0.00  0.00    +0.000 NA
ATOM     13  N   UNL     1       8.352   5.211  19.465  0.00  0.00    +0.000 NA
ATOM     14  N   UNL     1       7.600   4.606  18.564  0.00  0.00    +0.000 NA
ATOM     15  N   UNL     1       7.281   5.537  17.624  0.00  0.00    +0.000 N 
BRANCH  11  17
ATOM     16  C   UNL     1       8.394   9.179  18.156  0.00  0.00    +0.000 C 
ATOM     17  C   UNL     1       7.549   8.103  17.488  0.00  0.00    +0.000 C 
ENDBRANCH  11  17
ENDBRANCH   5  15
ENDBRANCH   1  10
BRANCH   2  18
ATOM     18  C   UNL     1       2.891   5.972  18.795  0.00  0.00    +0.000 A 
ATOM     19  C   UNL     1       2.427   4.823  19.441  0.00  0.00    +0.000 A 
ATOM     20  C   UNL     1       1.516   4.946  20.491  0.00  0.00    +0.000 A 
ATOM     21  C   UNL     1       1.075   6.210  20.902  0.00  0.00    +0.000 A 
ATOM     22  C   UNL     1       1.533   7.374  20.275  0.00  0.00    +0.000 A 
ATOM     23  C   UNL     1       2.422   7.230  19.201  0.00  0.00    +0.000 A 
BRANCH  22  24
ATOM     24  N   UNL     1       1.165   8.667  20.728  0.00  0.00    +0.000 N 
ATOM     25  C   UNL     1       1.220   9.044  22.123  0.00  0.00    +0.000 C 
ATOM     26  C   UNL     1       0.298  10.240  22.218  0.00  0.00    +0.000 C 
ATOM     27  C   UNL     1       0.438  10.901  20.861  0.00  0.00    +0.000 C 
ATOM     28  C   UNL     1       0.728   9.739  19.937  0.00  0.00    +0.000 C 
ATOM     29  O   UNL     1       0.633   9.813  18.722  0.00  0.00    +0.000 OA
ENDBRANCH  22  24
ENDBRANCH   2  18
TORSDOF 5
ENDMDL
MODEL 7
REMARK VINA RESULT:      -8.6      2.054      3.406
REMARK  Name = 
REMARK  6 active torsions:
REMARK  status: ('A' for Active; 'I' for Inactive)
REMARK    1  A    between atoms: C_1  and  C_2
REMARK    2  A    between atoms: C_2  and  C_3
REMARK    3  A    between atoms: N_7  and  C_8
REMARK    4  A    between atoms: C_13  and  N_14
REMARK    5  A    between atoms: C_15  and  C_17
REMARK    6  A    between atoms: C_21  and  N_22
REMARK                            x       y       z     vdW  Elec       q    Type
REMARK                         _______ _______ _______ _____ _____    ______ ____
ROOT
ATOM      1  N   UNL     1       4.307   5.058  17.545  0.00  0.00    +0.000 N 
ATOM      2  C   UNL     1       3.814   6.335  17.755  0.00  0.00    +0.000 C 
ATOM      3  O   UNL     1       4.157   7.319  17.106  0.00  0.00    +0.000 OA
ATOM      4  H   UNL     1       3.855   4.261  17.968  0.00  0.00    +0.000 HD
ENDROOT
BRANCH   1  10
ATOM      5  C   UNL     1       6.564   5.208  16.526  0.00  0.00    +0.000 A 
ATOM      6  C   UNL     1       7.332   5.064  15.358  0.00  0.00    +0.000 A 
ATOM      7  C   UNL     1       6.769   4.523  14.198  0.00  0.00    +0.000 A 
ATOM      8  C   UNL     1       5.444   4.096  14.192  0.00  0.00    +0.000 A 
ATOM      9  C   UNL     1       4.667   4.234  15.339  0.00  0.00    +0.000 A 
ATOM     10  C   UNL     1       5.209   4.810  16.492  0.00  0.00    +0.000 A 
BRANCH   5  15
ATOM     11  C   UNL     1       7.777   6.807  18.139  0.00  0.00    +0.000 A 
ATOM     12  N   UNL     1       8.473   6.585  19.240  0.00  0.00    +0.000 NA
ATOM     13  N   UNL     1       8.260   5.285  19.582  0.00  0.00    +0.000 NA
ATOM     14  N   UNL     1       7.459   4.693  18.715  0.00  0.00    +0.000 NA
ATOM     15  N   UNL     1       7.185   5.604  17.741  0.00  0.00    +0.000 N 
BRANCH  11  17
ATOM     16  C   UNL     1       8.425   9.218  18.204  0.00  0.00    +0.000 C 
ATOM     17  C   UNL     1       7.612   8.140  17.498  0.00  0.00    +0.000 C 
ENDBRANCH  11  17
ENDBRANCH   5  15
ENDBRANCH   1  10
BRANCH   2  18
ATOM     18  C   UNL     1       2.827   6.502  18.862  0.00  0.00    +0.000 A 
ATOM     19  C   UNL     1       2.449   5.476  19.730  0.00  0.00    +0.000 A 
ATOM     20  C   UNL     1       1.544   5.745  20.759  0.00  0.00    +0.000 A 
ATOM     21  C   UNL     1       1.025   7.035  20.927  0.00  0.00    +0.000 A 
ATOM     22  C   UNL     1       1.397   8.080  20.074  0.00  0.00    +0.000 A 
ATOM     23  C   UNL     1       2.281   7.784  19.026  0.00  0.00    +0.000 A 
BRANCH  22  24
ATOM     24  N   UNL     1       0.950   9.411  20.275  0.00  0.00    +0.000 N 
ATOM     25  C   UNL     1       0.414  10.218  19.201  0.00  0.00    +0.000 C 
ATOM     26  C   UNL     1       0.556  11.639  19.702  0.00  0.00    +0.000 C 
ATOM     27  C   UNL     1       0.395  11.501  21.203  0.00  0.00    +0.000 C 
ATOM     28  C   UNL     1       0.941  10.118  21.485  0.00  0.00    +0.000 C 
ATOM     29  O   UNL     1       1.243   9.736  22.604  0.00  0.00    +0.000 OA
ENDBRANCH  22  24
ENDBRANCH   2  18
TORSDOF 5
ENDMDL
MODEL 8
REMARK VINA RESULT:      -8.6      1.392      1.967
REMARK  Name = 
REMARK  6 active torsions:
REMARK  status: ('A' for Active; 'I' for Inactive)
REMARK    1  A    between atoms: C_1  and  C_2
REMARK    2  A    between atoms: C_2  and  C_3
REMARK    3  A    between atoms: N_7  and  C_8
REMARK    4  A    between atoms: C_13  and  N_14
REMARK    5  A    between atoms: C_15  and  C_17
REMARK    6  A    between atoms: C_21  and  N_22
REMARK                            x       y       z     vdW  Elec       q    Type
REMARK                         _______ _______ _______ _____ _____    ______ ____
ROOT
ATOM      1  N   UNL     1       2.304   5.763  18.044  0.00  0.00    +0.000 N 
ATOM      2  C   UNL     1       2.534   6.608  19.117  0.00  0.00    +0.000 C 
ATOM      3  O   UNL     1       3.082   6.260  20.159  0.00  0.00    +0.000 OA
ATOM      4  H   UNL     1       2.031   6.140  17.149  0.00  0.00    +0.000 HD
ENDROOT
BRANCH   1  10
ATOM      5  C   UNL     1       3.969   4.019  17.456  0.00  0.00    +0.000 A 
ATOM      6  C   UNL     1       4.251   2.644  17.401  0.00  0.00    +0.000 A 
ATOM      7  C   UNL     1       3.372   1.713  17.963  0.00  0.00    +0.000 A 
ATOM      8  C   UNL     1       2.214   2.139  18.607  0.00  0.00    +0.000 A 
ATOM      9  C   UNL     1       1.916   3.497  18.669  0.00  0.00    +0.000 A 
ATOM     10  C   UNL     1       2.768   4.434  18.075  0.00  0.00    +0.000 A 
BRANCH   5  15
ATOM     11  C   UNL     1       5.902   5.697  17.733  0.00  0.00    +0.000 A 
ATOM     12  N   UNL     1       6.357   6.653  16.943  0.00  0.00    +0.000 NA
ATOM     13  N   UNL     1       5.757   6.480  15.734  0.00  0.00    +0.000 NA
ATOM     14  N   UNL     1       4.934   5.447  15.758  0.00  0.00    +0.000 NA
ATOM     15  N   UNL     1       4.941   4.964  17.030  0.00  0.00    +0.000 N 
BRANCH  11  17
ATOM     16  C   UNL     1       7.886   5.748  19.249  0.00  0.00    +0.000 C 
ATOM     17  C   UNL     1       6.404   5.427  19.109  0.00  0.00    +0.000 C 
ENDBRANCH  11  17
ENDBRANCH   5  15
ENDBRANCH   1  10
BRANCH   2  18
ATOM     18  C   UNL     1       2.050   8.013  18.984  0.00  0.00    +0.000 A 
ATOM     19  C   UNL     1       2.164   8.769  17.815  0.00  0.00    +0.000 A 
ATOM     20  C   UNL     1       1.646  10.064  17.782  0.00  0.00    +0.000 A 
ATOM     21  C   UNL     1       1.008  10.602  18.907  0.00  0.00    +0.000 A 
ATOM     22  C   UNL     1       0.876   9.860  20.085  0.00  0.00    +0.000 A 
ATOM     23  C   UNL     1       1.431   8.573  20.112  0.00  0.00    +0.000 A 
BRANCH  22  24
ATOM     24  N   UNL     1       0.162  10.351  21.209  0.00  0.00    +0.000 N 
ATOM     25  C   UNL     1       0.305   9.777  22.528  0.00  0.00    +0.000 C 
ATOM     26  C   UNL     1      -0.945  10.217  23.259  0.00  0.00    +0.000 C 
ATOM     27  C   UNL     1      -1.260  11.563  22.638  0.00  0.00    +0.000 C 
ATOM     28  C   UNL     1      -0.739  11.425  21.225  0.00  0.00    +0.000 C 
ATOM     29  O   UNL     1      -1.046  12.188  20.322  0.00  0.00    +0.000 OA
ENDBRANCH  22  24
ENDBRANCH   2  18
TORSDOF 5
ENDMDL
MODEL 9
REMARK VINA RESULT:      -8.6      2.197      4.290
REMARK  Name = 
REMARK  6 active torsions:
REMARK  status: ('A' for Active; 'I' for Inactive)
REMARK    1  A    between atoms: C_1  and  C_2
REMARK    2  A    between atoms: C_2  and  C_3
REMARK    3  A    between atoms: N_7  and  C_8
REMARK    4  A    between atoms: C_13  and  N_14
REMARK    5  A    between atoms: C_15  and  C_17
REMARK    6  A    between atoms: C_21  and  N_22
REMARK                            x       y       z     vdW  Elec       q    Type
REMARK                         _______ _______ _______ _____ _____    ______ ____
ROOT
ATOM      1  N   UNL     1       4.365   5.201  16.943  0.00  0.00    +0.000 N 
ATOM      2  C   UNL     1       3.925   4.208  17.802  0.00  0.00    +0.000 C 
ATOM      3  O   UNL     1       4.315   3.045  17.763  0.00  0.00    +0.000 OA
ATOM      4  H   UNL     1       4.164   6.170  17.139  0.00  0.00    +0.000 HD
ENDROOT
BRANCH   1  10
ATOM      5  C   UNL     1       6.730   5.244  16.193  0.00  0.00    +0.000 A 
ATOM      6  C   UNL     1       7.618   5.082  15.116  0.00  0.00    +0.000 A 
ATOM      7  C   UNL     1       7.164   4.599  13.885  0.00  0.00    +0.000 A 
ATOM      8  C   UNL     1       5.827   4.249  13.716  0.00  0.00    +0.000 A 
ATOM      9  C   UNL     1       4.932   4.406  14.770  0.00  0.00    +0.000 A 
ATOM     10  C   UNL     1       5.368   4.925  15.993  0.00  0.00    +0.000 A 
BRANCH   5  15
ATOM     11  C   UNL     1       7.738   6.768  18.006  0.00  0.00    +0.000 A 
ATOM     12  N   UNL     1       8.342   6.494  19.149  0.00  0.00    +0.000 NA
ATOM     13  N   UNL     1       8.147   5.169  19.387  0.00  0.00    +0.000 NA
ATOM     14  N   UNL     1       7.447   4.612  18.415  0.00  0.00    +0.000 NA
ATOM     15  N   UNL     1       7.227   5.577  17.481  0.00  0.00    +0.000 N 
BRANCH  11  17
ATOM     16  C   UNL     1       8.396   9.169  18.206  0.00  0.00    +0.000 C 
ATOM     17  C   UNL     1       7.581   8.135  17.438  0.00  0.00    +0.000 C 
ENDBRANCH  11  17
ENDBRANCH   5  15
ENDBRANCH   1  10
BRANCH   2  18
ATOM     18  C   UNL     1       2.894   4.596  18.808  0.00  0.00    +0.000 A 
ATOM     19  C   UNL     1       2.228   3.685  19.632  0.00  0.00    +0.000 A 
ATOM     20  C   UNL     1       1.306   4.155  20.569  0.00  0.00    +0.000 A 
ATOM     21  C   UNL     1       1.055   5.527  20.691  0.00  0.00    +0.000 A 
ATOM     22  C   UNL     1       1.717   6.457  19.882  0.00  0.00    +0.000 A 
ATOM     23  C   UNL     1       2.615   5.966  18.924  0.00  0.00    +0.000 A 
BRANCH  22  24
ATOM     24  N   UNL     1       1.541   7.855  20.044  0.00  0.00    +0.000 N 
ATOM     25  C   UNL     1       1.376   8.470  21.343  0.00  0.00    +0.000 C 
ATOM     26  C   UNL     1       0.727   9.802  21.040  0.00  0.00    +0.000 C 
ATOM     27  C   UNL     1       1.286  10.166  19.679  0.00  0.00    +0.000 C 
ATOM     28  C   UNL     1       1.515   8.820  19.028  0.00  0.00    +0.000 C 
ATOM     29  O   UNL     1       1.697   8.682  17.828  0.00  0.00    +0.000 OA
ENDBRANCH  22  24
ENDBRANCH   2  18
TORSDOF 5
ENDMDL
