MODEL 1
REMARK VINA RESULT:      -8.7      0.000      0.000
REMARK  Name = 
REMARK  4 active torsions:
REMARK  status: ('A' for Active; 'I' for Inactive)
REMARK    1  A    between atoms: C_1  and  C_2
REMARK    2  A    between atoms: C_3  and  C_4
REMARK    3  A    between atoms: C_10  and  C_11
REMARK    4  A    between atoms: N_23  and  C_24
REMARK                            x       y       z     vdW  Elec       q    Type
REMARK                         _______ _______ _______ _____ _____    ______ ____
ROOT
ATOM      1  C   UNL     1       3.447   5.880  19.284  0.00  0.00    +0.000 C 
ATOM      2  O   UNL     1       4.598   5.902  19.732  0.00  0.00    +0.000 OA
ATOM      3  N   UNL     1       3.076   4.871  18.408  0.00  0.00    +0.000 N 
ATOM      4  C   UNL     1       1.763   4.562  17.879  0.00  0.00    +0.000 C 
ATOM      5  C   UNL     1       1.744   3.047  17.795  0.00  0.00    +0.000 C 
ATOM      6  C   UNL     1       3.194   2.639  17.564  0.00  0.00    +0.000 C 
ATOM      7  C   UNL     1       4.041   3.827  18.043  0.00  0.00    +0.000 C 
ENDROOT
BRANCH   7   8
ATOM      8  C   UNL     1       5.027   4.227  16.951  0.00  0.00    +0.000 A 
ATOM      9  C   UNL     1       6.250   4.825  17.305  0.00  0.00    +0.000 A 
ATOM     10  C   UNL     1       7.217   5.113  16.335  0.00  0.00    +0.000 A 
ATOM     11  C   UNL     1       6.973   4.805  15.000  0.00  0.00    +0.000 A 
ATOM     12  C   UNL     1       5.776   4.185  14.636  0.00  0.00    +0.000 A 
ATOM     13  C   UNL     1       4.805   3.916  15.600  0.00  0.00    +0.000 A 
ATOM     14  O   UNL     1       5.483   3.804  13.351  0.00  0.00    +0.000 OA
ATOM     15  C   UNL     1       6.648   3.821  12.521  0.00  0.00    +0.000 C 
ATOM     16  C   UNL     1       7.453   5.089  12.755  0.00  0.00    +0.000 C 
ATOM     17  O   UNL     1       7.956   5.125  14.097  0.00  0.00    +0.000 OA
ENDBRANCH   7   8
BRANCH   1  20
ATOM     18  C   UNL     1       2.612   8.637  17.761  0.00  0.00    +0.000 C 
ATOM     19  C   UNL     1       2.147   8.065  19.049  0.00  0.00    +0.000 A 
ATOM     20  C   UNL     1       2.466   6.898  19.727  0.00  0.00    +0.000 A 
ATOM     21  N   UNL     1       1.701   6.853  20.874  0.00  0.00    +0.000 NA
ATOM     22  N   UNL     1       0.958   7.954  20.947  0.00  0.00    +0.000 NA
ATOM     23  N   UNL     1       1.233   8.692  19.865  0.00  0.00    +0.000 N 
BRANCH  23  24
ATOM     24  C   UNL     1       0.559   9.941  19.570  0.00  0.00    +0.000 C 
ATOM     25  C   UNL     1      -0.840   9.726  18.992  0.00  0.00    +0.000 C 
ATOM     26  C   UNL     1      -1.258  11.020  18.307  0.00  0.00    +0.000 C 
ATOM     27  N   UNL     1      -1.268  12.146  19.243  0.00  0.00    +0.000 NA
ATOM     28  C   UNL     1      -0.013  12.306  19.985  0.00  0.00    +0.000 C 
ATOM     29  C   UNL     1       0.470  11.012  20.659  0.00  0.00    +0.000 C 
ATOM     30  H   UNL     1      -2.037  12.025  19.904  0.00  0.00    +0.000 HD
ENDBRANCH  23  24
ENDBRANCH   1  20
TORSDOF 3
ENDMDL
MODEL 2
REMARK VINA RESULT:      -8.6      0.491      1.017
REMARK  Name = 
REMARK  4 active torsions:
REMARK  status: ('A' for Active; 'I' for Inactive)
REMARK    1  A    between atoms: C_1  and  C_2
REMARK    2  A    between atoms: C_3  and  C_4
REMARK    3  A    between atoms: C_10  and  C_11
REMARK    4  A    between atoms: N_23  and  C_24
REMARK                            x       y       z     vdW  Elec       q    Type
REMARK                         _______ _______ _______ _____ _____    ______ ____
ROOT
ATOM      1  C   UNL     1       3.395   6.003  19.275  0.00  0.00    +0.000 C 
ATOM      2  O   UNL     1       4.537   6.055  19.744  0.00  0.00    +0.000 OA
ATOM      3  N   UNL     1       3.053   4.960  18.429  0.00  0.00    +0.000 N 
ATOM      4  C   UNL     1       1.753   4.616  17.886  0.00  0.00    +0.000 C 
ATOM      5  C   UNL     1       1.753   3.099  17.858  0.00  0.00    +0.000 C 
ATOM      6  C   UNL     1       3.212   2.700  17.668  0.00  0.00    +0.000 C 
ATOM      7  C   UNL     1       4.036   3.915  18.120  0.00  0.00    +0.000 C 
ENDROOT
BRANCH   7   8
ATOM      8  C   UNL     1       5.039   4.286  17.034  0.00  0.00    +0.000 A 
ATOM      9  C   UNL     1       6.280   4.842  17.395  0.00  0.00    +0.000 A 
ATOM     10  C   UNL     1       7.258   5.103  16.429  0.00  0.00    +0.000 A 
ATOM     11  C   UNL     1       7.010   4.808  15.092  0.00  0.00    +0.000 A 
ATOM     12  C   UNL     1       5.795   4.230  14.722  0.00  0.00    +0.000 A 
ATOM     13  C   UNL     1       4.812   3.988  15.680  0.00  0.00    +0.000 A 
ATOM     14  O   UNL     1       5.494   3.864  13.434  0.00  0.00    +0.000 OA
ATOM     15  C   UNL     1       6.662   3.846  12.608  0.00  0.00    +0.000 C 
ATOM     16  C   UNL     1       7.507   5.085  12.850  0.00  0.00    +0.000 C 
ATOM     17  O   UNL     1       8.006   5.100  14.194  0.00  0.00    +0.000 OA
ENDBRANCH   7   8
BRANCH   1  20
ATOM     18  C   UNL     1       2.441   8.606  17.562  0.00  0.00    +0.000 C 
ATOM     19  C   UNL     1       2.024   8.125  18.903  0.00  0.00    +0.000 A 
ATOM     20  C   UNL     1       2.395   7.025  19.661  0.00  0.00    +0.000 A 
ATOM     21  N   UNL     1       1.659   7.050  20.829  0.00  0.00    +0.000 NA
ATOM     22  N   UNL     1       0.885   8.131  20.834  0.00  0.00    +0.000 NA
ATOM     23  N   UNL     1       1.111   8.789  19.690  0.00  0.00    +0.000 N 
BRANCH  23  24
ATOM     24  C   UNL     1       0.393   9.991  19.316  0.00  0.00    +0.000 C 
ATOM     25  C   UNL     1       1.324  11.188  19.120  0.00  0.00    +0.000 C 
ATOM     26  C   UNL     1       0.473  12.448  19.190  0.00  0.00    +0.000 C 
ATOM     27  N   UNL     1      -0.573  12.451  18.164  0.00  0.00    +0.000 NA
ATOM     28  C   UNL     1      -1.398  11.238  18.163  0.00  0.00    +0.000 C 
ATOM     29  C   UNL     1      -0.578   9.938  18.135  0.00  0.00    +0.000 C 
ATOM     30  H   UNL     1      -0.142  12.566  17.247  0.00  0.00    +0.000 HD
ENDBRANCH  23  24
ENDBRANCH   1  20
TORSDOF 3
ENDMDL
MODEL 3
REMARK VINA RESULT:      -7.7      3.924      9.319
REMARK  Name = 
REMARK  4 active torsions:
REMARK  status: ('A' for Active; 'I' for Inactive)
REMARK    1  A    between atoms: C_1  and  C_2
REMARK    2  A    between atoms: C_3  and  C_4
REMARK    3  A    between atoms: C_10  and  C_11
REMARK    4  A    between atoms: N_23  and  C_24
REMARK                            x       y       z     vdW  Elec       q    Type
REMARK                         _______ _______ _______ _____ _____    ______ ____
ROOT
ATOM      1  C   UNL     1       1.402   9.043  19.621  0.00  0.00    +0.000 C 
ATOM      2  O   UNL     1       0.812   8.933  20.699  0.00  0.00    +0.000 OA
ATOM      3  N   UNL     1       1.441  10.277  18.988  0.00  0.00    +0.000 N 
ATOM      4  C   UNL     1       2.187  10.673  17.810  0.00  0.00    +0.000 C 
ATOM      5  C   UNL     1       2.590  12.109  18.092  0.00  0.00    +0.000 C 
ATOM      6  C   UNL     1       1.491  12.666  18.990  0.00  0.00    +0.000 C 
ATOM      7  C   UNL     1       0.806  11.442  19.616  0.00  0.00    +0.000 C 
ENDROOT
BRANCH   7   8
ATOM      8  C   UNL     1      -0.701  11.534  19.408  0.00  0.00    +0.000 A 
ATOM      9  C   UNL     1      -1.490  12.228  20.342  0.00  0.00    +0.000 A 
ATOM     10  C   UNL     1      -2.860  12.414  20.128  0.00  0.00    +0.000 A 
ATOM     11  C   UNL     1      -3.458  11.910  18.976  0.00  0.00    +0.000 A 
ATOM     12  C   UNL     1      -2.683  11.244  18.026  0.00  0.00    +0.000 A 
ATOM     13  C   UNL     1      -1.321  11.041  18.248  0.00  0.00    +0.000 A 
ATOM     14  O   UNL     1      -3.186  10.763  16.843  0.00  0.00    +0.000 OA
ATOM     15  C   UNL     1      -4.483  11.300  16.569  0.00  0.00    +0.000 C 
ATOM     16  C   UNL     1      -5.351  11.265  17.816  0.00  0.00    +0.000 C 
ATOM     17  O   UNL     1      -4.807  12.115  18.833  0.00  0.00    +0.000 OA
ENDBRANCH   7   8
BRANCH   1  20
ATOM     18  C   UNL     1       1.459   5.991  20.761  0.00  0.00    +0.000 C 
ATOM     19  C   UNL     1       2.108   6.590  19.567  0.00  0.00    +0.000 A 
ATOM     20  C   UNL     1       2.103   7.873  19.043  0.00  0.00    +0.000 A 
ATOM     21  N   UNL     1       2.855   7.859  17.886  0.00  0.00    +0.000 NA
ATOM     22  N   UNL     1       3.348   6.637  17.700  0.00  0.00    +0.000 NA
ATOM     23  N   UNL     1       2.917   5.876  18.714  0.00  0.00    +0.000 N 
BRANCH  23  24
ATOM     24  C   UNL     1       3.204   4.459  18.813  0.00  0.00    +0.000 C 
ATOM     25  C   UNL     1       2.931   3.717  17.504  0.00  0.00    +0.000 C 
ATOM     26  C   UNL     1       2.815   2.234  17.832  0.00  0.00    +0.000 C 
ATOM     27  N   UNL     1       4.037   1.722  18.456  0.00  0.00    +0.000 NA
ATOM     28  C   UNL     1       4.475   2.502  19.618  0.00  0.00    +0.000 C 
ATOM     29  C   UNL     1       4.567   4.012  19.344  0.00  0.00    +0.000 C 
ATOM     30  H   UNL     1       4.784   1.703  17.761  0.00  0.00    +0.000 HD
ENDBRANCH  23  24
ENDBRANCH   1  20
TORSDOF 3
ENDMDL
MODEL 4
REMARK VINA RESULT:      -7.7      4.180     10.319
REMARK  Name = 
REMARK  4 active torsions:
REMARK  status: ('A' for Active; 'I' for Inactive)
REMARK    1  A    between atoms: C_1  and  C_2
REMARK    2  A    between atoms: C_3  and  C_4
REMARK    3  A    between atoms: C_10  and  C_11
REMARK    4  A    between atoms: N_23  and  C_24
REMARK                            x       y       z     vdW  Elec       q    Type
REMARK                         _______ _______ _______ _____ _____    ______ ____
ROOT
ATOM      1  C   UNL     1       0.725  10.568  18.969  0.00  0.00    +0.000 C 
ATOM      2  O   UNL     1       1.246  11.504  19.582  0.00  0.00    +0.000 OA
ATOM      3  N   UNL     1      -0.600  10.668  18.572  0.00  0.00    +0.000 N 
ATOM      4  C   UNL     1      -1.367   9.775  17.727  0.00  0.00    +0.000 C 
ATOM      5  C   UNL     1      -2.276  10.700  16.938  0.00  0.00    +0.000 C 
ATOM      6  C   UNL     1      -2.515  11.900  17.847  0.00  0.00    +0.000 C 
ATOM      7  C   UNL     1      -1.361  11.890  18.860  0.00  0.00    +0.000 C 
ENDROOT
BRANCH   7   8
ATOM      8  C   UNL     1      -1.920  11.972  20.276  0.00  0.00    +0.000 A 
ATOM      9  C   UNL     1      -1.145  11.512  21.356  0.00  0.00    +0.000 A 
ATOM     10  C   UNL     1      -1.589  11.664  22.674  0.00  0.00    +0.000 A 
ATOM     11  C   UNL     1      -2.811  12.279  22.929  0.00  0.00    +0.000 A 
ATOM     12  C   UNL     1      -3.579  12.766  21.869  0.00  0.00    +0.000 A 
ATOM     13  C   UNL     1      -3.146  12.598  20.554  0.00  0.00    +0.000 A 
ATOM     14  O   UNL     1      -4.769  13.428  22.040  0.00  0.00    +0.000 OA
ATOM     15  C   UNL     1      -4.953  13.831  23.400  0.00  0.00    +0.000 C 
ATOM     16  C   UNL     1      -4.589  12.701  24.348  0.00  0.00    +0.000 C 
ATOM     17  O   UNL     1      -3.195  12.385  24.242  0.00  0.00    +0.000 OA
ENDBRANCH   7   8
BRANCH   1  20
ATOM     18  C   UNL     1       1.368   7.980  20.840  0.00  0.00    +0.000 C 
ATOM     19  C   UNL     1       1.789   8.298  19.453  0.00  0.00    +0.000 A 
ATOM     20  C   UNL     1       1.533   9.377  18.620  0.00  0.00    +0.000 A 
ATOM     21  N   UNL     1       2.154   9.134  17.412  0.00  0.00    +0.000 NA
ATOM     22  N   UNL     1       2.806   7.977  17.480  0.00  0.00    +0.000 NA
ATOM     23  N   UNL     1       2.605   7.479  18.707  0.00  0.00    +0.000 N 
BRANCH  23  24
ATOM     24  C   UNL     1       3.115   6.189  19.128  0.00  0.00    +0.000 C 
ATOM     25  C   UNL     1       2.090   5.070  18.942  0.00  0.00    +0.000 C 
ATOM     26  C   UNL     1       2.528   3.897  19.810  0.00  0.00    +0.000 C 
ATOM     27  N   UNL     1       3.863   3.423  19.442  0.00  0.00    +0.000 NA
ATOM     28  C   UNL     1       4.877   4.484  19.412  0.00  0.00    +0.000 C 
ATOM     29  C   UNL     1       4.459   5.707  18.580  0.00  0.00    +0.000 C 
ATOM     30  H   UNL     1       3.819   2.973  18.527  0.00  0.00    +0.000 HD
ENDBRANCH  23  24
ENDBRANCH   1  20
TORSDOF 3
ENDMDL
MODEL 5
REMARK VINA RESULT:      -7.6      4.209     10.505
REMARK  Name = 
REMARK  4 active torsions:
REMARK  status: ('A' for Active; 'I' for Inactive)
REMARK    1  A    between atoms: C_1  and  C_2
REMARK    2  A    between atoms: C_3  and  C_4
REMARK    3  A    between atoms: C_10  and  C_11
REMARK    4  A    between atoms: N_23  and  C_24
REMARK                            x       y       z     vdW  Elec       q    Type
REMARK                         _______ _______ _______ _____ _____    ______ ____
ROOT
ATOM      1  C   UNL     1       0.764  10.143  20.490  0.00  0.00    +0.000 C 
ATOM      2  O   UNL     1       1.406  10.925  21.198  0.00  0.00    +0.000 OA
ATOM      3  N   UNL     1      -0.339  10.606  19.790  0.00  0.00    +0.000 N 
ATOM      4  C   UNL     1      -1.142   9.919  18.798  0.00  0.00    +0.000 C 
ATOM      5  C   UNL     1      -1.513  11.005  17.804  0.00  0.00    +0.000 C 
ATOM      6  C   UNL     1      -1.556  12.295  18.615  0.00  0.00    +0.000 C 
ATOM      7  C   UNL     1      -0.717  12.022  19.873  0.00  0.00    +0.000 C 
ENDROOT
BRANCH   7   8
ATOM      8  C   UNL     1      -1.520  12.393  21.115  0.00  0.00    +0.000 A 
ATOM      9  C   UNL     1      -0.889  13.075  22.171  0.00  0.00    +0.000 A 
ATOM     10  C   UNL     1      -1.621  13.515  23.280  0.00  0.00    +0.000 A 
ATOM     11  C   UNL     1      -2.991  13.281  23.345  0.00  0.00    +0.000 A 
ATOM     12  C   UNL     1      -3.636  12.631  22.292  0.00  0.00    +0.000 A 
ATOM     13  C   UNL     1      -2.905  12.175  21.196  0.00  0.00    +0.000 A 
ATOM     14  O   UNL     1      -4.990  12.408  22.258  0.00  0.00    +0.000 OA
ATOM     15  C   UNL     1      -5.674  13.188  23.243  0.00  0.00    +0.000 C 
ATOM     16  C   UNL     1      -4.944  13.128  24.575  0.00  0.00    +0.000 C 
ATOM     17  O   UNL     1      -3.647  13.727  24.465  0.00  0.00    +0.000 OA
ENDBRANCH   7   8
BRANCH   1  20
ATOM     18  C   UNL     1       2.268   8.758  17.953  0.00  0.00    +0.000 C 
ATOM     19  C   UNL     1       1.840   8.185  19.253  0.00  0.00    +0.000 A 
ATOM     20  C   UNL     1       1.210   8.736  20.358  0.00  0.00    +0.000 A 
ATOM     21  N   UNL     1       1.083   7.745  21.310  0.00  0.00    +0.000 NA
ATOM     22  N   UNL     1       1.573   6.607  20.825  0.00  0.00    +0.000 NA
ATOM     23  N   UNL     1       2.014   6.861  19.586  0.00  0.00    +0.000 N 
BRANCH  23  24
ATOM     24  C   UNL     1       2.676   5.867  18.766  0.00  0.00    +0.000 C 
ATOM     25  C   UNL     1       4.064   5.506  19.294  0.00  0.00    +0.000 C 
ATOM     26  C   UNL     1       4.831   4.841  18.159  0.00  0.00    +0.000 C 
ATOM     27  N   UNL     1       4.147   3.638  17.679  0.00  0.00    +0.000 NA
ATOM     28  C   UNL     1       2.741   3.861  17.327  0.00  0.00    +0.000 C 
ATOM     29  C   UNL     1       1.937   4.569  18.430  0.00  0.00    +0.000 C 
ATOM     30  H   UNL     1       4.204   2.913  18.394  0.00  0.00    +0.000 HD
ENDBRANCH  23  24
ENDBRANCH   1  20
TORSDOF 3
ENDMDL
MODEL 6
REMARK VINA RESULT:      -7.6      3.956     10.381
REMARK  Name = 
REMARK  4 active torsions:
REMARK  status: ('A' for Active; 'I' for Inactive)
REMARK    1  A    between atoms: C_1  and  C_2
REMARK    2  A    between atoms: C_3  and  C_4
REMARK    3  A    between atoms: C_10  and  C_11
REMARK    4  A    between atoms: N_23  and  C_24
REMARK                            x       y       z     vdW  Elec       q    Type
REMARK                         _______ _______ _______ _____ _____    ______ ____
ROOT
ATOM      1  C   UNL     1       0.769  10.473  19.844  0.00  0.00    +0.000 C 
ATOM      2  O   UNL     1       1.491  11.399  20.226  0.00  0.00    +0.000 OA
ATOM      3  N   UNL     1      -0.457  10.761  19.264  0.00  0.00    +0.000 N 
ATOM      4  C   UNL     1      -1.392   9.861  18.616  0.00  0.00    +0.000 C 
ATOM      5  C   UNL     1      -1.974  10.685  17.482  0.00  0.00    +0.000 C 
ATOM      6  C   UNL     1      -1.928  12.128  17.969  0.00  0.00    +0.000 C 
ATOM      7  C   UNL     1      -0.874  12.157  19.085  0.00  0.00    +0.000 C 
ENDROOT
BRANCH   7   8
ATOM      8  C   UNL     1      -1.463  12.809  20.331  0.00  0.00    +0.000 A 
ATOM      9  C   UNL     1      -1.584  14.209  20.391  0.00  0.00    +0.000 A 
ATOM     10  C   UNL     1      -2.210  14.830  21.477  0.00  0.00    +0.000 A 
ATOM     11  C   UNL     1      -2.724  14.059  22.516  0.00  0.00    +0.000 A 
ATOM     12  C   UNL     1      -2.637  12.667  22.457  0.00  0.00    +0.000 A 
ATOM     13  C   UNL     1      -1.997  12.048  21.384  0.00  0.00    +0.000 A 
ATOM     14  O   UNL     1      -3.164  11.836  23.414  0.00  0.00    +0.000 OA
ATOM     15  C   UNL     1      -4.066  12.536  24.276  0.00  0.00    +0.000 C 
ATOM     16  C   UNL     1      -3.477  13.873  24.695  0.00  0.00    +0.000 C 
ATOM     17  O   UNL     1      -3.314  14.730  23.558  0.00  0.00    +0.000 OA
ENDBRANCH   7   8
BRANCH   1  20
ATOM     18  C   UNL     1       2.351   8.709  17.608  0.00  0.00    +0.000 C 
ATOM     19  C   UNL     1       1.906   8.357  18.979  0.00  0.00    +0.000 A 
ATOM     20  C   UNL     1       1.242   9.075  19.962  0.00  0.00    +0.000 A 
ATOM     21  N   UNL     1       1.113   8.258  21.067  0.00  0.00    +0.000 NA
ATOM     22  N   UNL     1       1.634   7.065  20.792  0.00  0.00    +0.000 NA
ATOM     23  N   UNL     1       2.096   7.113  19.536  0.00  0.00    +0.000 N 
BRANCH  23  24
ATOM     24  C   UNL     1       2.793   6.008  18.910  0.00  0.00    +0.000 C 
ATOM     25  C   UNL     1       3.809   5.353  19.847  0.00  0.00    +0.000 C 
ATOM     26  C   UNL     1       4.777   4.551  18.988  0.00  0.00    +0.000 C 
ATOM     27  N   UNL     1       4.081   3.527  18.205  0.00  0.00    +0.000 NA
ATOM     28  C   UNL     1       2.961   4.049  17.416  0.00  0.00    +0.000 C 
ATOM     29  C   UNL     1       1.979   4.902  18.235  0.00  0.00    +0.000 C 
ATOM     30  H   UNL     1       3.740   2.799  18.834  0.00  0.00    +0.000 HD
ENDBRANCH  23  24
ENDBRANCH   1  20
TORSDOF 3
ENDMDL
MODEL 7
REMARK VINA RESULT:      -7.5      3.829      9.751
REMARK  Name = 
REMARK  4 active torsions:
REMARK  status: ('A' for Active; 'I' for Inactive)
REMARK    1  A    between atoms: C_1  and  C_2
REMARK    2  A    between atoms: C_3  and  C_4
REMARK    3  A    between atoms: C_10  and  C_11
REMARK    4  A    between atoms: N_23  and  C_24
REMARK                            x       y       z     vdW  Elec       q    Type
REMARK                         _______ _______ _______ _____ _____    ______ ____
ROOT
ATOM      1  C   UNL     1       0.731   9.649  19.909  0.00  0.00    +0.000 C 
ATOM      2  O   UNL     1       0.016   9.165  20.792  0.00  0.00    +0.000 OA
ATOM      3  N   UNL     1       0.727  11.020  19.705  0.00  0.00    +0.000 N 
ATOM      4  C   UNL     1       1.580  11.815  18.843  0.00  0.00    +0.000 C 
ATOM      5  C   UNL     1       1.791  13.104  19.616  0.00  0.00    +0.000 C 
ATOM      6  C   UNL     1       0.530  13.281  20.454  0.00  0.00    +0.000 C 
ATOM      7  C   UNL     1      -0.103  11.885  20.553  0.00  0.00    +0.000 C 
ENDROOT
BRANCH   7   8
ATOM      8  C   UNL     1      -1.570  11.956  20.144  0.00  0.00    +0.000 A 
ATOM      9  C   UNL     1      -2.491  12.617  20.977  0.00  0.00    +0.000 A 
ATOM     10  C   UNL     1      -3.823  12.785  20.584  0.00  0.00    +0.000 A 
ATOM     11  C   UNL     1      -4.250  12.296  19.353  0.00  0.00    +0.000 A 
ATOM     12  C   UNL     1      -3.342  11.663  18.503  0.00  0.00    +0.000 A 
ATOM     13  C   UNL     1      -2.019  11.479  18.902  0.00  0.00    +0.000 A 
ATOM     14  O   UNL     1      -3.672  11.200  17.254  0.00  0.00    +0.000 OA
ATOM     15  C   UNL     1      -4.931  11.722  16.818  0.00  0.00    +0.000 C 
ATOM     16  C   UNL     1      -5.958  11.645  17.935  0.00  0.00    +0.000 C 
ATOM     17  O   UNL     1      -5.572  12.481  19.033  0.00  0.00    +0.000 OA
ENDBRANCH   7   8
BRANCH   1  20
ATOM     18  C   UNL     1       1.870   6.709  20.733  0.00  0.00    +0.000 C 
ATOM     19  C   UNL     1       2.088   7.523  19.511  0.00  0.00    +0.000 A 
ATOM     20  C   UNL     1       1.619   8.767  19.117  0.00  0.00    +0.000 A 
ATOM     21  N   UNL     1       2.119   9.027  17.857  0.00  0.00    +0.000 NA
ATOM     22  N   UNL     1       2.899   8.018  17.479  0.00  0.00    +0.000 NA
ATOM     23  N   UNL     1       2.898   7.121  18.474  0.00  0.00    +0.000 N 
BRANCH  23  24
ATOM     24  C   UNL     1       3.592   5.852  18.391  0.00  0.00    +0.000 C 
ATOM     25  C   UNL     1       2.747   4.768  17.721  0.00  0.00    +0.000 C 
ATOM     26  C   UNL     1       3.350   3.420  18.090  0.00  0.00    +0.000 C 
ATOM     27  N   UNL     1       4.744   3.314  17.651  0.00  0.00    +0.000 NA
ATOM     28  C   UNL     1       5.587   4.427  18.099  0.00  0.00    +0.000 C 
ATOM     29  C   UNL     1       4.996   5.811  17.784  0.00  0.00    +0.000 C 
ATOM     30  H   UNL     1       4.771   3.259  16.633  0.00  0.00    +0.000 HD
ENDBRANCH  23  24
ENDBRANCH   1  20
TORSDOF 3
ENDMDL
MODEL 8
REMARK VINA RESULT:      -7.4      3.592      6.428
REMARK  Name = 
REMARK  4 active torsions:
REMARK  status: ('A' for Active; 'I' for Inactive)
REMARK    1  A    between atoms: C_1  and  C_2
REMARK    2  A    between atoms: C_3  and  C_4
REMARK    3  A    between atoms: C_10  and  C_11
REMARK    4  A    between atoms: N_23  and  C_24
REMARK                            x       y       z     vdW  Elec       q    Type
REMARK                         _______ _______ _______ _____ _____    ______ ____
ROOT
ATOM      1  C   UNL     1      -0.390   9.933  18.766  0.00  0.00    +0.000 C 
ATOM      2  O   UNL     1       0.489  10.090  17.914  0.00  0.00    +0.000 OA
ATOM      3  N   UNL     1      -0.047   9.440  20.016  0.00  0.00    +0.000 N 
ATOM      4  C   UNL     1      -0.869   9.314  21.203  0.00  0.00    +0.000 C 
ATOM      5  C   UNL     1       0.082   9.615  22.347  0.00  0.00    +0.000 C 
ATOM      6  C   UNL     1       1.455   9.171  21.856  0.00  0.00    +0.000 C 
ATOM      7  C   UNL     1       1.357   9.137  20.323  0.00  0.00    +0.000 C 
ENDROOT
BRANCH   7   8
ATOM      8  C   UNL     1       1.843   7.787  19.808  0.00  0.00    +0.000 A 
ATOM      9  C   UNL     1       2.577   7.725  18.609  0.00  0.00    +0.000 A 
ATOM     10  C   UNL     1       3.120   6.515  18.162  0.00  0.00    +0.000 A 
ATOM     11  C   UNL     1       2.938   5.354  18.907  0.00  0.00    +0.000 A 
ATOM     12  C   UNL     1       2.236   5.406  20.113  0.00  0.00    +0.000 A 
ATOM     13  C   UNL     1       1.678   6.606  20.550  0.00  0.00    +0.000 A 
ATOM     14  O   UNL     1       2.057   4.317  20.930  0.00  0.00    +0.000 OA
ATOM     15  C   UNL     1       2.929   3.242  20.567  0.00  0.00    +0.000 C 
ATOM     16  C   UNL     1       2.939   3.047  19.060  0.00  0.00    +0.000 C 
ATOM     17  O   UNL     1       3.484   4.199  18.407  0.00  0.00    +0.000 OA
ENDBRANCH   7   8
BRANCH   1  20
ATOM     18  C   UNL     1      -1.999  12.571  19.799  0.00  0.00    +0.000 C 
ATOM     19  C   UNL     1      -2.437  11.450  18.931  0.00  0.00    +0.000 A 
ATOM     20  C   UNL     1      -1.787  10.319  18.462  0.00  0.00    +0.000 A 
ATOM     21  N   UNL     1      -2.670   9.629  17.656  0.00  0.00    +0.000 NA
ATOM     22  N   UNL     1      -3.838  10.265  17.641  0.00  0.00    +0.000 NA
ATOM     23  N   UNL     1      -3.709  11.349  18.417  0.00  0.00    +0.000 N 
BRANCH  23  24
ATOM     24  C   UNL     1      -4.767  12.325  18.589  0.00  0.00    +0.000 C 
ATOM     25  C   UNL     1      -5.776  12.299  17.441  0.00  0.00    +0.000 C 
ATOM     26  C   UNL     1      -6.543  13.614  17.474  0.00  0.00    +0.000 C 
ATOM     27  N   UNL     1      -7.237  13.802  18.749  0.00  0.00    +0.000 NA
ATOM     28  C   UNL     1      -6.367  13.653  19.920  0.00  0.00    +0.000 C 
ATOM     29  C   UNL     1      -5.541  12.356  19.909  0.00  0.00    +0.000 C 
ATOM     30  H   UNL     1      -8.007  13.134  18.813  0.00  0.00    +0.000 HD
ENDBRANCH  23  24
ENDBRANCH   1  20
TORSDOF 3
ENDMDL
MODEL 9
REMARK VINA RESULT:      -7.3      4.014     10.491
REMARK  Name = 
REMARK  4 active torsions:
REMARK  status: ('A' for Active; 'I' for Inactive)
REMARK    1  A    between atoms: C_1  and  C_2
REMARK    2  A    between atoms: C_3  and  C_4
REMARK    3  A    between atoms: C_10  and  C_11
REMARK    4  A    between atoms: N_23  and  C_24
REMARK                            x       y       z     vdW  Elec       q    Type
REMARK                         _______ _______ _______ _____ _____    ______ ____
ROOT
ATOM      1  C   UNL     1       0.764  10.433  20.176  0.00  0.00    +0.000 C 
ATOM      2  O   UNL     1       1.478  11.299  20.692  0.00  0.00    +0.000 OA
ATOM      3  N   UNL     1      -0.419  10.806  19.557  0.00  0.00    +0.000 N 
ATOM      4  C   UNL     1      -1.328   9.998  18.769  0.00  0.00    +0.000 C 
ATOM      5  C   UNL     1      -1.826  10.945  17.692  0.00  0.00    +0.000 C 
ATOM      6  C   UNL     1      -1.785  12.331  18.324  0.00  0.00    +0.000 C 
ATOM      7  C   UNL     1      -0.799  12.223  19.498  0.00  0.00    +0.000 C 
ENDROOT
BRANCH   7   8
ATOM      8  C   UNL     1      -1.452  12.760  20.766  0.00  0.00    +0.000 A 
ATOM      9  C   UNL     1      -2.680  12.224  21.196  0.00  0.00    +0.000 A 
ATOM     10  C   UNL     1      -3.254  12.627  22.407  0.00  0.00    +0.000 A 
ATOM     11  C   UNL     1      -2.608  13.567  23.204  0.00  0.00    +0.000 A 
ATOM     12  C   UNL     1      -1.375  14.087  22.805  0.00  0.00    +0.000 A 
ATOM     13  C   UNL     1      -0.811  13.701  21.589  0.00  0.00    +0.000 A 
ATOM     14  O   UNL     1      -0.652  14.978  23.557  0.00  0.00    +0.000 OA
ATOM     15  C   UNL     1      -1.143  15.050  24.898  0.00  0.00    +0.000 C 
ATOM     16  C   UNL     1      -2.661  15.129  24.909  0.00  0.00    +0.000 C 
ATOM     17  O   UNL     1      -3.231  13.929  24.372  0.00  0.00    +0.000 OA
ENDBRANCH   7   8
BRANCH   1  20
ATOM     18  C   UNL     1       2.309   8.822  17.802  0.00  0.00    +0.000 C 
ATOM     19  C   UNL     1       1.854   8.369  19.140  0.00  0.00    +0.000 A 
ATOM     20  C   UNL     1       1.205   9.019  20.179  0.00  0.00    +0.000 A 
ATOM     21  N   UNL     1       1.056   8.117  21.213  0.00  0.00    +0.000 NA
ATOM     22  N   UNL     1       1.550   6.940  20.841  0.00  0.00    +0.000 NA
ATOM     23  N   UNL     1       2.014   7.080  19.593  0.00  0.00    +0.000 N 
BRANCH  23  24
ATOM     24  C   UNL     1       2.686   6.014  18.878  0.00  0.00    +0.000 C 
ATOM     25  C   UNL     1       3.962   5.552  19.584  0.00  0.00    +0.000 C 
ATOM     26  C   UNL     1       4.805   4.798  18.565  0.00  0.00    +0.000 C 
ATOM     27  N   UNL     1       4.086   3.644  18.018  0.00  0.00    +0.000 NA
ATOM     28  C   UNL     1       2.760   3.975  17.487  0.00  0.00    +0.000 C 
ATOM     29  C   UNL     1       1.888   4.774  18.469  0.00  0.00    +0.000 C 
ATOM     30  H   UNL     1       3.991   2.935  18.746  0.00  0.00    +0.000 HD
ENDBRANCH  23  24
ENDBRANCH   1  20
TORSDOF 3
ENDMDL
