MODEL 1
REMARK VINA RESULT:      -8.5      0.000      0.000
REMARK  Name = 
REMARK  5 active torsions:
REMARK  status: ('A' for Active; 'I' for Inactive)
REMARK    1  A    between atoms: C_2  and  C_14
REMARK    2  A    between atoms: N_3  and  C_4
REMARK    3  A    between atoms: C_17  and  C_18
REMARK    4  A    between atoms: C_18  and  S_19
REMARK    5  A    between atoms: S_19  and  C_22
REMARK                            x       y       z     vdW  Elec       q    Type
REMARK                         _______ _______ _______ _____ _____    ______ ____
ROOT
ATOM      1  C   UNL     1       8.065   7.975  18.100  0.00  0.00    +0.000 A 
ATOM      2  C   UNL     1       8.088   6.975  19.054  0.00  0.00    +0.000 A 
ATOM      3  C   UNL     1       7.700   5.781  18.420  0.00  0.00    +0.000 A 
ATOM      4  C   UNL     1       7.448   6.103  17.103  0.00  0.00    +0.000 A 
ATOM      5  O   UNL     1       7.663   7.445  16.898  0.00  0.00    +0.000 OA
ENDROOT
BRANCH   1   7
ATOM      6  O   UNL     1       8.026  10.225  17.499  0.00  0.00    +0.000 OA
ATOM      7  C   UNL     1       8.474   9.360  18.256  0.00  0.00    +0.000 C 
ATOM      8  N   UNL     1       9.432   9.635  19.226  0.00  0.00    +0.000 N 
ATOM      9  H   UNL     1       9.997   8.853  19.529  0.00  0.00    +0.000 HD
BRANCH   8  10
ATOM     10  C   UNL     1       9.924  10.956  19.415  0.00  0.00    +0.000 A 
ATOM     11  C   UNL     1      10.828  11.489  18.486  0.00  0.00    +0.000 A 
ATOM     12  C   UNL     1      11.336  12.779  18.635  0.00  0.00    +0.000 A 
ATOM     13  C   UNL     1      10.946  13.551  19.722  0.00  0.00    +0.000 A 
ATOM     14  C   UNL     1      10.041  13.047  20.666  0.00  0.00    +0.000 A 
ATOM     15  C   UNL     1       9.531  11.733  20.524  0.00  0.00    +0.000 A 
ATOM     16  C   UNL     1       8.605  11.170  21.574  0.00  0.00    +0.000 C 
ATOM     17  C   UNL     1       8.623  11.926  22.900  0.00  0.00    +0.000 C 
ATOM     18  C   UNL     1       8.501  13.420  22.646  0.00  0.00    +0.000 C 
ATOM     19  C   UNL     1       9.715  13.909  21.866  0.00  0.00    +0.000 C 
ENDBRANCH   8  10
ENDBRANCH   1   7
BRANCH   4  20
ATOM     20  C   UNL     1       7.095   5.245  15.947  0.00  0.00    +0.000 C 
BRANCH  20  21
ATOM     21  S   UNL     1       5.399   5.466  15.456  0.00  0.00    +0.000 S 
ATOM     22  O   UNL     1       5.195   6.877  15.184  0.00  0.00    +0.000 OA
ATOM     23  O   UNL     1       5.060   4.475  14.451  0.00  0.00    +0.000 OA
BRANCH  21  24
ATOM     24  C   UNL     1       4.477   5.107  16.927  0.00  0.00    +0.000 A 
ATOM     25  C   UNL     1       4.364   3.779  17.349  0.00  0.00    +0.000 A 
ATOM     26  C   UNL     1       3.583   3.481  18.461  0.00  0.00    +0.000 A 
ATOM     27  C   UNL     1       2.949   4.508  19.160  0.00  0.00    +0.000 A 
ATOM     28  C   UNL     1       3.105   5.836  18.757  0.00  0.00    +0.000 A 
ATOM     29  C   UNL     1       3.857   6.145  17.631  0.00  0.00    +0.000 A 
ENDBRANCH  21  24
ENDBRANCH  20  21
ENDBRANCH   4  20
TORSDOF 5
ENDMDL
MODEL 2
REMARK VINA RESULT:      -8.4      5.870      7.651
REMARK  Name = 
REMARK  5 active torsions:
REMARK  status: ('A' for Active; 'I' for Inactive)
REMARK    1  A    between atoms: C_2  and  C_14
REMARK    2  A    between atoms: N_3  and  C_4
REMARK    3  A    between atoms: C_17  and  C_18
REMARK    4  A    between atoms: C_18  and  S_19
REMARK    5  A    between atoms: S_19  and  C_22
REMARK                            x       y       z     vdW  Elec       q    Type
REMARK                         _______ _______ _______ _____ _____    ______ ____
ROOT
ATOM      1  C   UNL     1       2.804   5.596  18.766  0.00  0.00    +0.000 A 
ATOM      2  C   UNL     1       2.340   4.500  18.062  0.00  0.00    +0.000 A 
ATOM      3  C   UNL     1       3.425   3.975  17.338  0.00  0.00    +0.000 A 
ATOM      4  C   UNL     1       4.509   4.779  17.624  0.00  0.00    +0.000 A 
ATOM      5  O   UNL     1       4.139   5.777  18.493  0.00  0.00    +0.000 OA
ENDROOT
BRANCH   1   7
ATOM      6  O   UNL     1       1.444   5.870  20.636  0.00  0.00    +0.000 OA
ATOM      7  C   UNL     1       2.075   6.410  19.723  0.00  0.00    +0.000 C 
ATOM      8  N   UNL     1       2.063   7.783  19.511  0.00  0.00    +0.000 N 
ATOM      9  H   UNL     1       2.278   8.092  18.573  0.00  0.00    +0.000 HD
BRANCH   8  10
ATOM     10  C   UNL     1       1.335   8.650  20.372  0.00  0.00    +0.000 A 
ATOM     11  C   UNL     1       1.484   8.520  21.761  0.00  0.00    +0.000 A 
ATOM     12  C   UNL     1       0.788   9.348  22.639  0.00  0.00    +0.000 A 
ATOM     13  C   UNL     1      -0.070  10.319  22.138  0.00  0.00    +0.000 A 
ATOM     14  C   UNL     1      -0.237  10.476  20.755  0.00  0.00    +0.000 A 
ATOM     15  C   UNL     1       0.460   9.629  19.859  0.00  0.00    +0.000 A 
ATOM     16  C   UNL     1       0.231   9.759  18.372  0.00  0.00    +0.000 C 
ATOM     17  C   UNL     1      -1.035  10.523  17.995  0.00  0.00    +0.000 C 
ATOM     18  C   UNL     1      -1.115  11.816  18.790  0.00  0.00    +0.000 C 
ATOM     19  C   UNL     1      -1.242  11.499  20.274  0.00  0.00    +0.000 C 
ENDBRANCH   8  10
ENDBRANCH   1   7
BRANCH   4  20
ATOM     20  C   UNL     1       5.932   4.662  17.225  0.00  0.00    +0.000 C 
BRANCH  20  21
ATOM     21  S   UNL     1       6.388   5.910  16.041  0.00  0.00    +0.000 S 
ATOM     22  O   UNL     1       5.285   6.847  15.933  0.00  0.00    +0.000 OA
ATOM     23  O   UNL     1       7.724   6.392  16.345  0.00  0.00    +0.000 OA
BRANCH  21  24
ATOM     24  C   UNL     1       6.448   5.037  14.500  0.00  0.00    +0.000 A 
ATOM     25  C   UNL     1       5.407   4.161  14.176  0.00  0.00    +0.000 A 
ATOM     26  C   UNL     1       5.481   3.418  13.002  0.00  0.00    +0.000 A 
ATOM     27  C   UNL     1       6.572   3.577  12.147  0.00  0.00    +0.000 A 
ATOM     28  C   UNL     1       7.584   4.487  12.457  0.00  0.00    +0.000 A 
ATOM     29  C   UNL     1       7.538   5.213  13.640  0.00  0.00    +0.000 A 
ENDBRANCH  21  24
ENDBRANCH  20  21
ENDBRANCH   4  20
TORSDOF 5
ENDMDL
MODEL 3
REMARK VINA RESULT:      -8.4      5.910      8.592
REMARK  Name = 
REMARK  5 active torsions:
REMARK  status: ('A' for Active; 'I' for Inactive)
REMARK    1  A    between atoms: C_2  and  C_14
REMARK    2  A    between atoms: N_3  and  C_4
REMARK    3  A    between atoms: C_17  and  C_18
REMARK    4  A    between atoms: C_18  and  S_19
REMARK    5  A    between atoms: S_19  and  C_22
REMARK                            x       y       z     vdW  Elec       q    Type
REMARK                         _______ _______ _______ _____ _____    ______ ____
ROOT
ATOM      1  C   UNL     1       2.057   8.111  18.978  0.00  0.00    +0.000 A 
ATOM      2  C   UNL     1       2.876   8.290  17.878  0.00  0.00    +0.000 A 
ATOM      3  C   UNL     1       3.534   7.070  17.642  0.00  0.00    +0.000 A 
ATOM      4  C   UNL     1       3.095   6.196  18.614  0.00  0.00    +0.000 A 
ATOM      5  O   UNL     1       2.195   6.824  19.441  0.00  0.00    +0.000 OA
ENDROOT
BRANCH   1   7
ATOM      6  O   UNL     1       0.680   8.888  20.688  0.00  0.00    +0.000 OA
ATOM      7  C   UNL     1       1.114   9.059  19.546  0.00  0.00    +0.000 C 
ATOM      8  N   UNL     1       0.680  10.093  18.725  0.00  0.00    +0.000 N 
ATOM      9  H   UNL     1       0.789   9.949  17.730  0.00  0.00    +0.000 HD
BRANCH   8  10
ATOM     10  C   UNL     1      -0.278  11.039  19.184  0.00  0.00    +0.000 A 
ATOM     11  C   UNL     1       0.102  11.988  20.144  0.00  0.00    +0.000 A 
ATOM     12  C   UNL     1      -0.806  12.931  20.622  0.00  0.00    +0.000 A 
ATOM     13  C   UNL     1      -2.111  12.935  20.145  0.00  0.00    +0.000 A 
ATOM     14  C   UNL     1      -2.520  12.001  19.182  0.00  0.00    +0.000 A 
ATOM     15  C   UNL     1      -1.603  11.034  18.703  0.00  0.00    +0.000 A 
ATOM     16  C   UNL     1      -2.062   9.991  17.713  0.00  0.00    +0.000 C 
ATOM     17  C   UNL     1      -3.578   9.829  17.627  0.00  0.00    +0.000 C 
ATOM     18  C   UNL     1      -4.238  11.193  17.502  0.00  0.00    +0.000 C 
ATOM     19  C   UNL     1      -3.972  12.009  18.760  0.00  0.00    +0.000 C 
ENDBRANCH   8  10
ENDBRANCH   1   7
BRANCH   4  20
ATOM     20  C   UNL     1       3.372   4.753  18.815  0.00  0.00    +0.000 C 
BRANCH  20  21
ATOM     21  S   UNL     1       5.113   4.436  18.999  0.00  0.00    +0.000 S 
ATOM     22  O   UNL     1       5.709   5.587  19.654  0.00  0.00    +0.000 OA
ATOM     23  O   UNL     1       5.301   3.107  19.553  0.00  0.00    +0.000 OA
BRANCH  21  24
ATOM     24  C   UNL     1       5.728   4.440  17.337  0.00  0.00    +0.000 A 
ATOM     25  C   UNL     1       7.039   4.866  17.100  0.00  0.00    +0.000 A 
ATOM     26  C   UNL     1       7.506   4.940  15.792  0.00  0.00    +0.000 A 
ATOM     27  C   UNL     1       6.677   4.560  14.736  0.00  0.00    +0.000 A 
ATOM     28  C   UNL     1       5.386   4.092  14.986  0.00  0.00    +0.000 A 
ATOM     29  C   UNL     1       4.897   4.042  16.285  0.00  0.00    +0.000 A 
ENDBRANCH  21  24
ENDBRANCH  20  21
ENDBRANCH   4  20
TORSDOF 5
ENDMDL
MODEL 4
REMARK VINA RESULT:      -8.3      6.041      8.590
REMARK  Name = 
REMARK  5 active torsions:
REMARK  status: ('A' for Active; 'I' for Inactive)
REMARK    1  A    between atoms: C_2  and  C_14
REMARK    2  A    between atoms: N_3  and  C_4
REMARK    3  A    between atoms: C_17  and  C_18
REMARK    4  A    between atoms: C_18  and  S_19
REMARK    5  A    between atoms: S_19  and  C_22
REMARK                            x       y       z     vdW  Elec       q    Type
REMARK                         _______ _______ _______ _____ _____    ______ ____
ROOT
ATOM      1  C   UNL     1       2.084   8.130  19.145  0.00  0.00    +0.000 A 
ATOM      2  C   UNL     1       2.730   8.168  17.924  0.00  0.00    +0.000 A 
ATOM      3  C   UNL     1       3.534   7.018  17.838  0.00  0.00    +0.000 A 
ATOM      4  C   UNL     1       3.352   6.327  19.017  0.00  0.00    +0.000 A 
ATOM      5  O   UNL     1       2.471   7.002  19.827  0.00  0.00    +0.000 OA
ENDROOT
BRANCH   1   7
ATOM      6  O   UNL     1       0.529   8.835  20.730  0.00  0.00    +0.000 OA
ATOM      7  C   UNL     1       1.080   9.053  19.648  0.00  0.00    +0.000 C 
ATOM      8  N   UNL     1       0.730  10.119  18.828  0.00  0.00    +0.000 N 
ATOM      9  H   UNL     1       0.944  10.016  17.845  0.00  0.00    +0.000 HD
BRANCH   8  10
ATOM     10  C   UNL     1      -0.277  11.044  19.220  0.00  0.00    +0.000 A 
ATOM     11  C   UNL     1       0.030  12.026  20.174  0.00  0.00    +0.000 A 
ATOM     12  C   UNL     1      -0.928  12.950  20.588  0.00  0.00    +0.000 A 
ATOM     13  C   UNL     1      -2.209  12.902  20.052  0.00  0.00    +0.000 A 
ATOM     14  C   UNL     1      -2.544  11.935  19.094  0.00  0.00    +0.000 A 
ATOM     15  C   UNL     1      -1.577  10.987  18.679  0.00  0.00    +0.000 A 
ATOM     16  C   UNL     1      -1.958   9.909  17.694  0.00  0.00    +0.000 C 
ATOM     17  C   UNL     1      -3.462   9.697  17.543  0.00  0.00    +0.000 C 
ATOM     18  C   UNL     1      -4.157  11.037  17.355  0.00  0.00    +0.000 C 
ATOM     19  C   UNL     1      -3.975  11.888  18.605  0.00  0.00    +0.000 C 
ENDBRANCH   8  10
ENDBRANCH   1   7
BRANCH   4  20
ATOM     20  C   UNL     1       3.868   5.008  19.456  0.00  0.00    +0.000 C 
BRANCH  20  21
ATOM     21  S   UNL     1       3.701   3.779  18.179  0.00  0.00    +0.000 S 
ATOM     22  O   UNL     1       3.980   2.482  18.770  0.00  0.00    +0.000 OA
ATOM     23  O   UNL     1       2.458   3.999  17.463  0.00  0.00    +0.000 OA
BRANCH  21  24
ATOM     24  C   UNL     1       5.047   4.119  17.078  0.00  0.00    +0.000 A 
ATOM     25  C   UNL     1       6.303   4.420  17.615  0.00  0.00    +0.000 A 
ATOM     26  C   UNL     1       7.347   4.759  16.761  0.00  0.00    +0.000 A 
ATOM     27  C   UNL     1       7.142   4.764  15.381  0.00  0.00    +0.000 A 
ATOM     28  C   UNL     1       5.896   4.418  14.852  0.00  0.00    +0.000 A 
ATOM     29  C   UNL     1       4.837   4.107  15.695  0.00  0.00    +0.000 A 
ENDBRANCH  21  24
ENDBRANCH  20  21
ENDBRANCH   4  20
TORSDOF 5
ENDMDL
MODEL 5
REMARK VINA RESULT:      -8.1      6.678     10.249
REMARK  Name = 
REMARK  5 active torsions:
REMARK  status: ('A' for Active; 'I' for Inactive)
REMARK    1  A    between atoms: C_2  and  C_14
REMARK    2  A    between atoms: N_3  and  C_4
REMARK    3  A    between atoms: C_17  and  C_18
REMARK    4  A    between atoms: C_18  and  S_19
REMARK    5  A    between atoms: S_19  and  C_22
REMARK                            x       y       z     vdW  Elec       q    Type
REMARK                         _______ _______ _______ _____ _____    ______ ____
ROOT
ATOM      1  C   UNL     1       1.185   9.254  18.804  0.00  0.00    +0.000 A 
ATOM      2  C   UNL     1       0.875   9.356  20.147  0.00  0.00    +0.000 A 
ATOM      3  C   UNL     1      -0.141  10.320  20.272  0.00  0.00    +0.000 A 
ATOM      4  C   UNL     1      -0.404  10.774  18.997  0.00  0.00    +0.000 A 
ATOM      5  O   UNL     1       0.405  10.132  18.092  0.00  0.00    +0.000 OA
ENDROOT
BRANCH   1   7
ATOM      6  O   UNL     1       2.583   8.585  17.065  0.00  0.00    +0.000 OA
ATOM      7  C   UNL     1       2.109   8.326  18.174  0.00  0.00    +0.000 C 
ATOM      8  N   UNL     1       2.358   7.129  18.836  0.00  0.00    +0.000 N 
ATOM      9  H   UNL     1       1.670   6.846  19.521  0.00  0.00    +0.000 HD
BRANCH   8  10
ATOM     10  C   UNL     1       3.213   6.143  18.270  0.00  0.00    +0.000 A 
ATOM     11  C   UNL     1       4.391   6.547  17.624  0.00  0.00    +0.000 A 
ATOM     12  C   UNL     1       5.255   5.614  17.055  0.00  0.00    +0.000 A 
ATOM     13  C   UNL     1       4.948   4.260  17.121  0.00  0.00    +0.000 A 
ATOM     14  C   UNL     1       3.780   3.825  17.762  0.00  0.00    +0.000 A 
ATOM     15  C   UNL     1       2.894   4.772  18.333  0.00  0.00    +0.000 A 
ATOM     16  C   UNL     1       1.606   4.305  18.968  0.00  0.00    +0.000 C 
ATOM     17  C   UNL     1       1.188   2.890  18.578  0.00  0.00    +0.000 C 
ATOM     18  C   UNL     1       2.371   1.945  18.715  0.00  0.00    +0.000 C 
ATOM     19  C   UNL     1       3.466   2.346  17.734  0.00  0.00    +0.000 C 
ENDBRANCH   8  10
ENDBRANCH   1   7
BRANCH   4  20
ATOM     20  C   UNL     1      -1.432  11.721  18.500  0.00  0.00    +0.000 C 
BRANCH  20  21
ATOM     21  S   UNL     1      -2.671  10.897  17.525  0.00  0.00    +0.000 S 
ATOM     22  O   UNL     1      -2.437  11.230  16.132  0.00  0.00    +0.000 OA
ATOM     23  O   UNL     1      -2.755   9.506  17.935  0.00  0.00    +0.000 OA
BRANCH  21  24
ATOM     24  C   UNL     1      -4.182  11.704  17.980  0.00  0.00    +0.000 A 
ATOM     25  C   UNL     1      -5.171  11.888  17.010  0.00  0.00    +0.000 A 
ATOM     26  C   UNL     1      -6.330  12.585  17.340  0.00  0.00    +0.000 A 
ATOM     27  C   UNL     1      -6.507  13.062  18.638  0.00  0.00    +0.000 A 
ATOM     28  C   UNL     1      -5.533  12.834  19.613  0.00  0.00    +0.000 A 
ATOM     29  C   UNL     1      -4.358  12.167  19.289  0.00  0.00    +0.000 A 
ENDBRANCH  21  24
ENDBRANCH  20  21
ENDBRANCH   4  20
TORSDOF 5
ENDMDL
MODEL 6
REMARK VINA RESULT:      -8.1      6.827     10.532
REMARK  Name = 
REMARK  5 active torsions:
REMARK  status: ('A' for Active; 'I' for Inactive)
REMARK    1  A    between atoms: C_2  and  C_14
REMARK    2  A    between atoms: N_3  and  C_4
REMARK    3  A    between atoms: C_17  and  C_18
REMARK    4  A    between atoms: C_18  and  S_19
REMARK    5  A    between atoms: S_19  and  C_22
REMARK                            x       y       z     vdW  Elec       q    Type
REMARK                         _______ _______ _______ _____ _____    ______ ____
ROOT
ATOM      1  C   UNL     1       1.289   8.950  20.426  0.00  0.00    +0.000 A 
ATOM      2  C   UNL     1       0.821   8.605  21.680  0.00  0.00    +0.000 A 
ATOM      3  C   UNL     1       0.292   9.769  22.266  0.00  0.00    +0.000 A 
ATOM      4  C   UNL     1       0.468  10.782  21.347  0.00  0.00    +0.000 A 
ATOM      5  O   UNL     1       1.083  10.293  20.220  0.00  0.00    +0.000 OA
ENDROOT
BRANCH   1   7
ATOM      6  O   UNL     1       1.671   8.325  18.215  0.00  0.00    +0.000 OA
ATOM      7  C   UNL     1       1.839   8.068  19.410  0.00  0.00    +0.000 C 
ATOM      8  N   UNL     1       2.475   6.913  19.848  0.00  0.00    +0.000 N 
ATOM      9  H   UNL     1       2.247   6.605  20.784  0.00  0.00    +0.000 HD
BRANCH   8  10
ATOM     10  C   UNL     1       3.001   5.971  18.922  0.00  0.00    +0.000 A 
ATOM     11  C   UNL     1       4.010   6.372  18.035  0.00  0.00    +0.000 A 
ATOM     12  C   UNL     1       4.551   5.481  17.110  0.00  0.00    +0.000 A 
ATOM     13  C   UNL     1       4.085   4.173  17.059  0.00  0.00    +0.000 A 
ATOM     14  C   UNL     1       3.079   3.741  17.935  0.00  0.00    +0.000 A 
ATOM     15  C   UNL     1       2.519   4.647  18.868  0.00  0.00    +0.000 A 
ATOM     16  C   UNL     1       1.394   4.196  19.768  0.00  0.00    +0.000 C 
ATOM     17  C   UNL     1       0.692   2.921  19.308  0.00  0.00    +0.000 C 
ATOM     18  C   UNL     1       1.723   1.860  18.960  0.00  0.00    +0.000 C 
ATOM     19  C   UNL     1       2.563   2.328  17.778  0.00  0.00    +0.000 C 
ENDBRANCH   8  10
ENDBRANCH   1   7
BRANCH   4  20
ATOM     20  C   UNL     1       0.032  12.198  21.372  0.00  0.00    +0.000 C 
BRANCH  20  21
ATOM     21  S   UNL     1      -1.436  12.453  20.398  0.00  0.00    +0.000 S 
ATOM     22  O   UNL     1      -1.313  13.738  19.734  0.00  0.00    +0.000 OA
ATOM     23  O   UNL     1      -1.707  11.257  19.622  0.00  0.00    +0.000 OA
BRANCH  21  24
ATOM     24  C   UNL     1      -2.723  12.640  21.603  0.00  0.00    +0.000 A 
ATOM     25  C   UNL     1      -2.448  12.338  22.940  0.00  0.00    +0.000 A 
ATOM     26  C   UNL     1      -3.470  12.413  23.881  0.00  0.00    +0.000 A 
ATOM     27  C   UNL     1      -4.747  12.817  23.488  0.00  0.00    +0.000 A 
ATOM     28  C   UNL     1      -5.000  13.160  22.158  0.00  0.00    +0.000 A 
ATOM     29  C   UNL     1      -3.996  13.060  21.204  0.00  0.00    +0.000 A 
ENDBRANCH  21  24
ENDBRANCH  20  21
ENDBRANCH   4  20
TORSDOF 5
ENDMDL
MODEL 7
REMARK VINA RESULT:      -8.1      6.030      7.885
REMARK  Name = 
REMARK  5 active torsions:
REMARK  status: ('A' for Active; 'I' for Inactive)
REMARK    1  A    between atoms: C_2  and  C_14
REMARK    2  A    between atoms: N_3  and  C_4
REMARK    3  A    between atoms: C_17  and  C_18
REMARK    4  A    between atoms: C_18  and  S_19
REMARK    5  A    between atoms: S_19  and  C_22
REMARK                            x       y       z     vdW  Elec       q    Type
REMARK                         _______ _______ _______ _____ _____    ______ ____
ROOT
ATOM      1  C   UNL     1       3.032   7.139  18.554  0.00  0.00    +0.000 A 
ATOM      2  C   UNL     1       3.622   7.481  17.352  0.00  0.00    +0.000 A 
ATOM      3  C   UNL     1       4.386   6.379  16.930  0.00  0.00    +0.000 A 
ATOM      4  C   UNL     1       4.238   5.409  17.900  0.00  0.00    +0.000 A 
ATOM      5  O   UNL     1       3.416   5.866  18.901  0.00  0.00    +0.000 OA
ENDROOT
BRANCH   1   7
ATOM      6  O   UNL     1       1.626   7.463  20.382  0.00  0.00    +0.000 OA
ATOM      7  C   UNL     1       2.082   7.918  19.330  0.00  0.00    +0.000 C 
ATOM      8  N   UNL     1       1.667   9.131  18.794  0.00  0.00    +0.000 N 
ATOM      9  H   UNL     1       1.794   9.246  17.797  0.00  0.00    +0.000 HD
BRANCH   8  10
ATOM     10  C   UNL     1       0.704   9.936  19.463  0.00  0.00    +0.000 A 
ATOM     11  C   UNL     1       0.950  10.344  20.782  0.00  0.00    +0.000 A 
ATOM     12  C   UNL     1       0.031  11.131  21.474  0.00  0.00    +0.000 A 
ATOM     13  C   UNL     1      -1.150  11.519  20.854  0.00  0.00    +0.000 A 
ATOM     14  C   UNL     1      -1.423  11.129  19.535  0.00  0.00    +0.000 A 
ATOM     15  C   UNL     1      -0.497  10.320  18.833  0.00  0.00    +0.000 A 
ATOM     16  C   UNL     1      -0.821   9.850  17.435  0.00  0.00    +0.000 C 
ATOM     17  C   UNL     1      -2.297   9.959  17.060  0.00  0.00    +0.000 C 
ATOM     18  C   UNL     1      -2.825  11.336  17.433  0.00  0.00    +0.000 C 
ATOM     19  C   UNL     1      -2.759  11.519  18.943  0.00  0.00    +0.000 C 
ENDBRANCH   8  10
ENDBRANCH   1   7
BRANCH   4  20
ATOM     20  C   UNL     1       4.733   4.013  17.955  0.00  0.00    +0.000 C 
BRANCH  20  21
ATOM     21  S   UNL     1       3.417   2.837  17.728  0.00  0.00    +0.000 S 
ATOM     22  O   UNL     1       2.482   3.395  16.768  0.00  0.00    +0.000 OA
ATOM     23  O   UNL     1       3.985   1.520  17.507  0.00  0.00    +0.000 OA
BRANCH  21  24
ATOM     24  C   UNL     1       2.577   2.828  19.288  0.00  0.00    +0.000 A 
ATOM     25  C   UNL     1       1.215   3.143  19.327  0.00  0.00    +0.000 A 
ATOM     26  C   UNL     1       0.564   3.208  20.555  0.00  0.00    +0.000 A 
ATOM     27  C   UNL     1       1.265   2.929  21.728  0.00  0.00    +0.000 A 
ATOM     28  C   UNL     1       2.614   2.571  21.675  0.00  0.00    +0.000 A 
ATOM     29  C   UNL     1       3.283   2.532  20.459  0.00  0.00    +0.000 A 
ENDBRANCH  21  24
ENDBRANCH  20  21
ENDBRANCH   4  20
TORSDOF 5
ENDMDL
MODEL 8
REMARK VINA RESULT:      -8.0      1.188      1.351
REMARK  Name = 
REMARK  5 active torsions:
REMARK  status: ('A' for Active; 'I' for Inactive)
REMARK    1  A    between atoms: C_2  and  C_14
REMARK    2  A    between atoms: N_3  and  C_4
REMARK    3  A    between atoms: C_17  and  C_18
REMARK    4  A    between atoms: C_18  and  S_19
REMARK    5  A    between atoms: S_19  and  C_22
REMARK                            x       y       z     vdW  Elec       q    Type
REMARK                         _______ _______ _______ _____ _____    ______ ____
ROOT
ATOM      1  C   UNL     1       8.157   8.604  18.208  0.00  0.00    +0.000 A 
ATOM      2  C   UNL     1       8.457   7.499  18.982  0.00  0.00    +0.000 A 
ATOM      3  C   UNL     1       7.758   6.405  18.441  0.00  0.00    +0.000 A 
ATOM      4  C   UNL     1       7.051   6.890  17.361  0.00  0.00    +0.000 A 
ATOM      5  O   UNL     1       7.284   8.236  17.213  0.00  0.00    +0.000 OA
ENDROOT
BRANCH   1   7
ATOM      6  O   UNL     1       8.324  10.835  17.560  0.00  0.00    +0.000 OA
ATOM      7  C   UNL     1       8.710   9.943  18.320  0.00  0.00    +0.000 C 
ATOM      8  N   UNL     1       9.726  10.135  19.248  0.00  0.00    +0.000 N 
ATOM      9  H   UNL     1      10.220   9.305  19.548  0.00  0.00    +0.000 HD
BRANCH   8  10
ATOM     10  C   UNL     1      10.357  11.402  19.392  0.00  0.00    +0.000 A 
ATOM     11  C   UNL     1      11.398  11.752  18.519  0.00  0.00    +0.000 A 
ATOM     12  C   UNL     1      12.043  12.982  18.627  0.00  0.00    +0.000 A 
ATOM     13  C   UNL     1      11.655  13.880  19.614  0.00  0.00    +0.000 A 
ATOM     14  C   UNL     1      10.616  13.560  20.499  0.00  0.00    +0.000 A 
ATOM     15  C   UNL     1       9.965  12.307  20.400  0.00  0.00    +0.000 A 
ATOM     16  C   UNL     1       8.888  11.940  21.392  0.00  0.00    +0.000 C 
ATOM     17  C   UNL     1       8.881  12.793  22.658  0.00  0.00    +0.000 C 
ATOM     18  C   UNL     1       8.964  14.266  22.289  0.00  0.00    +0.000 C 
ATOM     19  C   UNL     1      10.292  14.548  21.598  0.00  0.00    +0.000 C 
ENDBRANCH   8  10
ENDBRANCH   1   7
BRANCH   4  20
ATOM     20  C   UNL     1       6.213   6.189  16.360  0.00  0.00    +0.000 C 
BRANCH  20  21
ATOM     21  S   UNL     1       5.983   4.474  16.777  0.00  0.00    +0.000 S 
ATOM     22  O   UNL     1       6.083   3.700  15.553  0.00  0.00    +0.000 OA
ATOM     23  O   UNL     1       6.821   4.144  17.916  0.00  0.00    +0.000 OA
BRANCH  21  24
ATOM     24  C   UNL     1       4.288   4.380  17.285  0.00  0.00    +0.000 A 
ATOM     25  C   UNL     1       3.660   3.131  17.321  0.00  0.00    +0.000 A 
ATOM     26  C   UNL     1       2.310   3.056  17.649  0.00  0.00    +0.000 A 
ATOM     27  C   UNL     1       1.607   4.218  17.969  0.00  0.00    +0.000 A 
ATOM     28  C   UNL     1       2.255   5.454  17.975  0.00  0.00    +0.000 A 
ATOM     29  C   UNL     1       3.595   5.547  17.620  0.00  0.00    +0.000 A 
ENDBRANCH  21  24
ENDBRANCH  20  21
ENDBRANCH   4  20
TORSDOF 5
ENDMDL
MODEL 9
REMARK VINA RESULT:      -8.0      1.259      1.665
REMARK  Name = 
REMARK  5 active torsions:
REMARK  status: ('A' for Active; 'I' for Inactive)
REMARK    1  A    between atoms: C_2  and  C_14
REMARK    2  A    between atoms: N_3  and  C_4
REMARK    3  A    between atoms: C_17  and  C_18
REMARK    4  A    between atoms: C_18  and  S_19
REMARK    5  A    between atoms: S_19  and  C_22
REMARK                            x       y       z     vdW  Elec       q    Type
REMARK                         _______ _______ _______ _____ _____    ______ ____
ROOT
ATOM      1  C   UNL     1       8.105   8.378  18.212  0.00  0.00    +0.000 A 
ATOM      2  C   UNL     1       8.437   7.328  19.048  0.00  0.00    +0.000 A 
ATOM      3  C   UNL     1       7.800   6.178  18.551  0.00  0.00    +0.000 A 
ATOM      4  C   UNL     1       7.095   6.574  17.434  0.00  0.00    +0.000 A 
ATOM      5  O   UNL     1       7.271   7.920  17.220  0.00  0.00    +0.000 OA
ENDROOT
BRANCH   1   7
ATOM      6  O   UNL     1       8.101  10.606  17.533  0.00  0.00    +0.000 OA
ATOM      7  C   UNL     1       8.595   9.745  18.265  0.00  0.00    +0.000 C 
ATOM      8  N   UNL     1       9.673  10.001  19.104  0.00  0.00    +0.000 N 
ATOM      9  H   UNL     1      10.232   9.201  19.369  0.00  0.00    +0.000 HD
BRANCH   8  10
ATOM     10  C   UNL     1      10.246  11.300  19.183  0.00  0.00    +0.000 A 
ATOM     11  C   UNL     1      11.164  11.704  18.203  0.00  0.00    +0.000 A 
ATOM     12  C   UNL     1      11.750  12.968  18.245  0.00  0.00    +0.000 A 
ATOM     13  C   UNL     1      11.427  13.845  19.273  0.00  0.00    +0.000 A 
ATOM     14  C   UNL     1      10.510  13.470  20.266  0.00  0.00    +0.000 A 
ATOM     15  C   UNL     1       9.921  12.183  20.233  0.00  0.00    +0.000 A 
ATOM     16  C   UNL     1       8.981  11.760  21.337  0.00  0.00    +0.000 C 
ATOM     17  C   UNL     1       9.068  12.613  22.599  0.00  0.00    +0.000 C 
ATOM     18  C   UNL     1       9.031  14.088  22.230  0.00  0.00    +0.000 C 
ATOM     19  C   UNL     1      10.257  14.440  21.399  0.00  0.00    +0.000 C 
ENDBRANCH   8  10
ENDBRANCH   1   7
BRANCH   4  20
ATOM     20  C   UNL     1       6.311   5.786  16.453  0.00  0.00    +0.000 C 
BRANCH  20  21
ATOM     21  S   UNL     1       5.080   4.779  17.252  0.00  0.00    +0.000 S 
ATOM     22  O   UNL     1       4.317   4.103  16.217  0.00  0.00    +0.000 OA
ATOM     23  O   UNL     1       5.706   4.010  18.312  0.00  0.00    +0.000 OA
BRANCH  21  24
ATOM     24  C   UNL     1       3.979   5.954  17.991  0.00  0.00    +0.000 A 
ATOM     25  C   UNL     1       3.377   5.643  19.214  0.00  0.00    +0.000 A 
ATOM     26  C   UNL     1       2.456   6.528  19.766  0.00  0.00    +0.000 A 
ATOM     27  C   UNL     1       2.168   7.727  19.113  0.00  0.00    +0.000 A 
ATOM     28  C   UNL     1       2.808   8.049  17.915  0.00  0.00    +0.000 A 
ATOM     29  C   UNL     1       3.706   7.161  17.338  0.00  0.00    +0.000 A 
ENDBRANCH  21  24
ENDBRANCH  20  21
ENDBRANCH   4  20
TORSDOF 5
ENDMDL
