MODEL 1
REMARK VINA RESULT:      -8.1      0.000      0.000
REMARK  Name = 
REMARK  5 active torsions:
REMARK  status: ('A' for Active; 'I' for Inactive)
REMARK    1  A    between atoms: C_1  and  C_2
REMARK    2  A    between atoms: C_6  and  C_7
REMARK    3  A    between atoms: C_11  and  C_12
REMARK    4  A    between atoms: C_14  and  C_15
REMARK    5  A    between atoms: C_20  and  C_21
REMARK                            x       y       z     vdW  Elec       q    Type
REMARK                         _______ _______ _______ _____ _____    ______ ____
ROOT
ATOM      1  C   UNL     1       2.617   4.947  17.951  0.00  0.00    +0.000 C 
ATOM      2  O   UNL     1       1.822   5.802  17.560  0.00  0.00    +0.000 OA
ATOM      3  N   UNL     1       3.987   5.127  17.758  0.00  0.00    +0.000 N 
ATOM      4  C   UNL     1       4.486   6.347  17.142  0.00  0.00    +0.000 C 
ATOM      5  C   UNL     1       5.950   6.031  16.835  0.00  0.00    +0.000 C 
ATOM      6  C   UNL     1       6.373   5.118  18.009  0.00  0.00    +0.000 C 
ATOM      7  C   UNL     1       5.058   4.495  18.520  0.00  0.00    +0.000 C 
ENDROOT
BRANCH   1  13
ATOM      8  C   UNL     1       1.654   4.586  21.033  0.00  0.00    +0.000 C 
ATOM      9  C   UNL     1       1.726   3.547  19.968  0.00  0.00    +0.000 A 
ATOM     10  C   UNL     1       1.387   2.216  20.136  0.00  0.00    +0.000 A 
ATOM     11  N   UNL     1       1.506   1.587  18.932  0.00  0.00    +0.000 N 
ATOM     12  C   UNL     1       1.907   2.494  17.988  0.00  0.00    +0.000 A 
ATOM     13  C   UNL     1       2.151   3.714  18.602  0.00  0.00    +0.000 A 
ATOM     14  H   UNL     1       1.293   0.613  18.756  0.00  0.00    +0.000 HD
ENDBRANCH   1  13
BRANCH   5  15
ATOM     15  C   UNL     1       6.114   5.368  15.492  0.00  0.00    +0.000 A 
ATOM     16  N   UNL     1       5.275   4.540  14.903  0.00  0.00    +0.000 NA
ATOM     17  C   UNL     1       5.973   4.098  13.804  0.00  0.00    +0.000 A 
ATOM     18  N   UNL     1       7.170   4.670  13.642  0.00  0.00    +0.000 NA
ATOM     19  N   UNL     1       7.247   5.456  14.726  0.00  0.00    +0.000 N 
ATOM     20  H   UNL     1       8.106   5.961  14.915  0.00  0.00    +0.000 HD
BRANCH  17  21
ATOM     21  C   UNL     1       5.506   2.972  12.893  0.00  0.00    +0.000 C 
ATOM     22  C   UNL     1       6.097   2.787  11.512  0.00  0.00    +0.000 C 
ATOM     23  C   UNL     1       4.732   3.368  11.649  0.00  0.00    +0.000 C 
ENDBRANCH  17  21
ENDBRANCH   5  15
BRANCH   6  24
ATOM     24  C   UNL     1       7.060   5.887  19.119  0.00  0.00    +0.000 C 
ATOM     25  C   UNL     1       8.200   6.820  18.820  0.00  0.00    +0.000 C 
ATOM     26  C   UNL     1       8.470   5.513  19.508  0.00  0.00    +0.000 C 
ENDBRANCH   6  24
TORSDOF 4
ENDMDL
MODEL 2
REMARK VINA RESULT:      -7.9      0.684      1.292
REMARK  Name = 
REMARK  5 active torsions:
REMARK  status: ('A' for Active; 'I' for Inactive)
REMARK    1  A    between atoms: C_1  and  C_2
REMARK    2  A    between atoms: C_6  and  C_7
REMARK    3  A    between atoms: C_11  and  C_12
REMARK    4  A    between atoms: C_14  and  C_15
REMARK    5  A    between atoms: C_20  and  C_21
REMARK                            x       y       z     vdW  Elec       q    Type
REMARK                         _______ _______ _______ _____ _____    ______ ____
ROOT
ATOM      1  C   UNL     1       2.548   5.544  18.154  0.00  0.00    +0.000 C 
ATOM      2  O   UNL     1       1.896   6.516  17.770  0.00  0.00    +0.000 OA
ATOM      3  N   UNL     1       3.930   5.513  17.970  0.00  0.00    +0.000 N 
ATOM      4  C   UNL     1       4.615   6.648  17.371  0.00  0.00    +0.000 C 
ATOM      5  C   UNL     1       6.015   6.114  17.067  0.00  0.00    +0.000 C 
ATOM      6  C   UNL     1       6.284   5.133  18.231  0.00  0.00    +0.000 C 
ATOM      7  C   UNL     1       4.885   4.714  18.728  0.00  0.00    +0.000 C 
ENDROOT
BRANCH   1  13
ATOM      8  C   UNL     1       2.605   2.451  17.161  0.00  0.00    +0.000 C 
ATOM      9  C   UNL     1       1.911   3.018  18.351  0.00  0.00    +0.000 A 
ATOM     10  C   UNL     1       1.149   2.289  19.246  0.00  0.00    +0.000 A 
ATOM     11  N   UNL     1       0.737   3.125  20.242  0.00  0.00    +0.000 N 
ATOM     12  C   UNL     1       1.230   4.381  20.007  0.00  0.00    +0.000 A 
ATOM     13  C   UNL     1       1.892   4.390  18.787  0.00  0.00    +0.000 A 
ATOM     14  H   UNL     1       0.189   2.852  21.047  0.00  0.00    +0.000 HD
ENDBRANCH   1  13
BRANCH   5  15
ATOM     15  C   UNL     1       6.084   5.450  15.717  0.00  0.00    +0.000 A 
ATOM     16  N   UNL     1       5.157   4.707  15.145  0.00  0.00    +0.000 NA
ATOM     17  C   UNL     1       5.784   4.212  14.026  0.00  0.00    +0.000 A 
ATOM     18  N   UNL     1       7.024   4.672  13.836  0.00  0.00    +0.000 NA
ATOM     19  N   UNL     1       7.200   5.439  14.922  0.00  0.00    +0.000 N 
ATOM     20  H   UNL     1       8.107   5.862  15.092  0.00  0.00    +0.000 HD
BRANCH  17  21
ATOM     21  C   UNL     1       5.192   3.141  13.121  0.00  0.00    +0.000 C 
ATOM     22  C   UNL     1       5.862   2.760  11.818  0.00  0.00    +0.000 C 
ATOM     23  C   UNL     1       4.630   3.599  11.786  0.00  0.00    +0.000 C 
ENDBRANCH  17  21
ENDBRANCH   5  15
BRANCH   6  24
ATOM     24  C   UNL     1       7.075   5.773  19.354  0.00  0.00    +0.000 C 
ATOM     25  C   UNL     1       8.229   6.690  19.060  0.00  0.00    +0.000 C 
ATOM     26  C   UNL     1       8.491   5.318  19.609  0.00  0.00    +0.000 C 
ENDBRANCH   6  24
TORSDOF 4
ENDMDL
MODEL 3
REMARK VINA RESULT:      -7.6      2.638      5.281
REMARK  Name = 
REMARK  5 active torsions:
REMARK  status: ('A' for Active; 'I' for Inactive)
REMARK    1  A    between atoms: C_1  and  C_2
REMARK    2  A    between atoms: C_6  and  C_7
REMARK    3  A    between atoms: C_11  and  C_12
REMARK    4  A    between atoms: C_14  and  C_15
REMARK    5  A    between atoms: C_20  and  C_21
REMARK                            x       y       z     vdW  Elec       q    Type
REMARK                         _______ _______ _______ _____ _____    ______ ____
ROOT
ATOM      1  C   UNL     1       4.712   3.996  19.117  0.00  0.00    +0.000 C 
ATOM      2  O   UNL     1       5.385   3.178  19.745  0.00  0.00    +0.000 OA
ATOM      3  N   UNL     1       5.290   4.723  18.075  0.00  0.00    +0.000 N 
ATOM      4  C   UNL     1       6.673   4.483  17.693  0.00  0.00    +0.000 C 
ATOM      5  C   UNL     1       7.005   5.652  16.765  0.00  0.00    +0.000 C 
ATOM      6  C   UNL     1       5.672   5.916  16.030  0.00  0.00    +0.000 C 
ATOM      7  C   UNL     1       4.583   5.359  16.970  0.00  0.00    +0.000 C 
ENDROOT
BRANCH   1  13
ATOM      8  C   UNL     1       2.122   2.259  18.205  0.00  0.00    +0.000 C 
ATOM      9  C   UNL     1       2.152   3.482  19.055  0.00  0.00    +0.000 A 
ATOM     10  C   UNL     1       1.038   4.094  19.601  0.00  0.00    +0.000 A 
ATOM     11  N   UNL     1       1.456   5.136  20.376  0.00  0.00    +0.000 N 
ATOM     12  C   UNL     1       2.823   5.198  20.345  0.00  0.00    +0.000 A 
ATOM     13  C   UNL     1       3.304   4.246  19.458  0.00  0.00    +0.000 A 
ATOM     14  H   UNL     1       0.854   5.740  20.919  0.00  0.00    +0.000 HD
ENDBRANCH   1  13
BRANCH   5  15
ATOM     15  C   UNL     1       7.499   6.854  17.528  0.00  0.00    +0.000 A 
ATOM     16  N   UNL     1       7.417   8.118  17.166  0.00  0.00    +0.000 NA
ATOM     17  C   UNL     1       8.164   8.776  18.114  0.00  0.00    +0.000 A 
ATOM     18  N   UNL     1       8.639   7.993  19.086  0.00  0.00    +0.000 NA
ATOM     19  N   UNL     1       8.222   6.782  18.690  0.00  0.00    +0.000 N 
ATOM     20  H   UNL     1       8.516   5.960  19.207  0.00  0.00    +0.000 HD
BRANCH  17  21
ATOM     21  C   UNL     1       8.537  10.250  18.033  0.00  0.00    +0.000 C 
ATOM     22  C   UNL     1       9.982  10.696  18.096  0.00  0.00    +0.000 C 
ATOM     23  C   UNL     1       9.108  10.886  19.287  0.00  0.00    +0.000 C 
ENDBRANCH  17  21
ENDBRANCH   5  15
BRANCH   6  24
ATOM     24  C   UNL     1       5.611   5.226  14.682  0.00  0.00    +0.000 C 
ATOM     25  C   UNL     1       6.049   3.797  14.526  0.00  0.00    +0.000 C 
ATOM     26  C   UNL     1       6.898   4.901  13.964  0.00  0.00    +0.000 C 
ENDBRANCH   6  24
TORSDOF 4
ENDMDL
MODEL 4
REMARK VINA RESULT:      -7.2      1.122      1.697
REMARK  Name = 
REMARK  5 active torsions:
REMARK  status: ('A' for Active; 'I' for Inactive)
REMARK    1  A    between atoms: C_1  and  C_2
REMARK    2  A    between atoms: C_6  and  C_7
REMARK    3  A    between atoms: C_11  and  C_12
REMARK    4  A    between atoms: C_14  and  C_15
REMARK    5  A    between atoms: C_20  and  C_21
REMARK                            x       y       z     vdW  Elec       q    Type
REMARK                         _______ _______ _______ _____ _____    ______ ____
ROOT
ATOM      1  C   UNL     1       3.492   6.219  17.951  0.00  0.00    +0.000 C 
ATOM      2  O   UNL     1       3.093   7.339  17.632  0.00  0.00    +0.000 OA
ATOM      3  N   UNL     1       4.781   5.812  17.605  0.00  0.00    +0.000 N 
ATOM      4  C   UNL     1       5.676   6.726  16.912  0.00  0.00    +0.000 C 
ATOM      5  C   UNL     1       6.829   5.832  16.453  0.00  0.00    +0.000 C 
ATOM      6  C   UNL     1       6.954   4.795  17.592  0.00  0.00    +0.000 C 
ATOM      7  C   UNL     1       5.562   4.768  18.258  0.00  0.00    +0.000 C 
ENDROOT
BRANCH   1  13
ATOM      8  C   UNL     1       2.524   3.274  16.976  0.00  0.00    +0.000 C 
ATOM      9  C   UNL     1       2.189   3.974  18.248  0.00  0.00    +0.000 A 
ATOM     10  C   UNL     1       1.377   3.462  19.244  0.00  0.00    +0.000 A 
ATOM     11  N   UNL     1       1.361   4.345  20.282  0.00  0.00    +0.000 N 
ATOM     12  C   UNL     1       2.158   5.415  19.975  0.00  0.00    +0.000 A 
ATOM     13  C   UNL     1       2.624   5.279  18.675  0.00  0.00    +0.000 A 
ATOM     14  H   UNL     1       0.871   4.212  21.157  0.00  0.00    +0.000 HD
ENDBRANCH   1  13
BRANCH   5  15
ATOM     15  C   UNL     1       6.553   5.199  15.114  0.00  0.00    +0.000 A 
ATOM     16  N   UNL     1       5.499   4.486  14.772  0.00  0.00    +0.000 NA
ATOM     17  C   UNL     1       5.824   4.007  13.525  0.00  0.00    +0.000 A 
ATOM     18  N   UNL     1       6.991   4.450  13.047  0.00  0.00    +0.000 NA
ATOM     19  N   UNL     1       7.442   5.188  14.072  0.00  0.00    +0.000 N 
ATOM     20  H   UNL     1       8.372   5.592  14.024  0.00  0.00    +0.000 HD
BRANCH  17  21
ATOM     21  C   UNL     1       5.006   2.967  12.771  0.00  0.00    +0.000 C 
ATOM     22  C   UNL     1       5.499   2.381  11.466  0.00  0.00    +0.000 C 
ATOM     23  C   UNL     1       4.406   3.393  11.443  0.00  0.00    +0.000 C 
ENDBRANCH  17  21
ENDBRANCH   5  15
BRANCH   6  24
ATOM     24  C   UNL     1       8.017   5.174  18.603  0.00  0.00    +0.000 C 
ATOM     25  C   UNL     1       7.638   5.682  19.966  0.00  0.00    +0.000 C 
ATOM     26  C   UNL     1       8.213   6.629  18.953  0.00  0.00    +0.000 C 
ENDBRANCH   6  24
TORSDOF 4
ENDMDL
MODEL 5
REMARK VINA RESULT:      -6.9      1.221      1.362
REMARK  Name = 
REMARK  5 active torsions:
REMARK  status: ('A' for Active; 'I' for Inactive)
REMARK    1  A    between atoms: C_1  and  C_2
REMARK    2  A    between atoms: C_6  and  C_7
REMARK    3  A    between atoms: C_11  and  C_12
REMARK    4  A    between atoms: C_14  and  C_15
REMARK    5  A    between atoms: C_20  and  C_21
REMARK                            x       y       z     vdW  Elec       q    Type
REMARK                         _______ _______ _______ _____ _____    ______ ____
ROOT
ATOM      1  C   UNL     1       3.239   4.909  18.294  0.00  0.00    +0.000 C 
ATOM      2  O   UNL     1       2.143   5.275  17.869  0.00  0.00    +0.000 OA
ATOM      3  N   UNL     1       4.410   5.471  17.782  0.00  0.00    +0.000 N 
ATOM      4  C   UNL     1       4.340   6.525  16.782  0.00  0.00    +0.000 C 
ATOM      5  C   UNL     1       5.776   6.642  16.271  0.00  0.00    +0.000 C 
ATOM      6  C   UNL     1       6.628   6.347  17.527  0.00  0.00    +0.000 C 
ATOM      7  C   UNL     1       5.709   5.513  18.443  0.00  0.00    +0.000 C 
ENDROOT
BRANCH   1  13
ATOM      8  C   UNL     1       1.172   4.319  20.730  0.00  0.00    +0.000 C 
ATOM      9  C   UNL     1       2.436   3.600  20.408  0.00  0.00    +0.000 A 
ATOM     10  C   UNL     1       2.949   2.536  21.128  0.00  0.00    +0.000 A 
ATOM     11  N   UNL     1       4.073   2.091  20.496  0.00  0.00    +0.000 N 
ATOM     12  C   UNL     1       4.288   2.847  19.375  0.00  0.00    +0.000 A 
ATOM     13  C   UNL     1       3.347   3.866  19.324  0.00  0.00    +0.000 A 
ATOM     14  H   UNL     1       4.636   1.302  20.788  0.00  0.00    +0.000 HD
ENDBRANCH   1  13
BRANCH   5  15
ATOM     15  C   UNL     1       6.052   5.685  15.141  0.00  0.00    +0.000 A 
ATOM     16  N   UNL     1       5.185   4.906  14.526  0.00  0.00    +0.000 NA
ATOM     17  C   UNL     1       5.971   4.122  13.716  0.00  0.00    +0.000 A 
ATOM     18  N   UNL     1       7.271   4.428  13.742  0.00  0.00    +0.000 NA
ATOM     19  N   UNL     1       7.304   5.405  14.659  0.00  0.00    +0.000 N 
ATOM     20  H   UNL     1       8.198   5.784  14.953  0.00  0.00    +0.000 HD
BRANCH  17  21
ATOM     21  C   UNL     1       5.458   2.923  12.931  0.00  0.00    +0.000 C 
ATOM     22  C   UNL     1       6.064   2.543  11.597  0.00  0.00    +0.000 C 
ATOM     23  C   UNL     1       4.732   3.210  11.629  0.00  0.00    +0.000 C 
ENDBRANCH  17  21
ENDBRANCH   5  15
BRANCH   6  24
ATOM     24  C   UNL     1       7.071   7.613  18.233  0.00  0.00    +0.000 C 
ATOM     25  C   UNL     1       7.919   8.634  17.528  0.00  0.00    +0.000 C 
ATOM     26  C   UNL     1       8.525   7.778  18.602  0.00  0.00    +0.000 C 
ENDBRANCH   6  24
TORSDOF 4
ENDMDL
MODEL 6
REMARK VINA RESULT:      -6.9      3.515      5.877
REMARK  Name = 
REMARK  5 active torsions:
REMARK  status: ('A' for Active; 'I' for Inactive)
REMARK    1  A    between atoms: C_1  and  C_2
REMARK    2  A    between atoms: C_6  and  C_7
REMARK    3  A    between atoms: C_11  and  C_12
REMARK    4  A    between atoms: C_14  and  C_15
REMARK    5  A    between atoms: C_20  and  C_21
REMARK                            x       y       z     vdW  Elec       q    Type
REMARK                         _______ _______ _______ _____ _____    ______ ____
ROOT
ATOM      1  C   UNL     1       1.974   7.667  20.127  0.00  0.00    +0.000 C 
ATOM      2  O   UNL     1       2.053   7.757  21.353  0.00  0.00    +0.000 OA
ATOM      3  N   UNL     1       2.389   6.501  19.484  0.00  0.00    +0.000 N 
ATOM      4  C   UNL     1       2.868   5.367  20.260  0.00  0.00    +0.000 C 
ATOM      5  C   UNL     1       3.497   4.446  19.214  0.00  0.00    +0.000 C 
ATOM      6  C   UNL     1       2.601   4.650  17.972  0.00  0.00    +0.000 C 
ATOM      7  C   UNL     1       1.965   6.043  18.166  0.00  0.00    +0.000 C 
ENDROOT
BRANCH   1  13
ATOM      8  C   UNL     1      -0.389   9.761  20.895  0.00  0.00    +0.000 C 
ATOM      9  C   UNL     1       0.421   9.712  19.646  0.00  0.00    +0.000 A 
ATOM     10  C   UNL     1       0.281  10.578  18.576  0.00  0.00    +0.000 A 
ATOM     11  N   UNL     1       1.236  10.277  17.651  0.00  0.00    +0.000 N 
ATOM     12  C   UNL     1       1.997   9.236  18.112  0.00  0.00    +0.000 A 
ATOM     13  C   UNL     1       1.470   8.782  19.313  0.00  0.00    +0.000 A 
ATOM     14  H   UNL     1       1.386  10.771  16.781  0.00  0.00    +0.000 HD
ENDBRANCH   1  13
BRANCH   5  15
ATOM     15  C   UNL     1       4.941   4.789  18.956  0.00  0.00    +0.000 A 
ATOM     16  N   UNL     1       5.429   5.957  18.586  0.00  0.00    +0.000 NA
ATOM     17  C   UNL     1       6.750   5.685  18.320  0.00  0.00    +0.000 A 
ATOM     18  N   UNL     1       7.121   4.428  18.580  0.00  0.00    +0.000 NA
ATOM     19  N   UNL     1       5.962   3.875  18.965  0.00  0.00    +0.000 N 
ATOM     20  H   UNL     1       5.922   2.878  19.150  0.00  0.00    +0.000 HD
BRANCH  17  21
ATOM     21  C   UNL     1       7.710   6.674  17.673  0.00  0.00    +0.000 C 
ATOM     22  C   UNL     1       8.274   7.842  18.454  0.00  0.00    +0.000 C 
ATOM     23  C   UNL     1       7.200   8.086  17.451  0.00  0.00    +0.000 C 
ENDBRANCH  17  21
ENDBRANCH   5  15
BRANCH   6  24
ATOM     24  C   UNL     1       1.525   3.590  17.855  0.00  0.00    +0.000 C 
ATOM     25  C   UNL     1       0.999   2.888  19.076  0.00  0.00    +0.000 C 
ATOM     26  C   UNL     1       1.885   2.147  18.116  0.00  0.00    +0.000 C 
ENDBRANCH   6  24
TORSDOF 4
ENDMDL
MODEL 7
REMARK VINA RESULT:      -6.6      1.003      1.688
REMARK  Name = 
REMARK  5 active torsions:
REMARK  status: ('A' for Active; 'I' for Inactive)
REMARK    1  A    between atoms: C_1  and  C_2
REMARK    2  A    between atoms: C_6  and  C_7
REMARK    3  A    between atoms: C_11  and  C_12
REMARK    4  A    between atoms: C_14  and  C_15
REMARK    5  A    between atoms: C_20  and  C_21
REMARK                            x       y       z     vdW  Elec       q    Type
REMARK                         _______ _______ _______ _____ _____    ______ ____
ROOT
ATOM      1  C   UNL     1       2.576   5.480  18.395  0.00  0.00    +0.000 C 
ATOM      2  O   UNL     1       1.932   6.411  17.911  0.00  0.00    +0.000 OA
ATOM      3  N   UNL     1       3.957   5.410  18.201  0.00  0.00    +0.000 N 
ATOM      4  C   UNL     1       4.648   6.461  17.471  0.00  0.00    +0.000 C 
ATOM      5  C   UNL     1       6.038   5.877  17.215  0.00  0.00    +0.000 C 
ATOM      6  C   UNL     1       6.309   5.030  18.479  0.00  0.00    +0.000 C 
ATOM      7  C   UNL     1       4.911   4.689  19.035  0.00  0.00    +0.000 C 
ENDROOT
BRANCH   1  13
ATOM      8  C   UNL     1       2.381   2.328  17.628  0.00  0.00    +0.000 C 
ATOM      9  C   UNL     1       1.822   3.016  18.826  0.00  0.00    +0.000 A 
ATOM     10  C   UNL     1       1.099   2.397  19.830  0.00  0.00    +0.000 A 
ATOM     11  N   UNL     1       0.819   3.322  20.791  0.00  0.00    +0.000 N 
ATOM     12  C   UNL     1       1.358   4.526  20.427  0.00  0.00    +0.000 A 
ATOM     13  C   UNL     1       1.915   4.413  19.161  0.00  0.00    +0.000 A 
ATOM     14  H   UNL     1       0.327   3.138  21.656  0.00  0.00    +0.000 HD
ENDBRANCH   1  13
BRANCH   5  15
ATOM     15  C   UNL     1       6.083   5.065  15.948  0.00  0.00    +0.000 A 
ATOM     16  N   UNL     1       7.123   4.867  15.163  0.00  0.00    +0.000 NA
ATOM     17  C   UNL     1       6.590   4.218  14.075  0.00  0.00    +0.000 A 
ATOM     18  N   UNL     1       5.288   3.937  14.181  0.00  0.00    +0.000 NA
ATOM     19  N   UNL     1       4.983   4.493  15.362  0.00  0.00    +0.000 N 
ATOM     20  H   UNL     1       4.017   4.508  15.672  0.00  0.00    +0.000 HD
BRANCH  17  21
ATOM     21  C   UNL     1       7.358   3.933  12.792  0.00  0.00    +0.000 C 
ATOM     22  C   UNL     1       7.285   4.876  11.610  0.00  0.00    +0.000 C 
ATOM     23  C   UNL     1       6.539   3.588  11.561  0.00  0.00    +0.000 C 
ENDBRANCH  17  21
ENDBRANCH   5  15
BRANCH   6  24
ATOM     24  C   UNL     1       7.120   5.783  19.515  0.00  0.00    +0.000 C 
ATOM     25  C   UNL     1       8.267   6.663  19.105  0.00  0.00    +0.000 C 
ATOM     26  C   UNL     1       8.541   5.354  19.788  0.00  0.00    +0.000 C 
ENDBRANCH   6  24
TORSDOF 4
ENDMDL
MODEL 8
REMARK VINA RESULT:      -6.5      8.626     11.692
REMARK  Name = 
REMARK  5 active torsions:
REMARK  status: ('A' for Active; 'I' for Inactive)
REMARK    1  A    between atoms: C_1  and  C_2
REMARK    2  A    between atoms: C_6  and  C_7
REMARK    3  A    between atoms: C_11  and  C_12
REMARK    4  A    between atoms: C_14  and  C_15
REMARK    5  A    between atoms: C_20  and  C_21
REMARK                            x       y       z     vdW  Elec       q    Type
REMARK                         _______ _______ _______ _____ _____    ______ ____
ROOT
ATOM      1  C   UNL     1       0.067  11.209  19.735  0.00  0.00    +0.000 C 
ATOM      2  O   UNL     1       0.598  12.315  19.835  0.00  0.00    +0.000 OA
ATOM      3  N   UNL     1      -1.088  11.055  18.968  0.00  0.00    +0.000 N 
ATOM      4  C   UNL     1      -1.641  12.189  18.241  0.00  0.00    +0.000 C 
ATOM      5  C   UNL     1      -3.022  11.703  17.801  0.00  0.00    +0.000 C 
ATOM      6  C   UNL     1      -2.802  10.199  17.525  0.00  0.00    +0.000 C 
ATOM      7  C   UNL     1      -1.573   9.815  18.375  0.00  0.00    +0.000 C 
ENDROOT
BRANCH   1  13
ATOM      8  C   UNL     1      -0.509  10.289  22.798  0.00  0.00    +0.000 C 
ATOM      9  C   UNL     1       0.365   9.625  21.791  0.00  0.00    +0.000 A 
ATOM     10  C   UNL     1       1.099   8.474  22.016  0.00  0.00    +0.000 A 
ATOM     11  N   UNL     1       1.714   8.122  20.850  0.00  0.00    +0.000 N 
ATOM     12  C   UNL     1       1.379   9.022  19.875  0.00  0.00    +0.000 A 
ATOM     13  C   UNL     1       0.613  10.036  20.433  0.00  0.00    +0.000 A 
ATOM     14  H   UNL     1       2.292   7.302  20.717  0.00  0.00    +0.000 HD
ENDBRANCH   1  13
BRANCH   5  15
ATOM     15  C   UNL     1      -4.070  11.956  18.853  0.00  0.00    +0.000 A 
ATOM     16  N   UNL     1      -5.278  11.431  18.919  0.00  0.00    +0.000 NA
ATOM     17  C   UNL     1      -5.874  12.119  19.949  0.00  0.00    +0.000 A 
ATOM     18  N   UNL     1      -5.072  12.987  20.573  0.00  0.00    +0.000 NA
ATOM     19  N   UNL     1      -3.944  12.881  19.856  0.00  0.00    +0.000 N 
ATOM     20  H   UNL     1      -3.167  13.502  20.055  0.00  0.00    +0.000 HD
BRANCH  17  21
ATOM     21  C   UNL     1      -7.351  12.012  20.303  0.00  0.00    +0.000 C 
ATOM     22  C   UNL     1      -7.806  11.935  21.745  0.00  0.00    +0.000 C 
ATOM     23  C   UNL     1      -7.822  10.702  20.908  0.00  0.00    +0.000 C 
ENDBRANCH  17  21
ENDBRANCH   5  15
BRANCH   6  24
ATOM     24  C   UNL     1      -2.541   9.914  16.059  0.00  0.00    +0.000 C 
ATOM     25  C   UNL     1      -3.031  10.851  14.992  0.00  0.00    +0.000 C 
ATOM     26  C   UNL     1      -3.694   9.515  15.171  0.00  0.00    +0.000 C 
ENDBRANCH   6  24
TORSDOF 4
ENDMDL
MODEL 9
REMARK VINA RESULT:      -6.5      2.407      5.174
REMARK  Name = 
REMARK  5 active torsions:
REMARK  status: ('A' for Active; 'I' for Inactive)
REMARK    1  A    between atoms: C_1  and  C_2
REMARK    2  A    between atoms: C_6  and  C_7
REMARK    3  A    between atoms: C_11  and  C_12
REMARK    4  A    between atoms: C_14  and  C_15
REMARK    5  A    between atoms: C_20  and  C_21
REMARK                            x       y       z     vdW  Elec       q    Type
REMARK                         _______ _______ _______ _____ _____    ______ ____
ROOT
ATOM      1  C   UNL     1       4.742   4.012  19.259  0.00  0.00    +0.000 C 
ATOM      2  O   UNL     1       5.461   3.535  20.139  0.00  0.00    +0.000 OA
ATOM      3  N   UNL     1       5.305   4.462  18.064  0.00  0.00    +0.000 N 
ATOM      4  C   UNL     1       6.735   4.324  17.831  0.00  0.00    +0.000 C 
ATOM      5  C   UNL     1       6.989   5.188  16.596  0.00  0.00    +0.000 C 
ATOM      6  C   UNL     1       5.699   5.012  15.763  0.00  0.00    +0.000 C 
ATOM      7  C   UNL     1       4.617   4.615  16.788  0.00  0.00    +0.000 C 
ENDROOT
BRANCH   1  13
ATOM      8  C   UNL     1       2.447   1.851  18.468  0.00  0.00    +0.000 C 
ATOM      9  C   UNL     1       2.268   3.189  19.098  0.00  0.00    +0.000 A 
ATOM     10  C   UNL     1       1.049   3.742  19.450  0.00  0.00    +0.000 A 
ATOM     11  N   UNL     1       1.281   4.937  20.066  0.00  0.00    +0.000 N 
ATOM     12  C   UNL     1       2.631   5.158  20.125  0.00  0.00    +0.000 A 
ATOM     13  C   UNL     1       3.290   4.141  19.449  0.00  0.00    +0.000 A 
ATOM     14  H   UNL     1       0.570   5.543  20.454  0.00  0.00    +0.000 HD
ENDBRANCH   1  13
BRANCH   5  15
ATOM     15  C   UNL     1       7.258   6.625  16.959  0.00  0.00    +0.000 A 
ATOM     16  N   UNL     1       8.278   7.097  17.648  0.00  0.00    +0.000 NA
ATOM     17  C   UNL     1       7.953   8.418  17.844  0.00  0.00    +0.000 A 
ATOM     18  N   UNL     1       6.823   8.805  17.247  0.00  0.00    +0.000 NA
ATOM     19  N   UNL     1       6.391   7.656  16.707  0.00  0.00    +0.000 N 
ATOM     20  H   UNL     1       5.486   7.630  16.249  0.00  0.00    +0.000 HD
BRANCH  17  21
ATOM     21  C   UNL     1       8.728   9.360  18.755  0.00  0.00    +0.000 C 
ATOM     22  C   UNL     1       8.459  10.850  18.750  0.00  0.00    +0.000 C 
ATOM     23  C   UNL     1       9.688  10.330  18.088  0.00  0.00    +0.000 C 
ENDBRANCH  17  21
ENDBRANCH   5  15
BRANCH   6  24
ATOM     24  C   UNL     1       5.840   3.941  14.701  0.00  0.00    +0.000 C 
ATOM     25  C   UNL     1       6.749   4.140  13.521  0.00  0.00    +0.000 C 
ATOM     26  C   UNL     1       5.261   4.186  13.329  0.00  0.00    +0.000 C 
ENDBRANCH   6  24
TORSDOF 4
ENDMDL
