MODEL 1
REMARK VINA RESULT:      -8.1      0.000      0.000
REMARK  Name = 
REMARK  5 active torsions:
REMARK  status: ('A' for Active; 'I' for Inactive)
REMARK    1  A    between atoms: C_1  and  C_2
REMARK    2  A    between atoms: C_5  and  C_6
REMARK    3  A    between atoms: C_6  and  C_7
REMARK    4  A    between atoms: C_7  and  O_8
REMARK    5  A    between atoms: C_13  and  C_15
REMARK                            x       y       z     vdW  Elec       q    Type
REMARK                         _______ _______ _______ _____ _____    ______ ____
ROOT
ATOM      1  C   UNL     1       3.563   2.882  17.868  0.00  0.00    +0.000 C 
ATOM      2  C   UNL     1       2.098   2.392  17.834  0.00  0.00    +0.000 C 
ATOM      3  C   UNL     1       1.079   3.492  18.091  0.00  0.00    +0.000 C 
ATOM      4  C   UNL     1       1.407   4.323  19.324  0.00  0.00    +0.000 C 
ATOM      5  N   UNL     1       2.806   4.748  19.360  0.00  0.00    +0.000 N 
ATOM      6  C   UNL     1       3.276   6.037  19.638  0.00  0.00    +0.000 C 
ATOM      7  O   UNL     1       4.485   6.275  19.596  0.00  0.00    +0.000 OA
ATOM      8  C   UNL     1       3.783   3.666  19.184  0.00  0.00    +0.000 C 
ENDROOT
BRANCH   6   9
ATOM      9  C   UNL     1       2.355   7.132  19.885  0.00  0.00    +0.000 A 
ATOM     10  C   UNL     1       1.822   8.148  19.104  0.00  0.00    +0.000 A 
ATOM     11  C   UNL     1       1.081   9.027  19.941  0.00  0.00    +0.000 A 
ATOM     12  C   UNL     1       0.447  10.263  19.740  0.00  0.00    +0.000 A 
ATOM     13  C   UNL     1      -0.220  10.851  20.813  0.00  0.00    +0.000 A 
ATOM     14  F   UNL     1      -0.818  12.038  20.636  0.00  0.00    +0.000 F 
ATOM     15  C   UNL     1      -0.283  10.238  22.058  0.00  0.00    +0.000 A 
ATOM     16  C   UNL     1       0.344   9.009  22.281  0.00  0.00    +0.000 A 
ATOM     17  C   UNL     1       1.034   8.436  21.204  0.00  0.00    +0.000 A 
ATOM     18  N   UNL     1       1.754   7.271  21.123  0.00  0.00    +0.000 N 
ATOM     19  H   UNL     1       1.895   6.614  21.881  0.00  0.00    +0.000 HD
ENDBRANCH   6   9
BRANCH   1  20
ATOM     20  O   UNL     1       4.348   1.676  17.871  0.00  0.00    +0.000 OA
ATOM     21  H   UNL     1       4.109   1.149  18.660  0.00  0.00    +0.000 HD
ENDBRANCH   1  20
BRANCH   1  22
ATOM     22  C   UNL     1       3.887   3.725  16.611  0.00  0.00    +0.000 C 
BRANCH  22  27
ATOM     23  C   UNL     1       7.512   7.058  17.149  0.00  0.00    +0.000 C 
ATOM     24  C   UNL     1       6.761   5.801  16.957  0.00  0.00    +0.000 A 
ATOM     25  N   UNL     1       7.372   4.612  16.890  0.00  0.00    +0.000 NA
ATOM     26  O   UNL     1       6.316   3.717  16.721  0.00  0.00    +0.000 OA
ATOM     27  C   UNL     1       5.175   4.463  16.706  0.00  0.00    +0.000 A 
ATOM     28  N   UNL     1       5.391   5.755  16.837  0.00  0.00    +0.000 NA
ENDBRANCH  22  27
ENDBRANCH   1  22
TORSDOF 4
ENDMDL
MODEL 2
REMARK VINA RESULT:      -8.0      1.183      1.304
REMARK  Name = 
REMARK  5 active torsions:
REMARK  status: ('A' for Active; 'I' for Inactive)
REMARK    1  A    between atoms: C_1  and  C_2
REMARK    2  A    between atoms: C_5  and  C_6
REMARK    3  A    between atoms: C_6  and  C_7
REMARK    4  A    between atoms: C_7  and  O_8
REMARK    5  A    between atoms: C_13  and  C_15
REMARK                            x       y       z     vdW  Elec       q    Type
REMARK                         _______ _______ _______ _____ _____    ______ ____
ROOT
ATOM      1  C   UNL     1       3.158   2.659  18.696  0.00  0.00    +0.000 C 
ATOM      2  C   UNL     1       1.820   2.132  19.262  0.00  0.00    +0.000 C 
ATOM      3  C   UNL     1       0.826   3.231  19.602  0.00  0.00    +0.000 C 
ATOM      4  C   UNL     1       1.438   4.342  20.443  0.00  0.00    +0.000 C 
ATOM      5  N   UNL     1       2.721   4.804  19.916  0.00  0.00    +0.000 N 
ATOM      6  C   UNL     1       3.115   6.135  19.736  0.00  0.00    +0.000 C 
ATOM      7  O   UNL     1       4.215   6.392  19.241  0.00  0.00    +0.000 OA
ATOM      8  C   UNL     1       3.701   3.741  19.661  0.00  0.00    +0.000 C 
ENDROOT
BRANCH   6   9
ATOM      9  C   UNL     1       2.210   7.230  20.035  0.00  0.00    +0.000 A 
ATOM     10  C   UNL     1       1.591   8.214  19.276  0.00  0.00    +0.000 A 
ATOM     11  C   UNL     1       0.924   9.115  20.151  0.00  0.00    +0.000 A 
ATOM     12  C   UNL     1       0.259  10.337  19.972  0.00  0.00    +0.000 A 
ATOM     13  C   UNL     1      -0.307  10.956  21.085  0.00  0.00    +0.000 A 
ATOM     14  F   UNL     1      -0.934  12.131  20.928  0.00  0.00    +0.000 F 
ATOM     15  C   UNL     1      -0.241  10.387  22.350  0.00  0.00    +0.000 A 
ATOM     16  C   UNL     1       0.420   9.172  22.552  0.00  0.00    +0.000 A 
ATOM     17  C   UNL     1       1.008   8.568  21.432  0.00  0.00    +0.000 A 
ATOM     18  N   UNL     1       1.731   7.406  21.321  0.00  0.00    +0.000 N 
ATOM     19  H   UNL     1       1.953   6.778  22.082  0.00  0.00    +0.000 HD
ENDBRANCH   6   9
BRANCH   1  20
ATOM     20  O   UNL     1       4.028   1.513  18.696  0.00  0.00    +0.000 OA
ATOM     21  H   UNL     1       4.500   1.477  19.552  0.00  0.00    +0.000 HD
ENDBRANCH   1  20
BRANCH   1  22
ATOM     22  C   UNL     1       2.972   3.187  17.253  0.00  0.00    +0.000 C 
BRANCH  22  27
ATOM     23  C   UNL     1       7.314   4.665  15.380  0.00  0.00    +0.000 C 
ATOM     24  C   UNL     1       5.939   4.640  15.920  0.00  0.00    +0.000 A 
ATOM     25  N   UNL     1       5.181   5.741  15.984  0.00  0.00    +0.000 NA
ATOM     26  O   UNL     1       3.985   5.276  16.531  0.00  0.00    +0.000 OA
ATOM     27  C   UNL     1       4.148   3.939  16.739  0.00  0.00    +0.000 A 
ATOM     28  N   UNL     1       5.338   3.494  16.389  0.00  0.00    +0.000 NA
ENDBRANCH  22  27
ENDBRANCH   1  22
TORSDOF 4
ENDMDL
MODEL 3
REMARK VINA RESULT:      -7.9      0.965      1.476
REMARK  Name = 
REMARK  5 active torsions:
REMARK  status: ('A' for Active; 'I' for Inactive)
REMARK    1  A    between atoms: C_1  and  C_2
REMARK    2  A    between atoms: C_5  and  C_6
REMARK    3  A    between atoms: C_6  and  C_7
REMARK    4  A    between atoms: C_7  and  O_8
REMARK    5  A    between atoms: C_13  and  C_15
REMARK                            x       y       z     vdW  Elec       q    Type
REMARK                         _______ _______ _______ _____ _____    ______ ____
ROOT
ATOM      1  C   UNL     1       3.593   2.618  18.248  0.00  0.00    +0.000 C 
ATOM      2  C   UNL     1       2.113   2.222  18.042  0.00  0.00    +0.000 C 
ATOM      3  C   UNL     1       1.152   3.399  18.101  0.00  0.00    +0.000 C 
ATOM      4  C   UNL     1       1.373   4.281  19.322  0.00  0.00    +0.000 C 
ATOM      5  N   UNL     1       2.781   4.616  19.525  0.00  0.00    +0.000 N 
ATOM      6  C   UNL     1       3.302   5.887  19.798  0.00  0.00    +0.000 C 
ATOM      7  O   UNL     1       4.521   6.044  19.909  0.00  0.00    +0.000 OA
ATOM      8  C   UNL     1       3.693   3.465  19.540  0.00  0.00    +0.000 C 
ENDROOT
BRANCH   6   9
ATOM      9  C   UNL     1       2.438   7.052  19.861  0.00  0.00    +0.000 A 
ATOM     10  C   UNL     1       1.659   7.631  20.854  0.00  0.00    +0.000 A 
ATOM     11  C   UNL     1       0.903   8.691  20.281  0.00  0.00    +0.000 A 
ATOM     12  C   UNL     1      -0.122   9.525  20.754  0.00  0.00    +0.000 A 
ATOM     13  C   UNL     1      -0.637  10.496  19.898  0.00  0.00    +0.000 A 
ATOM     14  F   UNL     1      -1.625  11.291  20.335  0.00  0.00    +0.000 F 
ATOM     15  C   UNL     1      -0.151  10.665  18.608  0.00  0.00    +0.000 A 
ATOM     16  C   UNL     1       0.866   9.843  18.115  0.00  0.00    +0.000 A 
ATOM     17  C   UNL     1       1.362   8.852  18.973  0.00  0.00    +0.000 A 
ATOM     18  N   UNL     1       2.325   7.895  18.771  0.00  0.00    +0.000 N 
ATOM     19  H   UNL     1       2.852   7.765  17.917  0.00  0.00    +0.000 HD
ENDBRANCH   6   9
BRANCH   1  20
ATOM     20  O   UNL     1       4.282   1.367  18.421  0.00  0.00    +0.000 OA
ATOM     21  H   UNL     1       5.081   1.521  18.964  0.00  0.00    +0.000 HD
ENDBRANCH   1  20
BRANCH   1  22
ATOM     22  C   UNL     1       4.139   3.361  17.006  0.00  0.00    +0.000 C 
BRANCH  22  27
ATOM     23  C   UNL     1       7.531   6.950  17.403  0.00  0.00    +0.000 C 
ATOM     24  C   UNL     1       6.793   5.678  17.537  0.00  0.00    +0.000 A 
ATOM     25  N   UNL     1       7.214   4.693  18.340  0.00  0.00    +0.000 NA
ATOM     26  O   UNL     1       6.242   3.708  18.178  0.00  0.00    +0.000 OA
ATOM     27  C   UNL     1       5.332   4.203  17.292  0.00  0.00    +0.000 A 
ATOM     28  N   UNL     1       5.627   5.411  16.856  0.00  0.00    +0.000 NA
ENDBRANCH  22  27
ENDBRANCH   1  22
TORSDOF 4
ENDMDL
MODEL 4
REMARK VINA RESULT:      -7.6      1.297      1.721
REMARK  Name = 
REMARK  5 active torsions:
REMARK  status: ('A' for Active; 'I' for Inactive)
REMARK    1  A    between atoms: C_1  and  C_2
REMARK    2  A    between atoms: C_5  and  C_6
REMARK    3  A    between atoms: C_6  and  C_7
REMARK    4  A    between atoms: C_7  and  O_8
REMARK    5  A    between atoms: C_13  and  C_15
REMARK                            x       y       z     vdW  Elec       q    Type
REMARK                         _______ _______ _______ _____ _____    ______ ____
ROOT
ATOM      1  C   UNL     1       3.215   2.564  18.698  0.00  0.00    +0.000 C 
ATOM      2  C   UNL     1       1.787   2.131  19.100  0.00  0.00    +0.000 C 
ATOM      3  C   UNL     1       0.824   3.294  19.280  0.00  0.00    +0.000 C 
ATOM      4  C   UNL     1       1.389   4.396  20.165  0.00  0.00    +0.000 C 
ATOM      5  N   UNL     1       2.754   4.768  19.797  0.00  0.00    +0.000 N 
ATOM      6  C   UNL     1       3.246   6.069  19.635  0.00  0.00    +0.000 C 
ATOM      7  O   UNL     1       4.414   6.249  19.280  0.00  0.00    +0.000 OA
ATOM      8  C   UNL     1       3.694   3.645  19.697  0.00  0.00    +0.000 C 
ENDROOT
BRANCH   6   9
ATOM      9  C   UNL     1       2.376   7.222  19.787  0.00  0.00    +0.000 A 
ATOM     10  C   UNL     1       1.664   7.768  20.846  0.00  0.00    +0.000 A 
ATOM     11  C   UNL     1       0.859   8.832  20.355  0.00  0.00    +0.000 A 
ATOM     12  C   UNL     1      -0.139   9.643  20.918  0.00  0.00    +0.000 A 
ATOM     13  C   UNL     1      -0.723  10.628  20.125  0.00  0.00    +0.000 A 
ATOM     14  F   UNL     1      -1.686  11.399  20.650  0.00  0.00    +0.000 F 
ATOM     15  C   UNL     1      -0.332  10.832  18.808  0.00  0.00    +0.000 A 
ATOM     16  C   UNL     1       0.656  10.034  18.225  0.00  0.00    +0.000 A 
ATOM     17  C   UNL     1       1.222   9.029  19.022  0.00  0.00    +0.000 A 
ATOM     18  N   UNL     1       2.178   8.090  18.728  0.00  0.00    +0.000 N 
ATOM     19  H   UNL     1       2.645   7.985  17.836  0.00  0.00    +0.000 HD
ENDBRANCH   6   9
BRANCH   1  20
ATOM     20  O   UNL     1       4.008   1.372  18.839  0.00  0.00    +0.000 OA
ATOM     21  H   UNL     1       3.459   0.599  18.595  0.00  0.00    +0.000 HD
ENDBRANCH   1  20
BRANCH   1  22
ATOM     22  C   UNL     1       3.246   3.054  17.230  0.00  0.00    +0.000 C 
BRANCH  22  27
ATOM     23  C   UNL     1       7.125   5.012  14.852  0.00  0.00    +0.000 C 
ATOM     24  C   UNL     1       6.243   4.430  15.883  0.00  0.00    +0.000 A 
ATOM     25  N   UNL     1       6.629   4.304  17.159  0.00  0.00    +0.000 NA
ATOM     26  O   UNL     1       5.515   3.735  17.777  0.00  0.00    +0.000 OA
ATOM     27  C   UNL     1       4.571   3.579  16.806  0.00  0.00    +0.000 A 
ATOM     28  N   UNL     1       4.969   3.982  15.617  0.00  0.00    +0.000 NA
ENDBRANCH  22  27
ENDBRANCH   1  22
TORSDOF 4
ENDMDL
MODEL 5
REMARK VINA RESULT:      -7.4      1.846      2.188
REMARK  Name = 
REMARK  5 active torsions:
REMARK  status: ('A' for Active; 'I' for Inactive)
REMARK    1  A    between atoms: C_1  and  C_2
REMARK    2  A    between atoms: C_5  and  C_6
REMARK    3  A    between atoms: C_6  and  C_7
REMARK    4  A    between atoms: C_7  and  O_8
REMARK    5  A    between atoms: C_13  and  C_15
REMARK                            x       y       z     vdW  Elec       q    Type
REMARK                         _______ _______ _______ _____ _____    ______ ____
ROOT
ATOM      1  C   UNL     1       4.357   4.075  18.455  0.00  0.00    +0.000 C 
ATOM      2  C   UNL     1       3.239   3.355  19.245  0.00  0.00    +0.000 C 
ATOM      3  C   UNL     1       1.946   4.150  19.334  0.00  0.00    +0.000 C 
ATOM      4  C   UNL     1       2.166   5.589  19.780  0.00  0.00    +0.000 C 
ATOM      5  N   UNL     1       3.251   6.243  19.051  0.00  0.00    +0.000 N 
ATOM      6  C   UNL     1       3.213   7.519  18.474  0.00  0.00    +0.000 C 
ATOM      7  O   UNL     1       4.187   7.942  17.846  0.00  0.00    +0.000 OA
ATOM      8  C   UNL     1       4.518   5.502  19.033  0.00  0.00    +0.000 C 
ENDROOT
BRANCH   6   9
ATOM      9  C   UNL     1       2.006   8.325  18.519  0.00  0.00    +0.000 A 
ATOM     10  C   UNL     1       1.059   8.708  17.579  0.00  0.00    +0.000 A 
ATOM     11  C   UNL     1       0.167   9.638  18.183  0.00  0.00    +0.000 A 
ATOM     12  C   UNL     1      -0.878  10.441  17.702  0.00  0.00    +0.000 A 
ATOM     13  C   UNL     1      -1.568  11.246  18.606  0.00  0.00    +0.000 A 
ATOM     14  F   UNL     1      -2.560  12.027  18.155  0.00  0.00    +0.000 F 
ATOM     15  C   UNL     1      -1.258  11.257  19.960  0.00  0.00    +0.000 A 
ATOM     16  C   UNL     1      -0.218  10.468  20.459  0.00  0.00    +0.000 A 
ATOM     17  C   UNL     1       0.488   9.680  19.540  0.00  0.00    +0.000 A 
ATOM     18  N   UNL     1       1.554   8.835  19.722  0.00  0.00    +0.000 N 
ATOM     19  H   UNL     1       2.009   8.646  20.606  0.00  0.00    +0.000 HD
ENDBRANCH   6   9
BRANCH   1  20
ATOM     20  O   UNL     1       5.540   3.298  18.714  0.00  0.00    +0.000 OA
ATOM     21  H   UNL     1       5.861   2.926  17.869  0.00  0.00    +0.000 HD
ENDBRANCH   1  20
BRANCH   1  22
ATOM     22  C   UNL     1       4.041   4.078  16.941  0.00  0.00    +0.000 C 
BRANCH  22  27
ATOM     23  C   UNL     1       7.285   4.746  13.257  0.00  0.00    +0.000 C 
ATOM     24  C   UNL     1       6.643   4.687  14.586  0.00  0.00    +0.000 A 
ATOM     25  N   UNL     1       7.256   5.131  15.690  0.00  0.00    +0.000 NA
ATOM     26  O   UNL     1       6.314   4.905  16.693  0.00  0.00    +0.000 OA
ATOM     27  C   UNL     1       5.228   4.348  16.086  0.00  0.00    +0.000 A 
ATOM     28  N   UNL     1       5.380   4.181  14.788  0.00  0.00    +0.000 NA
ENDBRANCH  22  27
ENDBRANCH   1  22
TORSDOF 4
ENDMDL
MODEL 6
REMARK VINA RESULT:      -7.4      1.749      3.697
REMARK  Name = 
REMARK  5 active torsions:
REMARK  status: ('A' for Active; 'I' for Inactive)
REMARK    1  A    between atoms: C_1  and  C_2
REMARK    2  A    between atoms: C_5  and  C_6
REMARK    3  A    between atoms: C_6  and  C_7
REMARK    4  A    between atoms: C_7  and  O_8
REMARK    5  A    between atoms: C_13  and  C_15
REMARK                            x       y       z     vdW  Elec       q    Type
REMARK                         _______ _______ _______ _____ _____    ______ ____
ROOT
ATOM      1  C   UNL     1       5.771   4.630  17.334  0.00  0.00    +0.000 C 
ATOM      2  C   UNL     1       6.777   5.774  17.074  0.00  0.00    +0.000 C 
ATOM      3  C   UNL     1       6.287   7.136  17.540  0.00  0.00    +0.000 C 
ATOM      4  C   UNL     1       4.878   7.453  17.057  0.00  0.00    +0.000 C 
ATOM      5  N   UNL     1       3.947   6.347  17.276  0.00  0.00    +0.000 N 
ATOM      6  C   UNL     1       2.664   6.438  17.829  0.00  0.00    +0.000 C 
ATOM      7  O   UNL     1       1.991   5.419  17.999  0.00  0.00    +0.000 OA
ATOM      8  C   UNL     1       4.398   5.050  16.757  0.00  0.00    +0.000 C 
ENDROOT
BRANCH   6   9
ATOM      9  C   UNL     1       2.140   7.708  18.299  0.00  0.00    +0.000 A 
ATOM     10  C   UNL     1       1.883   8.934  17.700  0.00  0.00    +0.000 A 
ATOM     11  C   UNL     1       1.509   9.865  18.708  0.00  0.00    +0.000 A 
ATOM     12  C   UNL     1       1.267  11.247  18.718  0.00  0.00    +0.000 A 
ATOM     13  C   UNL     1       0.893  11.848  19.919  0.00  0.00    +0.000 A 
ATOM     14  F   UNL     1       0.671  13.170  19.943  0.00  0.00    +0.000 F 
ATOM     15  C   UNL     1       0.742  11.113  21.088  0.00  0.00    +0.000 A 
ATOM     16  C   UNL     1       0.982   9.737  21.101  0.00  0.00    +0.000 A 
ATOM     17  C   UNL     1       1.381   9.144  19.896  0.00  0.00    +0.000 A 
ATOM     18  N   UNL     1       1.706   7.842  19.606  0.00  0.00    +0.000 N 
ATOM     19  H   UNL     1       1.698   7.074  20.265  0.00  0.00    +0.000 HD
ENDBRANCH   6   9
BRANCH   1  20
ATOM     20  O   UNL     1       6.298   3.511  16.598  0.00  0.00    +0.000 OA
ATOM     21  H   UNL     1       5.826   3.448  15.744  0.00  0.00    +0.000 HD
ENDBRANCH   1  20
BRANCH   1  22
ATOM     22  C   UNL     1       5.705   4.292  18.843  0.00  0.00    +0.000 C 
BRANCH  22  27
ATOM     23  C   UNL     1       1.508   2.517  20.786  0.00  0.00    +0.000 C 
ATOM     24  C   UNL     1       2.722   2.700  19.966  0.00  0.00    +0.000 A 
ATOM     25  N   UNL     1       3.024   1.881  18.950  0.00  0.00    +0.000 NA
ATOM     26  O   UNL     1       4.215   2.411  18.453  0.00  0.00    +0.000 OA
ATOM     27  C   UNL     1       4.506   3.497  19.222  0.00  0.00    +0.000 A 
ATOM     28  N   UNL     1       3.625   3.717  20.177  0.00  0.00    +0.000 NA
ENDBRANCH  22  27
ENDBRANCH   1  22
TORSDOF 4
ENDMDL
MODEL 7
REMARK VINA RESULT:      -7.2      1.788      3.787
REMARK  Name = 
REMARK  5 active torsions:
REMARK  status: ('A' for Active; 'I' for Inactive)
REMARK    1  A    between atoms: C_1  and  C_2
REMARK    2  A    between atoms: C_5  and  C_6
REMARK    3  A    between atoms: C_6  and  C_7
REMARK    4  A    between atoms: C_7  and  O_8
REMARK    5  A    between atoms: C_13  and  C_15
REMARK                            x       y       z     vdW  Elec       q    Type
REMARK                         _______ _______ _______ _____ _____    ______ ____
ROOT
ATOM      1  C   UNL     1       5.522   4.396  17.164  0.00  0.00    +0.000 C 
ATOM      2  C   UNL     1       6.525   5.540  16.895  0.00  0.00    +0.000 C 
ATOM      3  C   UNL     1       6.127   6.864  17.531  0.00  0.00    +0.000 C 
ATOM      4  C   UNL     1       4.684   7.249  17.238  0.00  0.00    +0.000 C 
ATOM      5  N   UNL     1       3.751   6.145  17.460  0.00  0.00    +0.000 N 
ATOM      6  C   UNL     1       2.539   6.209  18.158  0.00  0.00    +0.000 C 
ATOM      7  O   UNL     1       1.860   5.191  18.311  0.00  0.00    +0.000 OA
ATOM      8  C   UNL     1       4.106   4.892  16.782  0.00  0.00    +0.000 C 
ENDROOT
BRANCH   6   9
ATOM      9  C   UNL     1       2.106   7.441  18.793  0.00  0.00    +0.000 A 
ATOM     10  C   UNL     1       1.929   7.845  20.110  0.00  0.00    +0.000 A 
ATOM     11  C   UNL     1       1.333   9.136  20.115  0.00  0.00    +0.000 A 
ATOM     12  C   UNL     1       0.817   9.969  21.120  0.00  0.00    +0.000 A 
ATOM     13  C   UNL     1       0.307  11.214  20.756  0.00  0.00    +0.000 A 
ATOM     14  F   UNL     1      -0.200  12.012  21.706  0.00  0.00    +0.000 F 
ATOM     15  C   UNL     1       0.315  11.649  19.437  0.00  0.00    +0.000 A 
ATOM     16  C   UNL     1       0.820  10.834  18.420  0.00  0.00    +0.000 A 
ATOM     17  C   UNL     1       1.308   9.574  18.790  0.00  0.00    +0.000 A 
ATOM     18  N   UNL     1       1.835   8.561  18.028  0.00  0.00    +0.000 N 
ATOM     19  H   UNL     1       1.958   8.585  17.024  0.00  0.00    +0.000 HD
ENDBRANCH   6   9
BRANCH   1  20
ATOM     20  O   UNL     1       5.933   3.339  16.279  0.00  0.00    +0.000 OA
ATOM     21  H   UNL     1       6.848   3.078  16.506  0.00  0.00    +0.000 HD
ENDBRANCH   1  20
BRANCH   1  22
ATOM     22  C   UNL     1       5.610   3.925  18.635  0.00  0.00    +0.000 C 
BRANCH  22  27
ATOM     23  C   UNL     1       1.517   2.415  20.982  0.00  0.00    +0.000 C 
ATOM     24  C   UNL     1       2.632   2.548  20.023  0.00  0.00    +0.000 A 
ATOM     25  N   UNL     1       2.710   1.799  18.916  0.00  0.00    +0.000 NA
ATOM     26  O   UNL     1       3.881   2.247  18.306  0.00  0.00    +0.000 OA
ATOM     27  C   UNL     1       4.387   3.224  19.110  0.00  0.00    +0.000 A 
ATOM     28  N   UNL     1       3.663   3.445  20.188  0.00  0.00    +0.000 NA
ENDBRANCH  22  27
ENDBRANCH   1  22
TORSDOF 4
ENDMDL
MODEL 8
REMARK VINA RESULT:      -7.0      1.532      1.849
REMARK  Name = 
REMARK  5 active torsions:
REMARK  status: ('A' for Active; 'I' for Inactive)
REMARK    1  A    between atoms: C_1  and  C_2
REMARK    2  A    between atoms: C_5  and  C_6
REMARK    3  A    between atoms: C_6  and  C_7
REMARK    4  A    between atoms: C_7  and  O_8
REMARK    5  A    between atoms: C_13  and  C_15
REMARK                            x       y       z     vdW  Elec       q    Type
REMARK                         _______ _______ _______ _____ _____    ______ ____
ROOT
ATOM      1  C   UNL     1       3.902   3.212  19.352  0.00  0.00    +0.000 C 
ATOM      2  C   UNL     1       2.725   2.794  20.264  0.00  0.00    +0.000 C 
ATOM      3  C   UNL     1       1.584   3.800  20.287  0.00  0.00    +0.000 C 
ATOM      4  C   UNL     1       2.058   5.225  20.534  0.00  0.00    +0.000 C 
ATOM      5  N   UNL     1       3.195   5.593  19.691  0.00  0.00    +0.000 N 
ATOM      6  C   UNL     1       3.335   6.774  18.953  0.00  0.00    +0.000 C 
ATOM      7  O   UNL     1       4.330   6.947  18.246  0.00  0.00    +0.000 OA
ATOM      8  C   UNL     1       4.322   4.653  19.732  0.00  0.00    +0.000 C 
ENDROOT
BRANCH   6   9
ATOM      9  C   UNL     1       2.279   7.771  18.930  0.00  0.00    +0.000 A 
ATOM     10  C   UNL     1       1.572   8.413  17.922  0.00  0.00    +0.000 A 
ATOM     11  C   UNL     1       0.750   9.415  18.508  0.00  0.00    +0.000 A 
ATOM     12  C   UNL     1      -0.062  10.436  17.991  0.00  0.00    +0.000 A 
ATOM     13  C   UNL     1      -0.758  11.249  18.884  0.00  0.00    +0.000 A 
ATOM     14  F   UNL     1      -1.526  12.236  18.402  0.00  0.00    +0.000 F 
ATOM     15  C   UNL     1      -0.678  11.061  20.258  0.00  0.00    +0.000 A 
ATOM     16  C   UNL     1       0.128  10.052  20.794  0.00  0.00    +0.000 A 
ATOM     17  C   UNL     1       0.844   9.255  19.891  0.00  0.00    +0.000 A 
ATOM     18  N   UNL     1       1.719   8.221  20.112  0.00  0.00    +0.000 N 
ATOM     19  H   UNL     1       1.986   7.861  21.019  0.00  0.00    +0.000 HD
ENDBRANCH   6   9
BRANCH   1  20
ATOM     20  O   UNL     1       4.955   2.287  19.674  0.00  0.00    +0.000 OA
ATOM     21  H   UNL     1       4.878   2.040  20.617  0.00  0.00    +0.000 HD
ENDBRANCH   1  20
BRANCH   1  22
ATOM     22  C   UNL     1       3.512   3.080  17.861  0.00  0.00    +0.000 C 
BRANCH  22  27
ATOM     23  C   UNL     1       7.488   4.909  15.540  0.00  0.00    +0.000 C 
ATOM     24  C   UNL     1       6.112   4.489  15.875  0.00  0.00    +0.000 A 
ATOM     25  N   UNL     1       5.105   4.590  14.998  0.00  0.00    +0.000 NA
ATOM     26  O   UNL     1       4.014   4.082  15.703  0.00  0.00    +0.000 OA
ATOM     27  C   UNL     1       4.479   3.726  16.933  0.00  0.00    +0.000 A 
ATOM     28  N   UNL     1       5.764   3.964  17.098  0.00  0.00    +0.000 NA
ENDBRANCH  22  27
ENDBRANCH   1  22
TORSDOF 4
ENDMDL
MODEL 9
REMARK VINA RESULT:      -6.9      4.376      8.073
REMARK  Name = 
REMARK  5 active torsions:
REMARK  status: ('A' for Active; 'I' for Inactive)
REMARK    1  A    between atoms: C_1  and  C_2
REMARK    2  A    between atoms: C_5  and  C_6
REMARK    3  A    between atoms: C_6  and  C_7
REMARK    4  A    between atoms: C_7  and  O_8
REMARK    5  A    between atoms: C_13  and  C_15
REMARK                            x       y       z     vdW  Elec       q    Type
REMARK                         _______ _______ _______ _____ _____    ______ ____
ROOT
ATOM      1  C   UNL     1       0.205  10.663  19.529  0.00  0.00    +0.000 C 
ATOM      2  C   UNL     1       0.944  10.759  18.175  0.00  0.00    +0.000 C 
ATOM      3  C   UNL     1       1.465   9.422  17.669  0.00  0.00    +0.000 C 
ATOM      4  C   UNL     1       2.243   8.652  18.726  0.00  0.00    +0.000 C 
ATOM      5  N   UNL     1       1.548   8.604  20.012  0.00  0.00    +0.000 N 
ATOM      6  C   UNL     1       1.357   7.470  20.811  0.00  0.00    +0.000 C 
ATOM      7  O   UNL     1       0.714   7.555  21.860  0.00  0.00    +0.000 OA
ATOM      8  C   UNL     1       1.115   9.908  20.528  0.00  0.00    +0.000 C 
ENDROOT
BRANCH   6   9
ATOM      9  C   UNL     1       1.824   6.164  20.380  0.00  0.00    +0.000 A 
ATOM     10  C   UNL     1       3.038   5.669  19.923  0.00  0.00    +0.000 A 
ATOM     11  C   UNL     1       2.853   4.322  19.504  0.00  0.00    +0.000 A 
ATOM     12  C   UNL     1       3.666   3.383  18.852  0.00  0.00    +0.000 A 
ATOM     13  C   UNL     1       3.149   2.112  18.606  0.00  0.00    +0.000 A 
ATOM     14  F   UNL     1       3.912   1.211  17.972  0.00  0.00    +0.000 F 
ATOM     15  C   UNL     1       1.866   1.756  19.002  0.00  0.00    +0.000 A 
ATOM     16  C   UNL     1       1.038   2.678  19.650  0.00  0.00    +0.000 A 
ATOM     17  C   UNL     1       1.556   3.961  19.872  0.00  0.00    +0.000 A 
ATOM     18  N   UNL     1       0.985   5.067  20.451  0.00  0.00    +0.000 N 
ATOM     19  H   UNL     1       0.048   5.113  20.828  0.00  0.00    +0.000 HD
ENDBRANCH   6   9
BRANCH   1  20
ATOM     20  O   UNL     1       0.037  12.030  19.946  0.00  0.00    +0.000 OA
ATOM     21  H   UNL     1      -0.849  12.337  19.668  0.00  0.00    +0.000 HD
ENDBRANCH   1  20
BRANCH   1  22
ATOM     22  C   UNL     1      -1.176   9.987  19.352  0.00  0.00    +0.000 C 
BRANCH  22  27
ATOM     23  C   UNL     1      -3.242  10.198  14.855  0.00  0.00    +0.000 C 
ATOM     24  C   UNL     1      -2.796  10.522  16.225  0.00  0.00    +0.000 A 
ATOM     25  N   UNL     1      -3.165  11.649  16.845  0.00  0.00    +0.000 NA
ATOM     26  O   UNL     1      -2.546  11.549  18.090  0.00  0.00    +0.000 OA
ATOM     27  C   UNL     1      -1.868  10.367  18.092  0.00  0.00    +0.000 A 
ATOM     28  N   UNL     1      -1.978   9.697  16.963  0.00  0.00    +0.000 NA
ENDBRANCH  22  27
ENDBRANCH   1  22
TORSDOF 4
ENDMDL
