MODEL 1
REMARK VINA RESULT:      -9.0      0.000      0.000
REMARK  Name = 
REMARK  5 active torsions:
REMARK  status: ('A' for Active; 'I' for Inactive)
REMARK    1  A    between atoms: C_1  and  N_2
REMARK    2  A    between atoms: C_4  and  C_5
REMARK    3  A    between atoms: C_5  and  N_6
REMARK    4  A    between atoms: N_6  and  C_7
REMARK    5  A    between atoms: C_19  and  C_20
REMARK                            x       y       z     vdW  Elec       q    Type
REMARK                         _______ _______ _______ _____ _____    ______ ____
ROOT
ATOM      1  C   UNL     1       2.461   6.944  19.702  0.00  0.00    +0.000 C 
ENDROOT
BRANCH   1   5
ATOM      2  C   UNL     1       1.703   2.073  18.797  0.00  0.00    +0.000 C 
ATOM      3  N   UNL     1       2.309   3.374  18.952  0.00  0.00    +0.000 N 
ATOM      4  C   UNL     1       1.703   4.498  19.407  0.00  0.00    +0.000 A 
ATOM      5  C   UNL     1       2.650   5.501  19.350  0.00  0.00    +0.000 A 
ATOM      6  C   UNL     1       3.827   4.864  18.818  0.00  0.00    +0.000 A 
ATOM      7  N   UNL     1       3.597   3.554  18.625  0.00  0.00    +0.000 NA
BRANCH   6   8
ATOM      8  C   UNL     1       5.124   5.469  18.485  0.00  0.00    +0.000 A 
ATOM      9  C   UNL     1       6.276   5.153  19.221  0.00  0.00    +0.000 A 
ATOM     10  C   UNL     1       7.479   5.808  18.976  0.00  0.00    +0.000 A 
ATOM     11  F   UNL     1       8.545   5.521  19.734  0.00  0.00    +0.000 F 
ATOM     12  C   UNL     1       7.591   6.752  17.967  0.00  0.00    +0.000 A 
ATOM     13  C   UNL     1       6.475   7.039  17.186  0.00  0.00    +0.000 A 
ATOM     14  C   UNL     1       5.253   6.408  17.449  0.00  0.00    +0.000 A 
ATOM     15  F   UNL     1       4.204   6.762  16.692  0.00  0.00    +0.000 F 
ENDBRANCH   6   8
ENDBRANCH   1   5
BRANCH   1  16
ATOM     16  N   UNL     1       1.629   7.211  20.876  0.00  0.00    +0.000 N 
ATOM     17  H   UNL     1       2.112   6.927  21.723  0.00  0.00    +0.000 HD
BRANCH  16  18
ATOM     18  C   UNL     1       1.095   8.500  21.008  0.00  0.00    +0.000 A 
ATOM     19  C   UNL     1       0.211   8.760  22.057  0.00  0.00    +0.000 A 
ATOM     20  C   UNL     1      -0.439   9.992  22.170  0.00  0.00    +0.000 A 
ATOM     21  C   UNL     1      -0.272  10.985  21.195  0.00  0.00    +0.000 A 
ATOM     22  C   UNL     1       0.575  10.720  20.115  0.00  0.00    +0.000 A 
ATOM     23  C   UNL     1       1.267   9.498  20.040  0.00  0.00    +0.000 A 
ATOM     24  C   UNL     1       0.739  11.609  18.936  0.00  0.00    +0.000 C 
ATOM     25  O   UNL     1       1.845  11.764  18.427  0.00  0.00    +0.000 OA
ATOM     26  N   UNL     1      -0.387  12.060  18.290  0.00  0.00    +0.000 N 
ATOM     27  C   UNL     1      -1.419  12.880  18.891  0.00  0.00    +0.000 C 
ATOM     28  C   UNL     1      -2.056  12.363  20.169  0.00  0.00    +0.000 C 
ATOM     29  C   UNL     1      -1.048  12.263  21.304  0.00  0.00    +0.000 C 
ATOM     30  H   UNL     1      -0.101  12.411  17.381  0.00  0.00    +0.000 HD
ENDBRANCH  16  18
ENDBRANCH   1  16
TORSDOF 4
ENDMDL
MODEL 2
REMARK VINA RESULT:      -8.9      2.610      4.120
REMARK  Name = 
REMARK  5 active torsions:
REMARK  status: ('A' for Active; 'I' for Inactive)
REMARK    1  A    between atoms: C_1  and  N_2
REMARK    2  A    between atoms: C_4  and  C_5
REMARK    3  A    between atoms: C_5  and  N_6
REMARK    4  A    between atoms: N_6  and  C_7
REMARK    5  A    between atoms: C_19  and  C_20
REMARK                            x       y       z     vdW  Elec       q    Type
REMARK                         _______ _______ _______ _____ _____    ______ ____
ROOT
ATOM      1  C   UNL     1       4.084   7.120  17.877  0.00  0.00    +0.000 C 
ENDROOT
BRANCH   1   5
ATOM      2  C   UNL     1       6.113   3.860  14.657  0.00  0.00    +0.000 C 
ATOM      3  N   UNL     1       5.322   4.460  15.704  0.00  0.00    +0.000 N 
ATOM      4  C   UNL     1       5.287   5.774  16.037  0.00  0.00    +0.000 A 
ATOM      5  C   UNL     1       4.427   5.880  17.113  0.00  0.00    +0.000 A 
ATOM      6  C   UNL     1       3.992   4.531  17.368  0.00  0.00    +0.000 A 
ATOM      7  N   UNL     1       4.526   3.693  16.462  0.00  0.00    +0.000 NA
BRANCH   6   8
ATOM      8  C   UNL     1       3.115   4.039  18.440  0.00  0.00    +0.000 A 
ATOM      9  C   UNL     1       3.652   3.470  19.604  0.00  0.00    +0.000 A 
ATOM     10  C   UNL     1       2.822   2.906  20.568  0.00  0.00    +0.000 A 
ATOM     11  F   UNL     1       3.371   2.323  21.642  0.00  0.00    +0.000 F 
ATOM     12  C   UNL     1       1.443   2.933  20.434  0.00  0.00    +0.000 A 
ATOM     13  C   UNL     1       0.886   3.543  19.314  0.00  0.00    +0.000 A 
ATOM     14  C   UNL     1       1.716   4.084  18.324  0.00  0.00    +0.000 A 
ATOM     15  F   UNL     1       1.121   4.616  17.247  0.00  0.00    +0.000 F 
ENDBRANCH   6   8
ENDBRANCH   1   5
BRANCH   1  16
ATOM     16  N   UNL     1       3.101   6.958  18.950  0.00  0.00    +0.000 N 
ATOM     17  H   UNL     1       3.570   6.861  19.846  0.00  0.00    +0.000 HD
BRANCH  16  18
ATOM     18  C   UNL     1       2.065   7.899  19.023  0.00  0.00    +0.000 A 
ATOM     19  C   UNL     1       1.829   8.728  17.924  0.00  0.00    +0.000 A 
ATOM     20  C   UNL     1       0.888   9.759  17.982  0.00  0.00    +0.000 A 
ATOM     21  C   UNL     1       0.196  10.035  19.169  0.00  0.00    +0.000 A 
ATOM     22  C   UNL     1       0.457   9.242  20.291  0.00  0.00    +0.000 A 
ATOM     23  C   UNL     1       1.365   8.172  20.205  0.00  0.00    +0.000 A 
ATOM     24  C   UNL     1      -0.084   9.502  21.649  0.00  0.00    +0.000 C 
ATOM     25  O   UNL     1      -0.441   8.569  22.362  0.00  0.00    +0.000 OA
ATOM     26  N   UNL     1       0.042  10.764  22.178  0.00  0.00    +0.000 N 
ATOM     27  C   UNL     1      -0.535  11.965  21.610  0.00  0.00    +0.000 C 
ATOM     28  C   UNL     1      -0.207  12.270  20.158  0.00  0.00    +0.000 C 
ATOM     29  C   UNL     1      -0.746  11.201  19.219  0.00  0.00    +0.000 C 
ATOM     30  H   UNL     1      -0.123  10.697  23.177  0.00  0.00    +0.000 HD
ENDBRANCH  16  18
ENDBRANCH   1  16
TORSDOF 4
ENDMDL
MODEL 3
REMARK VINA RESULT:      -8.8      2.147      2.869
REMARK  Name = 
REMARK  5 active torsions:
REMARK  status: ('A' for Active; 'I' for Inactive)
REMARK    1  A    between atoms: C_1  and  N_2
REMARK    2  A    between atoms: C_4  and  C_5
REMARK    3  A    between atoms: C_5  and  N_6
REMARK    4  A    between atoms: N_6  and  C_7
REMARK    5  A    between atoms: C_19  and  C_20
REMARK                            x       y       z     vdW  Elec       q    Type
REMARK                         _______ _______ _______ _____ _____    ______ ____
ROOT
ATOM      1  C   UNL     1       2.462   6.574  18.231  0.00  0.00    +0.000 C 
ENDROOT
BRANCH   1   5
ATOM      2  C   UNL     1       1.947   2.653  21.309  0.00  0.00    +0.000 C 
ATOM      3  N   UNL     1       2.464   3.605  20.356  0.00  0.00    +0.000 N 
ATOM      4  C   UNL     1       1.862   4.751  19.952  0.00  0.00    +0.000 A 
ATOM      5  C   UNL     1       2.699   5.319  19.011  0.00  0.00    +0.000 A 
ATOM      6  C   UNL     1       3.806   4.404  18.906  0.00  0.00    +0.000 A 
ATOM      7  N   UNL     1       3.651   3.388  19.772  0.00  0.00    +0.000 NA
BRANCH   6   8
ATOM      8  C   UNL     1       4.967   4.472  18.007  0.00  0.00    +0.000 A 
ATOM      9  C   UNL     1       4.866   4.059  16.670  0.00  0.00    +0.000 A 
ATOM     10  C   UNL     1       5.991   4.020  15.851  0.00  0.00    +0.000 A 
ATOM     11  F   UNL     1       5.870   3.568  14.596  0.00  0.00    +0.000 F 
ATOM     12  C   UNL     1       7.231   4.433  16.313  0.00  0.00    +0.000 A 
ATOM     13  C   UNL     1       7.342   4.901  17.619  0.00  0.00    +0.000 A 
ATOM     14  C   UNL     1       6.222   4.912  18.458  0.00  0.00    +0.000 A 
ATOM     15  F   UNL     1       6.403   5.330  19.720  0.00  0.00    +0.000 F 
ENDBRANCH   6   8
ENDBRANCH   1   5
BRANCH   1  16
ATOM     16  N   UNL     1       2.632   7.826  18.969  0.00  0.00    +0.000 N 
ATOM     17  H   UNL     1       3.411   8.356  18.590  0.00  0.00    +0.000 HD
BRANCH  16  18
ATOM     18  C   UNL     1       1.500   8.639  19.129  0.00  0.00    +0.000 A 
ATOM     19  C   UNL     1       0.986   9.305  18.016  0.00  0.00    +0.000 A 
ATOM     20  C   UNL     1      -0.067  10.216  18.138  0.00  0.00    +0.000 A 
ATOM     21  C   UNL     1      -0.597  10.537  19.395  0.00  0.00    +0.000 A 
ATOM     22  C   UNL     1      -0.060   9.911  20.524  0.00  0.00    +0.000 A 
ATOM     23  C   UNL     1       0.962   8.955  20.383  0.00  0.00    +0.000 A 
ATOM     24  C   UNL     1      -0.415  10.253  21.924  0.00  0.00    +0.000 C 
ATOM     25  O   UNL     1      -0.525   9.368  22.768  0.00  0.00    +0.000 OA
ATOM     26  N   UNL     1      -0.382  11.572  22.309  0.00  0.00    +0.000 N 
ATOM     27  C   UNL     1      -1.198  12.624  21.740  0.00  0.00    +0.000 C 
ATOM     28  C   UNL     1      -1.144  12.803  20.232  0.00  0.00    +0.000 C 
ATOM     29  C   UNL     1      -1.671  11.579  19.497  0.00  0.00    +0.000 C 
ATOM     30  H   UNL     1      -0.379  11.597  23.324  0.00  0.00    +0.000 HD
ENDBRANCH  16  18
ENDBRANCH   1  16
TORSDOF 4
ENDMDL
MODEL 4
REMARK VINA RESULT:      -8.8      2.154      3.962
REMARK  Name = 
REMARK  5 active torsions:
REMARK  status: ('A' for Active; 'I' for Inactive)
REMARK    1  A    between atoms: C_1  and  N_2
REMARK    2  A    between atoms: C_4  and  C_5
REMARK    3  A    between atoms: C_5  and  N_6
REMARK    4  A    between atoms: N_6  and  C_7
REMARK    5  A    between atoms: C_19  and  C_20
REMARK                            x       y       z     vdW  Elec       q    Type
REMARK                         _______ _______ _______ _____ _____    ______ ____
ROOT
ATOM      1  C   UNL     1       3.857   7.380  17.614  0.00  0.00    +0.000 C 
ENDROOT
BRANCH   1   5
ATOM      2  C   UNL     1       6.327   4.148  14.687  0.00  0.00    +0.000 C 
ATOM      3  N   UNL     1       5.435   4.729  15.662  0.00  0.00    +0.000 N 
ATOM      4  C   UNL     1       5.263   6.051  15.912  0.00  0.00    +0.000 A 
ATOM      5  C   UNL     1       4.348   6.136  16.942  0.00  0.00    +0.000 A 
ATOM      6  C   UNL     1       4.028   4.769  17.262  0.00  0.00    +0.000 A 
ATOM      7  N   UNL     1       4.679   3.935  16.433  0.00  0.00    +0.000 NA
BRANCH   6   8
ATOM      8  C   UNL     1       3.151   4.259  18.326  0.00  0.00    +0.000 A 
ATOM      9  C   UNL     1       2.046   3.450  18.020  0.00  0.00    +0.000 A 
ATOM     10  C   UNL     1       1.154   3.059  19.015  0.00  0.00    +0.000 A 
ATOM     11  F   UNL     1       0.080   2.334  18.680  0.00  0.00    +0.000 F 
ATOM     12  C   UNL     1       1.357   3.411  20.341  0.00  0.00    +0.000 A 
ATOM     13  C   UNL     1       2.479   4.164  20.674  0.00  0.00    +0.000 A 
ATOM     14  C   UNL     1       3.362   4.589  19.674  0.00  0.00    +0.000 A 
ATOM     15  F   UNL     1       4.398   5.351  20.053  0.00  0.00    +0.000 F 
ENDBRANCH   6   8
ENDBRANCH   1   5
BRANCH   1  16
ATOM     16  N   UNL     1       2.416   7.445  17.864  0.00  0.00    +0.000 N 
ATOM     17  H   UNL     1       2.038   6.511  17.995  0.00  0.00    +0.000 HD
BRANCH  16  18
ATOM     18  C   UNL     1       1.975   8.313  18.872  0.00  0.00    +0.000 A 
ATOM     19  C   UNL     1       1.739   7.800  20.149  0.00  0.00    +0.000 A 
ATOM     20  C   UNL     1       1.191   8.592  21.161  0.00  0.00    +0.000 A 
ATOM     21  C   UNL     1       0.799   9.913  20.905  0.00  0.00    +0.000 A 
ATOM     22  C   UNL     1       0.986  10.426  19.618  0.00  0.00    +0.000 A 
ATOM     23  C   UNL     1       1.590   9.637  18.623  0.00  0.00    +0.000 A 
ATOM     24  C   UNL     1       0.492  11.749  19.159  0.00  0.00    +0.000 C 
ATOM     25  O   UNL     1       1.176  12.439  18.410  0.00  0.00    +0.000 OA
ATOM     26  N   UNL     1      -0.823  12.076  19.389  0.00  0.00    +0.000 N 
ATOM     27  C   UNL     1      -1.435  12.190  20.696  0.00  0.00    +0.000 C 
ATOM     28  C   UNL     1      -1.311  10.993  21.625  0.00  0.00    +0.000 C 
ATOM     29  C   UNL     1       0.138  10.709  21.991  0.00  0.00    +0.000 C 
ATOM     30  H   UNL     1      -1.054  12.863  18.790  0.00  0.00    +0.000 HD
ENDBRANCH  16  18
ENDBRANCH   1  16
TORSDOF 4
ENDMDL
MODEL 5
REMARK VINA RESULT:      -8.8      2.610      4.497
REMARK  Name = 
REMARK  5 active torsions:
REMARK  status: ('A' for Active; 'I' for Inactive)
REMARK    1  A    between atoms: C_1  and  N_2
REMARK    2  A    between atoms: C_4  and  C_5
REMARK    3  A    between atoms: C_5  and  N_6
REMARK    4  A    between atoms: N_6  and  C_7
REMARK    5  A    between atoms: C_19  and  C_20
REMARK                            x       y       z     vdW  Elec       q    Type
REMARK                         _______ _______ _______ _____ _____    ______ ____
ROOT
ATOM      1  C   UNL     1       4.404   6.785  17.915  0.00  0.00    +0.000 C 
ENDROOT
BRANCH   1   5
ATOM      2  C   UNL     1       6.251   4.195  14.043  0.00  0.00    +0.000 C 
ATOM      3  N   UNL     1       5.532   4.579  15.233  0.00  0.00    +0.000 N 
ATOM      4  C   UNL     1       5.490   5.816  15.788  0.00  0.00    +0.000 A 
ATOM      5  C   UNL     1       4.716   5.705  16.927  0.00  0.00    +0.000 A 
ATOM      6  C   UNL     1       4.338   4.317  16.979  0.00  0.00    +0.000 A 
ATOM      7  N   UNL     1       4.819   3.665  15.907  0.00  0.00    +0.000 NA
BRANCH   6   8
ATOM      8  C   UNL     1       3.562   3.618  18.014  0.00  0.00    +0.000 A 
ATOM      9  C   UNL     1       2.245   3.201  17.767  0.00  0.00    +0.000 A 
ATOM     10  C   UNL     1       1.476   2.639  18.781  0.00  0.00    +0.000 A 
ATOM     11  F   UNL     1       0.205   2.302  18.526  0.00  0.00    +0.000 F 
ATOM     12  C   UNL     1       1.998   2.427  20.048  0.00  0.00    +0.000 A 
ATOM     13  C   UNL     1       3.322   2.781  20.298  0.00  0.00    +0.000 A 
ATOM     14  C   UNL     1       4.091   3.377  19.292  0.00  0.00    +0.000 A 
ATOM     15  F   UNL     1       5.343   3.738  19.610  0.00  0.00    +0.000 F 
ENDBRANCH   6   8
ENDBRANCH   1   5
BRANCH   1  16
ATOM     16  N   UNL     1       3.174   6.607  18.689  0.00  0.00    +0.000 N 
ATOM     17  H   UNL     1       3.388   6.246  19.614  0.00  0.00    +0.000 HD
BRANCH  16  18
ATOM     18  C   UNL     1       2.297   7.698  18.764  0.00  0.00    +0.000 A 
ATOM     19  C   UNL     1       2.340   8.668  17.762  0.00  0.00    +0.000 A 
ATOM     20  C   UNL     1       1.571   9.833  17.845  0.00  0.00    +0.000 A 
ATOM     21  C   UNL     1       0.781  10.092  18.973  0.00  0.00    +0.000 A 
ATOM     22  C   UNL     1       0.764   9.150  20.005  0.00  0.00    +0.000 A 
ATOM     23  C   UNL     1       1.498   7.956  19.886  0.00  0.00    +0.000 A 
ATOM     24  C   UNL     1       0.095   9.350  21.316  0.00  0.00    +0.000 C 
ATOM     25  O   UNL     1      -0.493   8.419  21.858  0.00  0.00    +0.000 OA
ATOM     26  N   UNL     1       0.346  10.507  22.013  0.00  0.00    +0.000 N 
ATOM     27  C   UNL     1       0.043  11.843  21.543  0.00  0.00    +0.000 C 
ATOM     28  C   UNL     1       0.603  12.243  20.189  0.00  0.00    +0.000 C 
ATOM     29  C   UNL     1       0.033  11.389  19.066  0.00  0.00    +0.000 C 
ATOM     30  H   UNL     1       0.041  10.362  22.971  0.00  0.00    +0.000 HD
ENDBRANCH  16  18
ENDBRANCH   1  16
TORSDOF 4
ENDMDL
MODEL 6
REMARK VINA RESULT:      -8.8      2.073      2.516
REMARK  Name = 
REMARK  5 active torsions:
REMARK  status: ('A' for Active; 'I' for Inactive)
REMARK    1  A    between atoms: C_1  and  N_2
REMARK    2  A    between atoms: C_4  and  C_5
REMARK    3  A    between atoms: C_5  and  N_6
REMARK    4  A    between atoms: N_6  and  C_7
REMARK    5  A    between atoms: C_19  and  C_20
REMARK                            x       y       z     vdW  Elec       q    Type
REMARK                         _______ _______ _______ _____ _____    ______ ____
ROOT
ATOM      1  C   UNL     1       2.452   6.735  19.166  0.00  0.00    +0.000 C 
ENDROOT
BRANCH   1   5
ATOM      2  C   UNL     1       1.473   2.512  21.680  0.00  0.00    +0.000 C 
ATOM      3  N   UNL     1       2.079   3.505  20.827  0.00  0.00    +0.000 N 
ATOM      4  C   UNL     1       1.665   4.785  20.657  0.00  0.00    +0.000 A 
ATOM      5  C   UNL     1       2.517   5.349  19.727  0.00  0.00    +0.000 A 
ATOM      6  C   UNL     1       3.430   4.292  19.378  0.00  0.00    +0.000 A 
ATOM      7  N   UNL     1       3.160   3.190  20.099  0.00  0.00    +0.000 NA
BRANCH   6   8
ATOM      8  C   UNL     1       4.513   4.309  18.385  0.00  0.00    +0.000 A 
ATOM      9  C   UNL     1       5.808   4.719  18.739  0.00  0.00    +0.000 A 
ATOM     10  C   UNL     1       6.804   4.840  17.775  0.00  0.00    +0.000 A 
ATOM     11  F   UNL     1       8.013   5.287  18.138  0.00  0.00    +0.000 F 
ATOM     12  C   UNL     1       6.566   4.511  16.449  0.00  0.00    +0.000 A 
ATOM     13  C   UNL     1       5.305   4.046  16.087  0.00  0.00    +0.000 A 
ATOM     14  C   UNL     1       4.288   3.954  17.045  0.00  0.00    +0.000 A 
ATOM     15  F   UNL     1       3.083   3.544  16.624  0.00  0.00    +0.000 F 
ENDBRANCH   6   8
ENDBRANCH   1   5
BRANCH   1  16
ATOM     16  N   UNL     1       2.395   7.820  20.147  0.00  0.00    +0.000 N 
ATOM     17  H   UNL     1       3.280   8.319  20.173  0.00  0.00    +0.000 HD
BRANCH  16  18
ATOM     18  C   UNL     1       1.317   8.711  20.062  0.00  0.00    +0.000 A 
ATOM     19  C   UNL     1       0.973   9.236  18.816  0.00  0.00    +0.000 A 
ATOM     20  C   UNL     1      -0.017  10.215  18.688  0.00  0.00    +0.000 A 
ATOM     21  C   UNL     1      -0.652  10.745  19.819  0.00  0.00    +0.000 A 
ATOM     22  C   UNL     1      -0.285  10.260  21.078  0.00  0.00    +0.000 A 
ATOM     23  C   UNL     1       0.673   9.237  21.190  0.00  0.00    +0.000 A 
ATOM     24  C   UNL     1      -0.759  10.823  22.367  0.00  0.00    +0.000 C 
ATOM     25  O   UNL     1      -1.024  10.079  23.307  0.00  0.00    +0.000 OA
ATOM     26  N   UNL     1      -0.670  12.180  22.566  0.00  0.00    +0.000 N 
ATOM     27  C   UNL     1      -1.342  13.183  21.767  0.00  0.00    +0.000 C 
ATOM     28  C   UNL     1      -1.116  13.137  20.265  0.00  0.00    +0.000 C 
ATOM     29  C   UNL     1      -1.651  11.852  19.652  0.00  0.00    +0.000 C 
ATOM     30  H   UNL     1      -0.774  12.353  23.561  0.00  0.00    +0.000 HD
ENDBRANCH  16  18
ENDBRANCH   1  16
TORSDOF 4
ENDMDL
MODEL 7
REMARK VINA RESULT:      -8.8      2.190      3.037
REMARK  Name = 
REMARK  5 active torsions:
REMARK  status: ('A' for Active; 'I' for Inactive)
REMARK    1  A    between atoms: C_1  and  N_2
REMARK    2  A    between atoms: C_4  and  C_5
REMARK    3  A    between atoms: C_5  and  N_6
REMARK    4  A    between atoms: N_6  and  C_7
REMARK    5  A    between atoms: C_19  and  C_20
REMARK                            x       y       z     vdW  Elec       q    Type
REMARK                         _______ _______ _______ _____ _____    ______ ____
ROOT
ATOM      1  C   UNL     1       3.226   6.504  19.344  0.00  0.00    +0.000 C 
ENDROOT
BRANCH   1   5
ATOM      2  C   UNL     1       0.718   2.197  18.817  0.00  0.00    +0.000 C 
ATOM      3  N   UNL     1       1.730   3.224  18.763  0.00  0.00    +0.000 N 
ATOM      4  C   UNL     1       1.667   4.451  19.337  0.00  0.00    +0.000 A 
ATOM      5  C   UNL     1       2.835   5.102  18.992  0.00  0.00    +0.000 A 
ATOM      6  C   UNL     1       3.552   4.160  18.174  0.00  0.00    +0.000 A 
ATOM      7  N   UNL     1       2.868   3.006  18.087  0.00  0.00    +0.000 NA
BRANCH   6   8
ATOM      8  C   UNL     1       4.835   4.341  17.478  0.00  0.00    +0.000 A 
ATOM      9  C   UNL     1       4.920   4.216  16.083  0.00  0.00    +0.000 A 
ATOM     10  C   UNL     1       6.151   4.279  15.438  0.00  0.00    +0.000 A 
ATOM     11  F   UNL     1       6.203   4.101  14.112  0.00  0.00    +0.000 F 
ATOM     12  C   UNL     1       7.322   4.516  16.142  0.00  0.00    +0.000 A 
ATOM     13  C   UNL     1       7.252   4.701  17.521  0.00  0.00    +0.000 A 
ATOM     14  C   UNL     1       6.021   4.606  18.181  0.00  0.00    +0.000 A 
ATOM     15  F   UNL     1       6.027   4.747  19.514  0.00  0.00    +0.000 F 
ENDBRANCH   6   8
ENDBRANCH   1   5
BRANCH   1  16
ATOM     16  N   UNL     1       2.869   7.531  18.364  0.00  0.00    +0.000 N 
ATOM     17  H   UNL     1       2.650   7.104  17.469  0.00  0.00    +0.000 HD
BRANCH  16  18
ATOM     18  C   UNL     1       1.886   8.460  18.733  0.00  0.00    +0.000 A 
ATOM     19  C   UNL     1       1.753   9.633  17.988  0.00  0.00    +0.000 A 
ATOM     20  C   UNL     1       0.870  10.644  18.377  0.00  0.00    +0.000 A 
ATOM     21  C   UNL     1       0.137  10.539  19.566  0.00  0.00    +0.000 A 
ATOM     22  C   UNL     1       0.295   9.390  20.346  0.00  0.00    +0.000 A 
ATOM     23  C   UNL     1       1.144   8.354  19.917  0.00  0.00    +0.000 A 
ATOM     24  C   UNL     1      -0.298   9.200  21.695  0.00  0.00    +0.000 C 
ATOM     25  O   UNL     1      -0.742   8.104  22.026  0.00  0.00    +0.000 OA
ATOM     26  N   UNL     1      -0.126  10.187  22.635  0.00  0.00    +0.000 N 
ATOM     27  C   UNL     1      -0.605  11.548  22.507  0.00  0.00    +0.000 C 
ATOM     28  C   UNL     1      -0.188  12.314  21.263  0.00  0.00    +0.000 C 
ATOM     29  C   UNL     1      -0.739  11.678  19.995  0.00  0.00    +0.000 C 
ATOM     30  H   UNL     1      -0.345   9.789  23.543  0.00  0.00    +0.000 HD
ENDBRANCH  16  18
ENDBRANCH   1  16
TORSDOF 4
ENDMDL
MODEL 8
REMARK VINA RESULT:      -8.8      2.309      3.709
REMARK  Name = 
REMARK  5 active torsions:
REMARK  status: ('A' for Active; 'I' for Inactive)
REMARK    1  A    between atoms: C_1  and  N_2
REMARK    2  A    between atoms: C_4  and  C_5
REMARK    3  A    between atoms: C_5  and  N_6
REMARK    4  A    between atoms: N_6  and  C_7
REMARK    5  A    between atoms: C_19  and  C_20
REMARK                            x       y       z     vdW  Elec       q    Type
REMARK                         _______ _______ _______ _____ _____    ______ ____
ROOT
ATOM      1  C   UNL     1       3.992   7.206  17.862  0.00  0.00    +0.000 C 
ENDROOT
BRANCH   1   5
ATOM      2  C   UNL     1       6.106   3.987  14.656  0.00  0.00    +0.000 C 
ATOM      3  N   UNL     1       5.302   4.570  15.702  0.00  0.00    +0.000 N 
ATOM      4  C   UNL     1       5.227   5.885  16.026  0.00  0.00    +0.000 A 
ATOM      5  C   UNL     1       4.369   5.971  17.105  0.00  0.00    +0.000 A 
ATOM      6  C   UNL     1       3.978   4.612  17.372  0.00  0.00    +0.000 A 
ATOM      7  N   UNL     1       4.534   3.784  16.471  0.00  0.00    +0.000 NA
BRANCH   6   8
ATOM      8  C   UNL     1       3.122   4.101  18.453  0.00  0.00    +0.000 A 
ATOM      9  C   UNL     1       3.682   3.495  19.588  0.00  0.00    +0.000 A 
ATOM     10  C   UNL     1       2.869   2.915  20.557  0.00  0.00    +0.000 A 
ATOM     11  F   UNL     1       3.437   2.296  21.600  0.00  0.00    +0.000 F 
ATOM     12  C   UNL     1       1.487   2.961  20.459  0.00  0.00    +0.000 A 
ATOM     13  C   UNL     1       0.910   3.608  19.369  0.00  0.00    +0.000 A 
ATOM     14  C   UNL     1       1.722   4.166  18.374  0.00  0.00    +0.000 A 
ATOM     15  F   UNL     1       1.106   4.734  17.327  0.00  0.00    +0.000 F 
ENDBRANCH   6   8
ENDBRANCH   1   5
BRANCH   1  16
ATOM     16  N   UNL     1       2.733   7.840  17.464  0.00  0.00    +0.000 N 
ATOM     17  H   UNL     1       2.060   7.136  17.175  0.00  0.00    +0.000 HD
BRANCH  16  18
ATOM     18  C   UNL     1       2.157   8.749  18.363  0.00  0.00    +0.000 A 
ATOM     19  C   UNL     1       1.543   8.259  19.516  0.00  0.00    +0.000 A 
ATOM     20  C   UNL     1       0.854   9.106  20.388  0.00  0.00    +0.000 A 
ATOM     21  C   UNL     1       0.703  10.468  20.095  0.00  0.00    +0.000 A 
ATOM     22  C   UNL     1       1.274  10.964  18.919  0.00  0.00    +0.000 A 
ATOM     23  C   UNL     1       2.012  10.112  18.078  0.00  0.00    +0.000 A 
ATOM     24  C   UNL     1       1.077  12.342  18.404  0.00  0.00    +0.000 C 
ATOM     25  O   UNL     1       2.008  12.946  17.880  0.00  0.00    +0.000 OA
ATOM     26  N   UNL     1      -0.204  12.832  18.307  0.00  0.00    +0.000 N 
ATOM     27  C   UNL     1      -1.111  13.012  19.421  0.00  0.00    +0.000 C 
ATOM     28  C   UNL     1      -1.374  11.802  20.301  0.00  0.00    +0.000 C 
ATOM     29  C   UNL     1      -0.112  11.333  21.010  0.00  0.00    +0.000 C 
ATOM     30  H   UNL     1      -0.177  13.647  17.701  0.00  0.00    +0.000 HD
ENDBRANCH  16  18
ENDBRANCH   1  16
TORSDOF 4
ENDMDL
MODEL 9
REMARK VINA RESULT:      -8.8      2.517      4.115
REMARK  Name = 
REMARK  5 active torsions:
REMARK  status: ('A' for Active; 'I' for Inactive)
REMARK    1  A    between atoms: C_1  and  N_2
REMARK    2  A    between atoms: C_4  and  C_5
REMARK    3  A    between atoms: C_5  and  N_6
REMARK    4  A    between atoms: N_6  and  C_7
REMARK    5  A    between atoms: C_19  and  C_20
REMARK                            x       y       z     vdW  Elec       q    Type
REMARK                         _______ _______ _______ _____ _____    ______ ____
ROOT
ATOM      1  C   UNL     1       2.197   7.812  17.888  0.00  0.00    +0.000 C 
ENDROOT
BRANCH   1   5
ATOM      2  C   UNL     1       6.749   6.063  16.735  0.00  0.00    +0.000 C 
ATOM      3  N   UNL     1       5.389   6.178  17.202  0.00  0.00    +0.000 N 
ATOM      4  C   UNL     1       4.585   7.264  17.088  0.00  0.00    +0.000 A 
ATOM      5  C   UNL     1       3.395   6.933  17.706  0.00  0.00    +0.000 A 
ATOM      6  C   UNL     1       3.592   5.591  18.186  0.00  0.00    +0.000 A 
ATOM      7  N   UNL     1       4.807   5.143  17.825  0.00  0.00    +0.000 NA
BRANCH   6   8
ATOM      8  C   UNL     1       2.674   4.756  18.975  0.00  0.00    +0.000 A 
ATOM      9  C   UNL     1       2.844   4.613  20.361  0.00  0.00    +0.000 A 
ATOM     10  C   UNL     1       2.043   3.738  21.088  0.00  0.00    +0.000 A 
ATOM     11  F   UNL     1       2.268   3.584  22.400  0.00  0.00    +0.000 F 
ATOM     12  C   UNL     1       1.024   3.022  20.481  0.00  0.00    +0.000 A 
ATOM     13  C   UNL     1       0.801   3.193  19.117  0.00  0.00    +0.000 A 
ATOM     14  C   UNL     1       1.623   4.046  18.373  0.00  0.00    +0.000 A 
ATOM     15  F   UNL     1       1.387   4.132  17.055  0.00  0.00    +0.000 F 
ENDBRANCH   6   8
ENDBRANCH   1   5
BRANCH   1  16
ATOM     16  N   UNL     1       2.161   8.595  19.125  0.00  0.00    +0.000 N 
ATOM     17  H   UNL     1       3.007   9.151  19.215  0.00  0.00    +0.000 HD
BRANCH  16  18
ATOM     18  C   UNL     1       1.019   9.374  19.361  0.00  0.00    +0.000 A 
ATOM     19  C   UNL     1       0.257   9.801  18.273  0.00  0.00    +0.000 A 
ATOM     20  C   UNL     1      -0.823  10.673  18.440  0.00  0.00    +0.000 A 
ATOM     21  C   UNL     1      -1.134  11.197  19.702  0.00  0.00    +0.000 A 
ATOM     22  C   UNL     1      -0.349  10.813  20.794  0.00  0.00    +0.000 A 
ATOM     23  C   UNL     1       0.700   9.892  20.623  0.00  0.00    +0.000 A 
ATOM     24  C   UNL     1      -0.464  11.392  22.157  0.00  0.00    +0.000 C 
ATOM     25  O   UNL     1      -0.347  10.674  23.146  0.00  0.00    +0.000 OA
ATOM     26  N   UNL     1      -0.463  12.759  22.294  0.00  0.00    +0.000 N 
ATOM     27  C   UNL     1      -1.450  13.652  21.724  0.00  0.00    +0.000 C 
ATOM     28  C   UNL     1      -1.691  13.553  20.227  0.00  0.00    +0.000 C 
ATOM     29  C   UNL     1      -2.247  12.193  19.832  0.00  0.00    +0.000 C 
ATOM     30  H   UNL     1      -0.274  12.971  23.269  0.00  0.00    +0.000 HD
ENDBRANCH  16  18
ENDBRANCH   1  16
TORSDOF 4
ENDMDL
