MODEL 1
REMARK VINA RESULT:      -8.0      0.000      0.000
REMARK  Name = 
REMARK  3 active torsions:
REMARK  status: ('A' for Active; 'I' for Inactive)
REMARK    1  A    between atoms: C_1  and  N_2
REMARK    2  A    between atoms: C_4  and  C_5
REMARK    3  A    between atoms: C_14  and  C_16
REMARK                            x       y       z     vdW  Elec       q    Type
REMARK                         _______ _______ _______ _____ _____    ______ ____
ROOT
ATOM      1  C   UNL     1       1.910   5.358  20.667  0.00  0.00    +0.000 C 
ATOM      2  N   UNL     1       2.659   5.867  19.550  0.00  0.00    +0.000 N 
ATOM      3  N   UNL     1       3.605   5.093  18.995  0.00  0.00    +0.000 NA
ATOM      4  C   UNL     1       4.081   5.886  18.024  0.00  0.00    +0.000 A 
ATOM      5  N   UNL     1       3.456   7.112  17.959  0.00  0.00    +0.000 NA
ATOM      6  C   UNL     1       2.556   7.081  18.916  0.00  0.00    +0.000 A 
ATOM      7  N   UNL     1       1.651   8.056  19.273  0.00  0.00    +0.000 N 
ATOM      8  C   UNL     1       1.592   9.291  18.649  0.00  0.00    +0.000 C 
ATOM      9  O   UNL     1       2.249   9.670  17.686  0.00  0.00    +0.000 OA
ATOM     10  H   UNL     1       1.034   7.912  20.062  0.00  0.00    +0.000 HD
ENDROOT
BRANCH   8  11
ATOM     11  C   UNL     1       0.555  10.221  19.293  0.00  0.00    +0.000 C 
ATOM     12  C   UNL     1      -0.020   9.650  20.595  0.00  0.00    +0.000 C 
ATOM     13  C   UNL     1      -0.304  10.932  21.286  0.00  0.00    +0.000 A 
ATOM     14  C   UNL     1      -1.094  11.209  22.388  0.00  0.00    +0.000 A 
ATOM     15  C   UNL     1      -1.129  12.527  22.866  0.00  0.00    +0.000 A 
ATOM     16  C   UNL     1      -0.365  13.535  22.254  0.00  0.00    +0.000 A 
ATOM     17  C   UNL     1       0.431  13.242  21.146  0.00  0.00    +0.000 A 
ATOM     18  C   UNL     1       0.430  11.943  20.679  0.00  0.00    +0.000 A 
ATOM     19  O   UNL     1       1.142  11.519  19.588  0.00  0.00    +0.000 OA
ENDBRANCH   8  11
BRANCH   4  20
ATOM     20  C   UNL     1       5.140   5.484  17.102  0.00  0.00    +0.000 A 
ATOM     21  C   UNL     1       6.320   4.897  17.584  0.00  0.00    +0.000 A 
ATOM     22  C   UNL     1       7.322   4.478  16.705  0.00  0.00    +0.000 A 
ATOM     23  C   UNL     1       7.155   4.646  15.332  0.00  0.00    +0.000 A 
ATOM     24  C   UNL     1       5.994   5.241  14.840  0.00  0.00    +0.000 A 
ATOM     25  C   UNL     1       4.991   5.658  15.720  0.00  0.00    +0.000 A 
ENDBRANCH   4  20
TORSDOF 2
ENDMDL
MODEL 2
REMARK VINA RESULT:      -7.8      1.201      1.618
REMARK  Name = 
REMARK  3 active torsions:
REMARK  status: ('A' for Active; 'I' for Inactive)
REMARK    1  A    between atoms: C_1  and  N_2
REMARK    2  A    between atoms: C_4  and  C_5
REMARK    3  A    between atoms: C_14  and  C_16
REMARK                            x       y       z     vdW  Elec       q    Type
REMARK                         _______ _______ _______ _____ _____    ______ ____
ROOT
ATOM      1  C   UNL     1       1.697   6.015  20.815  0.00  0.00    +0.000 C 
ATOM      2  N   UNL     1       2.366   6.341  19.585  0.00  0.00    +0.000 N 
ATOM      3  N   UNL     1       3.110   5.401  18.981  0.00  0.00    +0.000 NA
ATOM      4  C   UNL     1       3.572   6.057  17.906  0.00  0.00    +0.000 A 
ATOM      5  N   UNL     1       3.131   7.360  17.826  0.00  0.00    +0.000 NA
ATOM      6  C   UNL     1       2.365   7.520  18.880  0.00  0.00    +0.000 A 
ATOM      7  N   UNL     1       1.665   8.641  19.268  0.00  0.00    +0.000 N 
ATOM      8  C   UNL     1       1.711   9.836  18.567  0.00  0.00    +0.000 C 
ATOM      9  O   UNL     1       2.290  10.055  17.509  0.00  0.00    +0.000 OA
ATOM     10  H   UNL     1       1.138   8.638  20.132  0.00  0.00    +0.000 HD
ENDROOT
BRANCH   8  11
ATOM     11  C   UNL     1       0.912  10.949  19.258  0.00  0.00    +0.000 C 
ATOM     12  C   UNL     1      -0.487  11.129  18.657  0.00  0.00    +0.000 C 
ATOM     13  C   UNL     1      -1.186  11.607  19.876  0.00  0.00    +0.000 A 
ATOM     14  C   UNL     1      -2.406  12.242  20.028  0.00  0.00    +0.000 A 
ATOM     15  C   UNL     1      -2.848  12.527  21.327  0.00  0.00    +0.000 A 
ATOM     16  C   UNL     1      -2.082  12.159  22.446  0.00  0.00    +0.000 A 
ATOM     17  C   UNL     1      -0.856  11.515  22.280  0.00  0.00    +0.000 A 
ATOM     18  C   UNL     1      -0.429  11.268  20.990  0.00  0.00    +0.000 A 
ATOM     19  O   UNL     1       0.763  10.668  20.678  0.00  0.00    +0.000 OA
ENDBRANCH   8  11
BRANCH   4  20
ATOM     20  C   UNL     1       4.435   5.445  16.899  0.00  0.00    +0.000 A 
ATOM     21  C   UNL     1       5.118   6.242  15.966  0.00  0.00    +0.000 A 
ATOM     22  C   UNL     1       5.973   5.664  15.023  0.00  0.00    +0.000 A 
ATOM     23  C   UNL     1       6.149   4.283  15.000  0.00  0.00    +0.000 A 
ATOM     24  C   UNL     1       5.466   3.479  15.911  0.00  0.00    +0.000 A 
ATOM     25  C   UNL     1       4.613   4.056  16.856  0.00  0.00    +0.000 A 
ENDBRANCH   4  20
TORSDOF 2
ENDMDL
MODEL 3
REMARK VINA RESULT:      -7.8      3.079      8.422
REMARK  Name = 
REMARK  3 active torsions:
REMARK  status: ('A' for Active; 'I' for Inactive)
REMARK    1  A    between atoms: C_1  and  N_2
REMARK    2  A    between atoms: C_4  and  C_5
REMARK    3  A    between atoms: C_14  and  C_16
REMARK                            x       y       z     vdW  Elec       q    Type
REMARK                         _______ _______ _______ _____ _____    ______ ____
ROOT
ATOM      1  C   UNL     1       0.045   9.447  23.371  0.00  0.00    +0.000 C 
ATOM      2  N   UNL     1       0.296  10.170  22.154  0.00  0.00    +0.000 N 
ATOM      3  N   UNL     1      -0.091  11.453  22.070  0.00  0.00    +0.000 NA
ATOM      4  C   UNL     1       0.287  11.778  20.825  0.00  0.00    +0.000 A 
ATOM      5  N   UNL     1       0.898  10.745  20.148  0.00  0.00    +0.000 NA
ATOM      6  C   UNL     1       0.907   9.745  21.000  0.00  0.00    +0.000 A 
ATOM      7  N   UNL     1       1.416   8.477  20.828  0.00  0.00    +0.000 N 
ATOM      8  C   UNL     1       1.990   8.052  19.641  0.00  0.00    +0.000 C 
ATOM      9  O   UNL     1       2.194   8.720  18.632  0.00  0.00    +0.000 OA
ATOM     10  H   UNL     1       1.322   7.787  21.563  0.00  0.00    +0.000 HD
ENDROOT
BRANCH   8  11
ATOM     11  C   UNL     1       2.397   6.574  19.685  0.00  0.00    +0.000 C 
ATOM     12  C   UNL     1       1.551   5.760  20.671  0.00  0.00    +0.000 C 
ATOM     13  C   UNL     1       1.612   4.449  19.978  0.00  0.00    +0.000 A 
ATOM     14  C   UNL     1       1.318   3.174  20.428  0.00  0.00    +0.000 A 
ATOM     15  C   UNL     1       1.411   2.111  19.518  0.00  0.00    +0.000 A 
ATOM     16  C   UNL     1       1.773   2.339  18.180  0.00  0.00    +0.000 A 
ATOM     17  C   UNL     1       2.062   3.630  17.736  0.00  0.00    +0.000 A 
ATOM     18  C   UNL     1       1.989   4.656  18.657  0.00  0.00    +0.000 A 
ATOM     19  O   UNL     1       2.270   5.966  18.369  0.00  0.00    +0.000 OA
ENDBRANCH   8  11
BRANCH   4  20
ATOM     20  C   UNL     1       0.099  13.106  20.246  0.00  0.00    +0.000 A 
ATOM     21  C   UNL     1       1.026  13.622  19.327  0.00  0.00    +0.000 A 
ATOM     22  C   UNL     1       0.832  14.877  18.745  0.00  0.00    +0.000 A 
ATOM     23  C   UNL     1      -0.289  15.632  19.079  0.00  0.00    +0.000 A 
ATOM     24  C   UNL     1      -1.211  15.138  20.001  0.00  0.00    +0.000 A 
ATOM     25  C   UNL     1      -1.018  13.881  20.583  0.00  0.00    +0.000 A 
ENDBRANCH   4  20
TORSDOF 2
ENDMDL
MODEL 4
REMARK VINA RESULT:      -7.8      2.848      4.157
REMARK  Name = 
REMARK  3 active torsions:
REMARK  status: ('A' for Active; 'I' for Inactive)
REMARK    1  A    between atoms: C_1  and  N_2
REMARK    2  A    between atoms: C_4  and  C_5
REMARK    3  A    between atoms: C_14  and  C_16
REMARK                            x       y       z     vdW  Elec       q    Type
REMARK                         _______ _______ _______ _____ _____    ______ ____
ROOT
ATOM      1  C   UNL     1       1.912   9.556  17.857  0.00  0.00    +0.000 C 
ATOM      2  N   UNL     1       1.877   8.560  18.893  0.00  0.00    +0.000 N 
ATOM      3  N   UNL     1       2.422   7.356  18.656  0.00  0.00    +0.000 NA
ATOM      4  C   UNL     1       2.193   6.712  19.809  0.00  0.00    +0.000 A 
ATOM      5  N   UNL     1       1.535   7.480  20.746  0.00  0.00    +0.000 NA
ATOM      6  C   UNL     1       1.354   8.641  20.161  0.00  0.00    +0.000 A 
ATOM      7  N   UNL     1       0.754   9.772  20.668  0.00  0.00    +0.000 N 
ATOM      8  C   UNL     1       0.193   9.822  21.934  0.00  0.00    +0.000 C 
ATOM      9  O   UNL     1       0.204   8.941  22.787  0.00  0.00    +0.000 OA
ATOM     10  H   UNL     1       0.648  10.595  20.088  0.00  0.00    +0.000 HD
ENDROOT
BRANCH   8  11
ATOM     11  C   UNL     1      -0.486  11.168  22.219  0.00  0.00    +0.000 C 
ATOM     12  C   UNL     1      -1.147  11.769  20.973  0.00  0.00    +0.000 C 
ATOM     13  C   UNL     1      -2.243  12.510  21.647  0.00  0.00    +0.000 A 
ATOM     14  C   UNL     1      -3.071  13.517  21.184  0.00  0.00    +0.000 A 
ATOM     15  C   UNL     1      -4.075  13.996  22.037  0.00  0.00    +0.000 A 
ATOM     16  C   UNL     1      -4.250  13.451  23.320  0.00  0.00    +0.000 A 
ATOM     17  C   UNL     1      -3.412  12.432  23.774  0.00  0.00    +0.000 A 
ATOM     18  C   UNL     1      -2.414  11.995  22.925  0.00  0.00    +0.000 A 
ATOM     19  O   UNL     1      -1.505  11.022  23.247  0.00  0.00    +0.000 OA
ENDBRANCH   8  11
BRANCH   4  20
ATOM     20  C   UNL     1       2.621   5.340  20.064  0.00  0.00    +0.000 A 
ATOM     21  C   UNL     1       1.955   4.549  21.014  0.00  0.00    +0.000 A 
ATOM     22  C   UNL     1       2.339   3.224  21.237  0.00  0.00    +0.000 A 
ATOM     23  C   UNL     1       3.397   2.678  20.516  0.00  0.00    +0.000 A 
ATOM     24  C   UNL     1       4.077   3.455  19.580  0.00  0.00    +0.000 A 
ATOM     25  C   UNL     1       3.692   4.780  19.356  0.00  0.00    +0.000 A 
ENDBRANCH   4  20
TORSDOF 2
ENDMDL
MODEL 5
REMARK VINA RESULT:      -7.7      2.233      8.965
REMARK  Name = 
REMARK  3 active torsions:
REMARK  status: ('A' for Active; 'I' for Inactive)
REMARK    1  A    between atoms: C_1  and  N_2
REMARK    2  A    between atoms: C_4  and  C_5
REMARK    3  A    between atoms: C_14  and  C_16
REMARK                            x       y       z     vdW  Elec       q    Type
REMARK                         _______ _______ _______ _____ _____    ______ ____
ROOT
ATOM      1  C   UNL     1       2.664   3.672  20.194  0.00  0.00    +0.000 C 
ATOM      2  N   UNL     1       2.602   5.076  19.888  0.00  0.00    +0.000 N 
ATOM      3  N   UNL     1       1.827   5.871  20.642  0.00  0.00    +0.000 NA
ATOM      4  C   UNL     1       2.009   7.068  20.065  0.00  0.00    +0.000 A 
ATOM      5  N   UNL     1       2.873   7.036  18.992  0.00  0.00    +0.000 NA
ATOM      6  C   UNL     1       3.247   5.780  18.901  0.00  0.00    +0.000 A 
ATOM      7  N   UNL     1       4.119   5.209  18.000  0.00  0.00    +0.000 N 
ATOM      8  C   UNL     1       4.726   5.928  16.983  0.00  0.00    +0.000 C 
ATOM      9  O   UNL     1       4.649   7.134  16.776  0.00  0.00    +0.000 OA
ATOM     10  H   UNL     1       4.290   4.212  18.021  0.00  0.00    +0.000 HD
ENDROOT
BRANCH   8  11
ATOM     11  C   UNL     1       5.580   5.038  16.070  0.00  0.00    +0.000 C 
ATOM     12  C   UNL     1       4.733   4.209  15.098  0.00  0.00    +0.000 C 
ATOM     13  C   UNL     1       5.710   4.118  13.984  0.00  0.00    +0.000 A 
ATOM     14  C   UNL     1       5.752   3.278  12.885  0.00  0.00    +0.000 A 
ATOM     15  C   UNL     1       6.778   3.462  11.947  0.00  0.00    +0.000 A 
ATOM     16  C   UNL     1       7.727   4.486  12.110  0.00  0.00    +0.000 A 
ATOM     17  C   UNL     1       7.672   5.329  13.221  0.00  0.00    +0.000 A 
ATOM     18  C   UNL     1       6.667   5.112  14.143  0.00  0.00    +0.000 A 
ATOM     19  O   UNL     1       6.507   5.844  15.290  0.00  0.00    +0.000 OA
ENDBRANCH   8  11
BRANCH   4  20
ATOM     20  C   UNL     1       1.378   8.296  20.542  0.00  0.00    +0.000 A 
ATOM     21  C   UNL     1       1.066   9.332  19.646  0.00  0.00    +0.000 A 
ATOM     22  C   UNL     1       0.431  10.494  20.091  0.00  0.00    +0.000 A 
ATOM     23  C   UNL     1       0.105  10.635  21.438  0.00  0.00    +0.000 A 
ATOM     24  C   UNL     1       0.422   9.621  22.340  0.00  0.00    +0.000 A 
ATOM     25  C   UNL     1       1.056   8.457  21.895  0.00  0.00    +0.000 A 
ENDBRANCH   4  20
TORSDOF 2
ENDMDL
MODEL 6
REMARK VINA RESULT:      -7.4      1.218      1.668
REMARK  Name = 
REMARK  3 active torsions:
REMARK  status: ('A' for Active; 'I' for Inactive)
REMARK    1  A    between atoms: C_1  and  N_2
REMARK    2  A    between atoms: C_4  and  C_5
REMARK    3  A    between atoms: C_14  and  C_16
REMARK                            x       y       z     vdW  Elec       q    Type
REMARK                         _______ _______ _______ _____ _____    ______ ____
ROOT
ATOM      1  C   UNL     1       2.112   4.533  21.248  0.00  0.00    +0.000 C 
ATOM      2  N   UNL     1       2.780   5.183  20.153  0.00  0.00    +0.000 N 
ATOM      3  N   UNL     1       3.750   4.524  19.500  0.00  0.00    +0.000 NA
ATOM      4  C   UNL     1       4.133   5.426  18.584  0.00  0.00    +0.000 A 
ATOM      5  N   UNL     1       3.428   6.608  18.648  0.00  0.00    +0.000 NA
ATOM      6  C   UNL     1       2.573   6.436  19.629  0.00  0.00    +0.000 A 
ATOM      7  N   UNL     1       1.622   7.314  20.101  0.00  0.00    +0.000 N 
ATOM      8  C   UNL     1       1.458   8.590  19.589  0.00  0.00    +0.000 C 
ATOM      9  O   UNL     1       2.048   9.092  18.639  0.00  0.00    +0.000 OA
ATOM     10  H   UNL     1       1.049   7.063  20.897  0.00  0.00    +0.000 HD
ENDROOT
BRANCH   8  11
ATOM     11  C   UNL     1       0.391   9.391  20.348  0.00  0.00    +0.000 C 
ATOM     12  C   UNL     1       0.996  10.482  21.238  0.00  0.00    +0.000 C 
ATOM     13  C   UNL     1      -0.126  11.452  21.184  0.00  0.00    +0.000 A 
ATOM     14  C   UNL     1      -0.413  12.547  21.980  0.00  0.00    +0.000 A 
ATOM     15  C   UNL     1      -1.528  13.332  21.652  0.00  0.00    +0.000 A 
ATOM     16  C   UNL     1      -2.320  13.025  20.533  0.00  0.00    +0.000 A 
ATOM     17  C   UNL     1      -2.018  11.921  19.736  0.00  0.00    +0.000 A 
ATOM     18  C   UNL     1      -0.930  11.149  20.093  0.00  0.00    +0.000 A 
ATOM     19  O   UNL     1      -0.533  10.024  19.419  0.00  0.00    +0.000 OA
ENDBRANCH   8  11
BRANCH   4  20
ATOM     20  C   UNL     1       5.176   5.175  17.594  0.00  0.00    +0.000 A 
ATOM     21  C   UNL     1       4.917   5.343  16.224  0.00  0.00    +0.000 A 
ATOM     22  C   UNL     1       5.921   5.138  15.275  0.00  0.00    +0.000 A 
ATOM     23  C   UNL     1       7.196   4.756  15.686  0.00  0.00    +0.000 A 
ATOM     24  C   UNL     1       7.465   4.571  17.041  0.00  0.00    +0.000 A 
ATOM     25  C   UNL     1       6.460   4.778  17.991  0.00  0.00    +0.000 A 
ENDBRANCH   4  20
TORSDOF 2
ENDMDL
MODEL 7
REMARK VINA RESULT:      -7.3      2.040      8.790
REMARK  Name = 
REMARK  3 active torsions:
REMARK  status: ('A' for Active; 'I' for Inactive)
REMARK    1  A    between atoms: C_1  and  N_2
REMARK    2  A    between atoms: C_4  and  C_5
REMARK    3  A    between atoms: C_14  and  C_16
REMARK                            x       y       z     vdW  Elec       q    Type
REMARK                         _______ _______ _______ _____ _____    ______ ____
ROOT
ATOM      1  C   UNL     1       2.404  10.453  17.568  0.00  0.00    +0.000 C 
ATOM      2  N   UNL     1       1.624  10.115  18.728  0.00  0.00    +0.000 N 
ATOM      3  N   UNL     1       0.815  11.045  19.260  0.00  0.00    +0.000 NA
ATOM      4  C   UNL     1       0.280  10.389  20.300  0.00  0.00    +0.000 A 
ATOM      5  N   UNL     1       0.726   9.091  20.419  0.00  0.00    +0.000 NA
ATOM      6  C   UNL     1       1.560   8.929  19.418  0.00  0.00    +0.000 A 
ATOM      7  N   UNL     1       2.275   7.805  19.070  0.00  0.00    +0.000 N 
ATOM      8  C   UNL     1       2.232   6.630  19.804  0.00  0.00    +0.000 C 
ATOM      9  O   UNL     1       1.534   6.390  20.783  0.00  0.00    +0.000 OA
ATOM     10  H   UNL     1       2.916   7.831  18.287  0.00  0.00    +0.000 HD
ENDROOT
BRANCH   8  11
ATOM     11  C   UNL     1       3.186   5.562  19.253  0.00  0.00    +0.000 C 
ATOM     12  C   UNL     1       3.019   5.346  17.744  0.00  0.00    +0.000 C 
ATOM     13  C   UNL     1       4.413   4.944  17.428  0.00  0.00    +0.000 A 
ATOM     14  C   UNL     1       4.943   4.321  16.313  0.00  0.00    +0.000 A 
ATOM     15  C   UNL     1       6.329   4.115  16.262  0.00  0.00    +0.000 A 
ATOM     16  C   UNL     1       7.159   4.550  17.309  0.00  0.00    +0.000 A 
ATOM     17  C   UNL     1       6.614   5.182  18.427  0.00  0.00    +0.000 A 
ATOM     18  C   UNL     1       5.243   5.350  18.465  0.00  0.00    +0.000 A 
ATOM     19  O   UNL     1       4.570   5.929  19.509  0.00  0.00    +0.000 OA
ENDBRANCH   8  11
BRANCH   4  20
ATOM     20  C   UNL     1      -0.702  10.978  21.206  0.00  0.00    +0.000 A 
ATOM     21  C   UNL     1      -0.756  10.586  22.553  0.00  0.00    +0.000 A 
ATOM     22  C   UNL     1      -1.670  11.172  23.432  0.00  0.00    +0.000 A 
ATOM     23  C   UNL     1      -2.544  12.154  22.972  0.00  0.00    +0.000 A 
ATOM     24  C   UNL     1      -2.511  12.544  21.634  0.00  0.00    +0.000 A 
ATOM     25  C   UNL     1      -1.595  11.958  20.754  0.00  0.00    +0.000 A 
ENDBRANCH   4  20
TORSDOF 2
ENDMDL
MODEL 8
REMARK VINA RESULT:      -7.3      2.710      3.921
REMARK  Name = 
REMARK  3 active torsions:
REMARK  status: ('A' for Active; 'I' for Inactive)
REMARK    1  A    between atoms: C_1  and  N_2
REMARK    2  A    between atoms: C_4  and  C_5
REMARK    3  A    between atoms: C_14  and  C_16
REMARK                            x       y       z     vdW  Elec       q    Type
REMARK                         _______ _______ _______ _____ _____    ______ ____
ROOT
ATOM      1  C   UNL     1       2.310   9.372  17.757  0.00  0.00    +0.000 C 
ATOM      2  N   UNL     1       2.082   8.414  18.805  0.00  0.00    +0.000 N 
ATOM      3  N   UNL     1       2.624   7.190  18.696  0.00  0.00    +0.000 NA
ATOM      4  C   UNL     1       2.196   6.593  19.818  0.00  0.00    +0.000 A 
ATOM      5  N   UNL     1       1.420   7.409  20.613  0.00  0.00    +0.000 NA
ATOM      6  C   UNL     1       1.368   8.553  19.970  0.00  0.00    +0.000 A 
ATOM      7  N   UNL     1       0.727   9.715  20.339  0.00  0.00    +0.000 N 
ATOM      8  C   UNL     1      -0.025   9.823  21.497  0.00  0.00    +0.000 C 
ATOM      9  O   UNL     1      -0.175   8.973  22.369  0.00  0.00    +0.000 OA
ATOM     10  H   UNL     1       0.739  10.519  19.725  0.00  0.00    +0.000 HD
ENDROOT
BRANCH   8  11
ATOM     11  C   UNL     1      -0.702  11.194  21.628  0.00  0.00    +0.000 C 
ATOM     12  C   UNL     1      -1.410  11.373  22.976  0.00  0.00    +0.000 C 
ATOM     13  C   UNL     1      -1.261  12.845  23.104  0.00  0.00    +0.000 A 
ATOM     14  C   UNL     1      -1.906  13.751  23.927  0.00  0.00    +0.000 A 
ATOM     15  C   UNL     1      -1.511  15.095  23.872  0.00  0.00    +0.000 A 
ATOM     16  C   UNL     1      -0.474  15.507  23.019  0.00  0.00    +0.000 A 
ATOM     17  C   UNL     1       0.172  14.583  22.196  0.00  0.00    +0.000 A 
ATOM     18  C   UNL     1      -0.251  13.270  22.249  0.00  0.00    +0.000 A 
ATOM     19  O   UNL     1       0.273  12.263  21.482  0.00  0.00    +0.000 OA
ENDBRANCH   8  11
BRANCH   4  20
ATOM     20  C   UNL     1       2.539   5.221  20.181  0.00  0.00    +0.000 A 
ATOM     21  C   UNL     1       1.841   4.558  21.203  0.00  0.00    +0.000 A 
ATOM     22  C   UNL     1       2.142   3.233  21.531  0.00  0.00    +0.000 A 
ATOM     23  C   UNL     1       3.149   2.560  20.844  0.00  0.00    +0.000 A 
ATOM     24  C   UNL     1       3.860   3.211  19.837  0.00  0.00    +0.000 A 
ATOM     25  C   UNL     1       3.558   4.535  19.507  0.00  0.00    +0.000 A 
ENDBRANCH   4  20
TORSDOF 2
ENDMDL
MODEL 9
REMARK VINA RESULT:      -7.2      3.084      5.271
REMARK  Name = 
REMARK  3 active torsions:
REMARK  status: ('A' for Active; 'I' for Inactive)
REMARK    1  A    between atoms: C_1  and  N_2
REMARK    2  A    between atoms: C_4  and  C_5
REMARK    3  A    between atoms: C_14  and  C_16
REMARK                            x       y       z     vdW  Elec       q    Type
REMARK                         _______ _______ _______ _____ _____    ______ ____
ROOT
ATOM      1  C   UNL     1      -1.248  11.808  18.273  0.00  0.00    +0.000 C 
ATOM      2  N   UNL     1      -0.423  10.856  18.967  0.00  0.00    +0.000 N 
ATOM      3  N   UNL     1       0.344  10.017  18.252  0.00  0.00    +0.000 NA
ATOM      4  C   UNL     1       0.939   9.294  19.212  0.00  0.00    +0.000 A 
ATOM      5  N   UNL     1       0.571   9.665  20.487  0.00  0.00    +0.000 NA
ATOM      6  C   UNL     1      -0.275  10.655  20.318  0.00  0.00    +0.000 A 
ATOM      7  N   UNL     1      -0.933  11.394  21.276  0.00  0.00    +0.000 N 
ATOM      8  C   UNL     1      -0.805  11.148  22.634  0.00  0.00    +0.000 C 
ATOM      9  O   UNL     1      -0.072  10.327  23.175  0.00  0.00    +0.000 OA
ATOM     10  H   UNL     1      -1.592  12.111  21.002  0.00  0.00    +0.000 HD
ENDROOT
BRANCH   8  11
ATOM     11  C   UNL     1      -1.708  12.055  23.479  0.00  0.00    +0.000 C 
ATOM     12  C   UNL     1      -1.380  13.542  23.302  0.00  0.00    +0.000 C 
ATOM     13  C   UNL     1      -2.736  14.093  23.547  0.00  0.00    +0.000 A 
ATOM     14  C   UNL     1      -3.150  15.382  23.835  0.00  0.00    +0.000 A 
ATOM     15  C   UNL     1      -4.525  15.626  23.960  0.00  0.00    +0.000 A 
ATOM     16  C   UNL     1      -5.459  14.592  23.777  0.00  0.00    +0.000 A 
ATOM     17  C   UNL     1      -5.030  13.297  23.482  0.00  0.00    +0.000 A 
ATOM     18  C   UNL     1      -3.670  13.077  23.389  0.00  0.00    +0.000 A 
ATOM     19  O   UNL     1      -3.107  11.854  23.132  0.00  0.00    +0.000 OA
ENDBRANCH   8  11
BRANCH   4  20
ATOM     20  C   UNL     1       1.906   8.235  18.940  0.00  0.00    +0.000 A 
ATOM     21  C   UNL     1       2.691   8.267  17.776  0.00  0.00    +0.000 A 
ATOM     22  C   UNL     1       3.642   7.274  17.528  0.00  0.00    +0.000 A 
ATOM     23  C   UNL     1       3.814   6.235  18.438  0.00  0.00    +0.000 A 
ATOM     24  C   UNL     1       3.032   6.182  19.591  0.00  0.00    +0.000 A 
ATOM     25  C   UNL     1       2.081   7.176  19.840  0.00  0.00    +0.000 A 
ENDBRANCH   4  20
TORSDOF 2
ENDMDL
