MODEL 1
REMARK VINA RESULT:      -8.4      0.000      0.000
REMARK  Name = 
REMARK  4 active torsions:
REMARK  status: ('A' for Active; 'I' for Inactive)
REMARK    1  A    between atoms: C_7  and  C_8
REMARK    2  A    between atoms: C_8  and  C_9
REMARK    3  A    between atoms: C_13  and  N_14
REMARK    4  A    between atoms: C_21  and  C_22
REMARK                            x       y       z     vdW  Elec       q    Type
REMARK                         _______ _______ _______ _____ _____    ______ ____
ROOT
ATOM      1  C   UNL     1       1.231   8.889  19.798  0.00  0.00    +0.000 A 
ATOM      2  C   UNL     1       1.817   9.357  18.613  0.00  0.00    +0.000 A 
ATOM      3  C   UNL     1       2.495   8.483  17.768  0.00  0.00    +0.000 A 
ATOM      4  C   UNL     1       2.692   7.162  18.151  0.00  0.00    +0.000 A 
ATOM      5  C   UNL     1       2.381   6.774  19.461  0.00  0.00    +0.000 A 
ATOM      6  C   UNL     1       1.519   7.579  20.218  0.00  0.00    +0.000 A 
ENDROOT
BRANCH   5   7
ATOM      7  N   UNL     1       3.293   5.877  20.167  0.00  0.00    +0.000 N 
ATOM      8  C   UNL     1       4.455   5.560  19.302  0.00  0.00    +0.000 C 
ATOM      9  C   UNL     1       3.984   4.332  18.579  0.00  0.00    +0.000 A 
ATOM     10  C   UNL     1       3.068   3.687  19.417  0.00  0.00    +0.000 A 
ATOM     11  C   UNL     1       2.309   2.603  19.012  0.00  0.00    +0.000 A 
ATOM     12  C   UNL     1       2.476   2.163  17.701  0.00  0.00    +0.000 A 
ATOM     13  C   UNL     1       3.378   2.814  16.837  0.00  0.00    +0.000 A 
ATOM     14  C   UNL     1       4.148   3.918  17.261  0.00  0.00    +0.000 A 
ATOM     15  C   UNL     1       2.748   4.615  20.529  0.00  0.00    +0.000 C 
ATOM     16  O   UNL     1       1.982   4.351  21.438  0.00  0.00    +0.000 OA
BRANCH  14  17
ATOM     17  C   UNL     1       4.999   4.645  16.252  0.00  0.00    +0.000 C 
ATOM     18  F   UNL     1       4.664   5.953  16.060  0.00  0.00    +0.000 F 
ATOM     19  F   UNL     1       6.316   4.655  16.596  0.00  0.00    +0.000 F 
ATOM     20  F   UNL     1       4.949   4.074  15.016  0.00  0.00    +0.000 F 
ENDBRANCH  14  17
ENDBRANCH   5   7
BRANCH   1  21
ATOM     21  C   UNL     1       0.286   9.785  20.569  0.00  0.00    +0.000 C 
BRANCH  21  28
ATOM     22  O   UNL     1       1.698  12.312  21.101  0.00  0.00    +0.000 OA
ATOM     23  C   UNL     1       0.911  12.893  20.365  0.00  0.00    +0.000 C 
ATOM     24  N   UNL     1      -0.092  12.175  19.725  0.00  0.00    +0.000 N 
ATOM     25  C   UNL     1      -1.001  12.722  18.860  0.00  0.00    +0.000 A 
ATOM     26  N   UNL     1      -1.787  11.797  18.371  0.00  0.00    +0.000 NA
ATOM     27  N   UNL     1      -1.409  10.605  18.929  0.00  0.00    +0.000 NA
ATOM     28  C   UNL     1      -0.398  10.827  19.749  0.00  0.00    +0.000 A 
ENDBRANCH  21  28
ENDBRANCH   1  21
TORSDOF 4
ENDMDL
MODEL 2
REMARK VINA RESULT:      -8.4      4.716      7.369
REMARK  Name = 
REMARK  4 active torsions:
REMARK  status: ('A' for Active; 'I' for Inactive)
REMARK    1  A    between atoms: C_7  and  C_8
REMARK    2  A    between atoms: C_8  and  C_9
REMARK    3  A    between atoms: C_13  and  N_14
REMARK    4  A    between atoms: C_21  and  C_22
REMARK                            x       y       z     vdW  Elec       q    Type
REMARK                         _______ _______ _______ _____ _____    ______ ____
ROOT
ATOM      1  C   UNL     1      -4.774  11.535  17.578  0.00  0.00    +0.000 A 
ATOM      2  C   UNL     1      -4.241  11.239  16.316  0.00  0.00    +0.000 A 
ATOM      3  C   UNL     1      -2.907  10.862  16.184  0.00  0.00    +0.000 A 
ATOM      4  C   UNL     1      -2.067  10.888  17.291  0.00  0.00    +0.000 A 
ATOM      5  C   UNL     1      -2.518  11.476  18.480  0.00  0.00    +0.000 A 
ATOM      6  C   UNL     1      -3.896  11.649  18.669  0.00  0.00    +0.000 A 
ENDROOT
BRANCH   5   7
ATOM      7  N   UNL     1      -1.600  12.321  19.241  0.00  0.00    +0.000 N 
ATOM      8  C   UNL     1      -0.201  12.009  18.864  0.00  0.00    +0.000 C 
ATOM      9  C   UNL     1       0.157  10.929  19.842  0.00  0.00    +0.000 A 
ATOM     10  C   UNL     1      -0.620  11.137  20.987  0.00  0.00    +0.000 A 
ATOM     11  C   UNL     1      -0.671  10.237  22.038  0.00  0.00    +0.000 A 
ATOM     12  C   UNL     1       0.087   9.074  21.918  0.00  0.00    +0.000 A 
ATOM     13  C   UNL     1       0.858   8.839  20.762  0.00  0.00    +0.000 A 
ATOM     14  C   UNL     1       0.904   9.764  19.697  0.00  0.00    +0.000 A 
ATOM     15  C   UNL     1      -1.647  12.153  20.653  0.00  0.00    +0.000 C 
ATOM     16  O   UNL     1      -2.481  12.563  21.439  0.00  0.00    +0.000 OA
BRANCH  14  17
ATOM     17  C   UNL     1       1.647   9.393  18.440  0.00  0.00    +0.000 C 
ATOM     18  F   UNL     1       2.475  10.364  17.960  0.00  0.00    +0.000 F 
ATOM     19  F   UNL     1       2.433   8.295  18.608  0.00  0.00    +0.000 F 
ATOM     20  F   UNL     1       0.810   9.090  17.407  0.00  0.00    +0.000 F 
ENDBRANCH  14  17
ENDBRANCH   5   7
BRANCH   1  21
ATOM     21  C   UNL     1      -6.272  11.688  17.740  0.00  0.00    +0.000 C 
BRANCH  21  28
ATOM     22  O   UNL     1      -7.183  13.981  19.344  0.00  0.00    +0.000 OA
ATOM     23  C   UNL     1      -7.505  13.211  20.239  0.00  0.00    +0.000 C 
ATOM     24  N   UNL     1      -7.328  11.843  20.069  0.00  0.00    +0.000 N 
ATOM     25  C   UNL     1      -7.683  10.898  20.993  0.00  0.00    +0.000 A 
ATOM     26  N   UNL     1      -7.447   9.695  20.536  0.00  0.00    +0.000 NA
ATOM     27  N   UNL     1      -6.909   9.833  19.284  0.00  0.00    +0.000 NA
ATOM     28  C   UNL     1      -6.827  11.121  19.003  0.00  0.00    +0.000 A 
ENDBRANCH  21  28
ENDBRANCH   1  21
TORSDOF 4
ENDMDL
MODEL 3
REMARK VINA RESULT:      -8.3      1.065      1.544
REMARK  Name = 
REMARK  4 active torsions:
REMARK  status: ('A' for Active; 'I' for Inactive)
REMARK    1  A    between atoms: C_7  and  C_8
REMARK    2  A    between atoms: C_8  and  C_9
REMARK    3  A    between atoms: C_13  and  N_14
REMARK    4  A    between atoms: C_21  and  C_22
REMARK                            x       y       z     vdW  Elec       q    Type
REMARK                         _______ _______ _______ _____ _____    ______ ____
ROOT
ATOM      1  C   UNL     1       1.164   8.868  19.628  0.00  0.00    +0.000 A 
ATOM      2  C   UNL     1       1.794   9.369  18.480  0.00  0.00    +0.000 A 
ATOM      3  C   UNL     1       2.546   8.528  17.665  0.00  0.00    +0.000 A 
ATOM      4  C   UNL     1       2.772   7.212  18.048  0.00  0.00    +0.000 A 
ATOM      5  C   UNL     1       2.407   6.800  19.337  0.00  0.00    +0.000 A 
ATOM      6  C   UNL     1       1.477   7.566  20.053  0.00  0.00    +0.000 A 
ENDROOT
BRANCH   5   7
ATOM      7  N   UNL     1       3.314   5.931  20.083  0.00  0.00    +0.000 N 
ATOM      8  C   UNL     1       4.486   5.588  19.242  0.00  0.00    +0.000 C 
ATOM      9  C   UNL     1       4.027   4.335  18.557  0.00  0.00    +0.000 A 
ATOM     10  C   UNL     1       3.103   3.716  19.406  0.00  0.00    +0.000 A 
ATOM     11  C   UNL     1       2.352   2.616  19.029  0.00  0.00    +0.000 A 
ATOM     12  C   UNL     1       2.535   2.132  17.736  0.00  0.00    +0.000 A 
ATOM     13  C   UNL     1       3.445   2.757  16.860  0.00  0.00    +0.000 A 
ATOM     14  C   UNL     1       4.208   3.877  17.255  0.00  0.00    +0.000 A 
ATOM     15  C   UNL     1       2.768   4.680  20.482  0.00  0.00    +0.000 C 
ATOM     16  O   UNL     1       1.993   4.444  21.390  0.00  0.00    +0.000 OA
BRANCH  14  17
ATOM     17  C   UNL     1       5.068   4.572  16.232  0.00  0.00    +0.000 C 
ATOM     18  F   UNL     1       4.723   5.867  15.982  0.00  0.00    +0.000 F 
ATOM     19  F   UNL     1       6.379   4.608  16.596  0.00  0.00    +0.000 F 
ATOM     20  F   UNL     1       5.043   3.951  15.018  0.00  0.00    +0.000 F 
ENDBRANCH  14  17
ENDBRANCH   5   7
BRANCH   1  21
ATOM     21  C   UNL     1       0.147   9.722  20.355  0.00  0.00    +0.000 C 
BRANCH  21  28
ATOM     22  O   UNL     1      -1.372  11.168  18.289  0.00  0.00    +0.000 OA
ATOM     23  C   UNL     1      -0.832  12.208  18.638  0.00  0.00    +0.000 C 
ATOM     24  N   UNL     1       0.075  12.195  19.691  0.00  0.00    +0.000 N 
ATOM     25  C   UNL     1       0.708  13.307  20.178  0.00  0.00    +0.000 A 
ATOM     26  N   UNL     1       1.460  12.998  21.203  0.00  0.00    +0.000 NA
ATOM     27  N   UNL     1       1.342  11.648  21.401  0.00  0.00    +0.000 NA
ATOM     28  C   UNL     1       0.519  11.160  20.491  0.00  0.00    +0.000 A 
ENDBRANCH  21  28
ENDBRANCH   1  21
TORSDOF 4
ENDMDL
MODEL 4
REMARK VINA RESULT:      -8.3      2.756      3.451
REMARK  Name = 
REMARK  4 active torsions:
REMARK  status: ('A' for Active; 'I' for Inactive)
REMARK    1  A    between atoms: C_7  and  C_8
REMARK    2  A    between atoms: C_8  and  C_9
REMARK    3  A    between atoms: C_13  and  N_14
REMARK    4  A    between atoms: C_21  and  C_22
REMARK                            x       y       z     vdW  Elec       q    Type
REMARK                         _______ _______ _______ _____ _____    ______ ____
ROOT
ATOM      1  C   UNL     1       1.608   9.266  18.994  0.00  0.00    +0.000 A 
ATOM      2  C   UNL     1       1.114   8.725  20.189  0.00  0.00    +0.000 A 
ATOM      3  C   UNL     1       1.566   7.489  20.642  0.00  0.00    +0.000 A 
ATOM      4  C   UNL     1       2.424   6.733  19.854  0.00  0.00    +0.000 A 
ATOM      5  C   UNL     1       2.670   7.130  18.532  0.00  0.00    +0.000 A 
ATOM      6  C   UNL     1       2.397   8.454  18.163  0.00  0.00    +0.000 A 
ENDROOT
BRANCH   5   7
ATOM      7  N   UNL     1       2.716   6.111  17.486  0.00  0.00    +0.000 N 
ATOM      8  C   UNL     1       1.762   5.021  17.805  0.00  0.00    +0.000 C 
ATOM      9  C   UNL     1       2.614   4.080  18.605  0.00  0.00    +0.000 A 
ATOM     10  C   UNL     1       3.934   4.253  18.174  0.00  0.00    +0.000 A 
ATOM     11  C   UNL     1       5.015   3.661  18.804  0.00  0.00    +0.000 A 
ATOM     12  C   UNL     1       4.749   2.873  19.921  0.00  0.00    +0.000 A 
ATOM     13  C   UNL     1       3.428   2.706  20.381  0.00  0.00    +0.000 A 
ATOM     14  C   UNL     1       2.332   3.313  19.731  0.00  0.00    +0.000 A 
ATOM     15  C   UNL     1       3.971   5.464  17.320  0.00  0.00    +0.000 C 
ATOM     16  O   UNL     1       4.978   5.887  16.780  0.00  0.00    +0.000 OA
BRANCH  14  17
ATOM     17  C   UNL     1       0.962   3.196  20.347  0.00  0.00    +0.000 C 
ATOM     18  F   UNL     1       0.927   2.539  21.540  0.00  0.00    +0.000 F 
ATOM     19  F   UNL     1       0.396   4.411  20.584  0.00  0.00    +0.000 F 
ATOM     20  F   UNL     1       0.082   2.533  19.544  0.00  0.00    +0.000 F 
ENDBRANCH  14  17
ENDBRANCH   5   7
BRANCH   1  21
ATOM     21  C   UNL     1       1.309  10.710  18.648  0.00  0.00    +0.000 C 
BRANCH  21  28
ATOM     22  O   UNL     1       1.453  12.227  21.166  0.00  0.00    +0.000 OA
ATOM     23  C   UNL     1       0.240  12.378  21.130  0.00  0.00    +0.000 C 
ATOM     24  N   UNL     1      -0.489  11.857  20.068  0.00  0.00    +0.000 N 
ATOM     25  C   UNL     1      -1.842  11.997  19.918  0.00  0.00    +0.000 A 
ATOM     26  N   UNL     1      -2.241  11.450  18.798  0.00  0.00    +0.000 NA
ATOM     27  N   UNL     1      -1.136  10.918  18.189  0.00  0.00    +0.000 NA
ATOM     28  C   UNL     1      -0.083  11.151  18.951  0.00  0.00    +0.000 A 
ENDBRANCH  21  28
ENDBRANCH   1  21
TORSDOF 4
ENDMDL
MODEL 5
REMARK VINA RESULT:      -8.3      2.953      3.767
REMARK  Name = 
REMARK  4 active torsions:
REMARK  status: ('A' for Active; 'I' for Inactive)
REMARK    1  A    between atoms: C_7  and  C_8
REMARK    2  A    between atoms: C_8  and  C_9
REMARK    3  A    between atoms: C_13  and  N_14
REMARK    4  A    between atoms: C_21  and  C_22
REMARK                            x       y       z     vdW  Elec       q    Type
REMARK                         _______ _______ _______ _____ _____    ______ ____
ROOT
ATOM      1  C   UNL     1       1.564   9.277  19.099  0.00  0.00    +0.000 A 
ATOM      2  C   UNL     1       1.063   8.707  20.277  0.00  0.00    +0.000 A 
ATOM      3  C   UNL     1       1.525   7.468  20.713  0.00  0.00    +0.000 A 
ATOM      4  C   UNL     1       2.402   6.738  19.920  0.00  0.00    +0.000 A 
ATOM      5  C   UNL     1       2.659   7.164  18.610  0.00  0.00    +0.000 A 
ATOM      6  C   UNL     1       2.374   8.491  18.263  0.00  0.00    +0.000 A 
ENDROOT
BRANCH   5   7
ATOM      7  N   UNL     1       2.730   6.166  17.545  0.00  0.00    +0.000 N 
ATOM      8  C   UNL     1       1.778   5.064  17.825  0.00  0.00    +0.000 C 
ATOM      9  C   UNL     1       2.622   4.113  18.622  0.00  0.00    +0.000 A 
ATOM     10  C   UNL     1       3.949   4.303  18.219  0.00  0.00    +0.000 A 
ATOM     11  C   UNL     1       5.023   3.706  18.856  0.00  0.00    +0.000 A 
ATOM     12  C   UNL     1       4.742   2.895  19.953  0.00  0.00    +0.000 A 
ATOM     13  C   UNL     1       3.415   2.710  20.386  0.00  0.00    +0.000 A 
ATOM     14  C   UNL     1       2.326   3.322  19.728  0.00  0.00    +0.000 A 
ATOM     15  C   UNL     1       3.992   5.531  17.389  0.00  0.00    +0.000 C 
ATOM     16  O   UNL     1       5.006   5.970  16.876  0.00  0.00    +0.000 OA
BRANCH  14  17
ATOM     17  C   UNL     1       0.946   3.184  20.317  0.00  0.00    +0.000 C 
ATOM     18  F   UNL     1       0.332   4.365  20.612  0.00  0.00    +0.000 F 
ATOM     19  F   UNL     1       0.092   2.527  19.486  0.00  0.00    +0.000 F 
ATOM     20  F   UNL     1       0.942   2.474  21.481  0.00  0.00    +0.000 F 
ENDBRANCH  14  17
ENDBRANCH   5   7
BRANCH   1  21
ATOM     21  C   UNL     1       1.251  10.724  18.777  0.00  0.00    +0.000 C 
BRANCH  21  28
ATOM     22  O   UNL     1      -1.660  10.737  18.337  0.00  0.00    +0.000 OA
ATOM     23  C   UNL     1      -1.794  11.436  19.332  0.00  0.00    +0.000 C 
ATOM     24  N   UNL     1      -0.678  11.801  20.075  0.00  0.00    +0.000 N 
ATOM     25  C   UNL     1      -0.723  12.551  21.219  0.00  0.00    +0.000 A 
ATOM     26  N   UNL     1       0.474  12.689  21.728  0.00  0.00    +0.000 NA
ATOM     27  N   UNL     1       1.346  12.029  20.902  0.00  0.00    +0.000 NA
ATOM     28  C   UNL     1       0.661  11.502  19.904  0.00  0.00    +0.000 A 
ENDBRANCH  21  28
ENDBRANCH   1  21
TORSDOF 4
ENDMDL
MODEL 6
REMARK VINA RESULT:      -8.1      2.106      2.904
REMARK  Name = 
REMARK  4 active torsions:
REMARK  status: ('A' for Active; 'I' for Inactive)
REMARK    1  A    between atoms: C_7  and  C_8
REMARK    2  A    between atoms: C_8  and  C_9
REMARK    3  A    between atoms: C_13  and  N_14
REMARK    4  A    between atoms: C_21  and  C_22
REMARK                            x       y       z     vdW  Elec       q    Type
REMARK                         _______ _______ _______ _____ _____    ______ ____
ROOT
ATOM      1  C   UNL     1       1.961   7.635  19.986  0.00  0.00    +0.000 A 
ATOM      2  C   UNL     1       2.431   8.399  18.909  0.00  0.00    +0.000 A 
ATOM      3  C   UNL     1       2.966   7.777  17.785  0.00  0.00    +0.000 A 
ATOM      4  C   UNL     1       3.142   6.399  17.772  0.00  0.00    +0.000 A 
ATOM      5  C   UNL     1       2.962   5.674  18.958  0.00  0.00    +0.000 A 
ATOM      6  C   UNL     1       2.230   6.256  20.002  0.00  0.00    +0.000 A 
ENDROOT
BRANCH   5   7
ATOM      7  N   UNL     1       3.905   4.605  19.281  0.00  0.00    +0.000 N 
ATOM      8  C   UNL     1       5.282   5.151  19.344  0.00  0.00    +0.000 C 
ATOM      9  C   UNL     1       5.751   4.987  17.928  0.00  0.00    +0.000 A 
ATOM     10  C   UNL     1       5.056   3.899  17.388  0.00  0.00    +0.000 A 
ATOM     11  C   UNL     1       5.118   3.555  16.048  0.00  0.00    +0.000 A 
ATOM     12  C   UNL     1       5.906   4.353  15.221  0.00  0.00    +0.000 A 
ATOM     13  C   UNL     1       6.594   5.465  15.745  0.00  0.00    +0.000 A 
ATOM     14  C   UNL     1       6.526   5.806  17.112  0.00  0.00    +0.000 A 
ATOM     15  C   UNL     1       3.972   3.545  18.335  0.00  0.00    +0.000 C 
ATOM     16  O   UNL     1       3.185   2.632  18.160  0.00  0.00    +0.000 OA
BRANCH  14  17
ATOM     17  C   UNL     1       7.184   7.077  17.582  0.00  0.00    +0.000 C 
ATOM     18  F   UNL     1       7.874   6.964  18.751  0.00  0.00    +0.000 F 
ATOM     19  F   UNL     1       8.078   7.562  16.677  0.00  0.00    +0.000 F 
ATOM     20  F   UNL     1       6.289   8.085  17.787  0.00  0.00    +0.000 F 
ENDBRANCH  14  17
ENDBRANCH   5   7
BRANCH   1  21
ATOM     21  C   UNL     1       1.152   8.302  21.079  0.00  0.00    +0.000 C 
BRANCH  21  28
ATOM     22  O   UNL     1       0.266   9.689  23.519  0.00  0.00    +0.000 OA
ATOM     23  C   UNL     1      -0.368  10.475  22.827  0.00  0.00    +0.000 C 
ATOM     24  N   UNL     1      -0.340  10.353  21.443  0.00  0.00    +0.000 N 
ATOM     25  C   UNL     1      -0.986  11.197  20.581  0.00  0.00    +0.000 A 
ATOM     26  N   UNL     1      -0.735  10.869  19.340  0.00  0.00    +0.000 NA
ATOM     27  N   UNL     1       0.086   9.774  19.366  0.00  0.00    +0.000 NA
ATOM     28  C   UNL     1       0.319   9.454  20.627  0.00  0.00    +0.000 A 
ENDBRANCH  21  28
ENDBRANCH   1  21
TORSDOF 4
ENDMDL
MODEL 7
REMARK VINA RESULT:      -8.0      4.540      7.216
REMARK  Name = 
REMARK  4 active torsions:
REMARK  status: ('A' for Active; 'I' for Inactive)
REMARK    1  A    between atoms: C_7  and  C_8
REMARK    2  A    between atoms: C_8  and  C_9
REMARK    3  A    between atoms: C_13  and  N_14
REMARK    4  A    between atoms: C_21  and  C_22
REMARK                            x       y       z     vdW  Elec       q    Type
REMARK                         _______ _______ _______ _____ _____    ______ ____
ROOT
ATOM      1  C   UNL     1      -4.615  11.437  17.544  0.00  0.00    +0.000 A 
ATOM      2  C   UNL     1      -4.077  10.881  16.376  0.00  0.00    +0.000 A 
ATOM      3  C   UNL     1      -2.790  10.349  16.377  0.00  0.00    +0.000 A 
ATOM      4  C   UNL     1      -1.990  10.472  17.506  0.00  0.00    +0.000 A 
ATOM      5  C   UNL     1      -2.412  11.295  18.559  0.00  0.00    +0.000 A 
ATOM      6  C   UNL     1      -3.767  11.640  18.645  0.00  0.00    +0.000 A 
ENDROOT
BRANCH   5   7
ATOM      7  N   UNL     1      -1.432  12.154  19.219  0.00  0.00    +0.000 N 
ATOM      8  C   UNL     1      -0.064  11.779  18.787  0.00  0.00    +0.000 C 
ATOM      9  C   UNL     1       0.318  10.747  19.808  0.00  0.00    +0.000 A 
ATOM     10  C   UNL     1      -0.390  11.045  20.978  0.00  0.00    +0.000 A 
ATOM     11  C   UNL     1      -0.408  10.210  22.081  0.00  0.00    +0.000 A 
ATOM     12  C   UNL     1       0.311   9.019  21.991  0.00  0.00    +0.000 A 
ATOM     13  C   UNL     1       1.011   8.694  20.813  0.00  0.00    +0.000 A 
ATOM     14  C   UNL     1       1.023   9.554  19.693  0.00  0.00    +0.000 A 
ATOM     15  C   UNL     1      -1.406  12.071  20.638  0.00  0.00    +0.000 C 
ATOM     16  O   UNL     1      -2.184  12.551  21.442  0.00  0.00    +0.000 OA
BRANCH  14  17
ATOM     17  C   UNL     1       1.687   9.089  18.423  0.00  0.00    +0.000 C 
ATOM     18  F   UNL     1       0.826   8.748  17.422  0.00  0.00    +0.000 F 
ATOM     19  F   UNL     1       2.507  10.036  17.891  0.00  0.00    +0.000 F 
ATOM     20  F   UNL     1       2.472   7.991  18.614  0.00  0.00    +0.000 F 
ENDBRANCH  14  17
ENDBRANCH   5   7
BRANCH   1  21
ATOM     21  C   UNL     1      -6.091  11.771  17.601  0.00  0.00    +0.000 C 
BRANCH  21  28
ATOM     22  O   UNL     1      -6.968   9.491  19.243  0.00  0.00    +0.000 OA
ATOM     23  C   UNL     1      -7.292  10.270  20.129  0.00  0.00    +0.000 C 
ATOM     24  N   UNL     1      -7.094  11.634  19.954  0.00  0.00    +0.000 N 
ATOM     25  C   UNL     1      -7.393  12.584  20.893  0.00  0.00    +0.000 A 
ATOM     26  N   UNL     1      -7.049  13.774  20.472  0.00  0.00    +0.000 NA
ATOM     27  N   UNL     1      -6.522  13.624  19.217  0.00  0.00    +0.000 NA
ATOM     28  C   UNL     1      -6.555  12.343  18.898  0.00  0.00    +0.000 A 
ENDBRANCH  21  28
ENDBRANCH   1  21
TORSDOF 4
ENDMDL
MODEL 8
REMARK VINA RESULT:      -7.9      2.802      3.490
REMARK  Name = 
REMARK  4 active torsions:
REMARK  status: ('A' for Active; 'I' for Inactive)
REMARK    1  A    between atoms: C_7  and  C_8
REMARK    2  A    between atoms: C_8  and  C_9
REMARK    3  A    between atoms: C_13  and  N_14
REMARK    4  A    between atoms: C_21  and  C_22
REMARK                            x       y       z     vdW  Elec       q    Type
REMARK                         _______ _______ _______ _____ _____    ______ ____
ROOT
ATOM      1  C   UNL     1       1.057   9.281  19.829  0.00  0.00    +0.000 A 
ATOM      2  C   UNL     1       0.747   8.480  20.937  0.00  0.00    +0.000 A 
ATOM      3  C   UNL     1       1.415   7.276  21.144  0.00  0.00    +0.000 A 
ATOM      4  C   UNL     1       2.311   6.807  20.192  0.00  0.00    +0.000 A 
ATOM      5  C   UNL     1       2.388   7.449  18.948  0.00  0.00    +0.000 A 
ATOM      6  C   UNL     1       1.891   8.753  18.829  0.00  0.00    +0.000 A 
ENDROOT
BRANCH   5   7
ATOM      7  N   UNL     1       2.503   6.635  17.740  0.00  0.00    +0.000 N 
ATOM      8  C   UNL     1       1.649   5.429  17.865  0.00  0.00    +0.000 C 
ATOM      9  C   UNL     1       2.590   4.439  18.487  0.00  0.00    +0.000 A 
ATOM     10  C   UNL     1       3.884   4.796  18.093  0.00  0.00    +0.000 A 
ATOM     11  C   UNL     1       5.021   4.199  18.608  0.00  0.00    +0.000 A 
ATOM     12  C   UNL     1       4.840   3.209  19.572  0.00  0.00    +0.000 A 
ATOM     13  C   UNL     1       3.545   2.853  19.996  0.00  0.00    +0.000 A 
ATOM     14  C   UNL     1       2.391   3.467  19.463  0.00  0.00    +0.000 A 
ATOM     15  C   UNL     1       3.805   6.136  17.463  0.00  0.00    +0.000 C 
ATOM     16  O   UNL     1       4.764   6.731  17.004  0.00  0.00    +0.000 OA
BRANCH  14  17
ATOM     17  C   UNL     1       1.046   3.128  20.050  0.00  0.00    +0.000 C 
ATOM     18  F   UNL     1       1.092   2.361  21.176  0.00  0.00    +0.000 F 
ATOM     19  F   UNL     1       0.337   4.238  20.395  0.00  0.00    +0.000 F 
ATOM     20  F   UNL     1       0.252   2.443  19.179  0.00  0.00    +0.000 F 
ENDBRANCH  14  17
ENDBRANCH   5   7
BRANCH   1  21
ATOM     21  C   UNL     1       0.518  10.694  19.755  0.00  0.00    +0.000 C 
BRANCH  21  28
ATOM     22  O   UNL     1       0.584  13.492  18.843  0.00  0.00    +0.000 OA
ATOM     23  C   UNL     1      -0.453  13.301  18.223  0.00  0.00    +0.000 C 
ATOM     24  N   UNL     1      -1.044  12.043  18.237  0.00  0.00    +0.000 N 
ATOM     25  C   UNL     1      -2.184  11.718  17.553  0.00  0.00    +0.000 A 
ATOM     26  N   UNL     1      -2.472  10.452  17.712  0.00  0.00    +0.000 NA
ATOM     27  N   UNL     1      -1.514   9.916  18.531  0.00  0.00    +0.000 NA
ATOM     28  C   UNL     1      -0.660  10.869  18.856  0.00  0.00    +0.000 A 
ENDBRANCH  21  28
ENDBRANCH   1  21
TORSDOF 4
ENDMDL
MODEL 9
REMARK VINA RESULT:      -7.9      2.572      3.960
REMARK  Name = 
REMARK  4 active torsions:
REMARK  status: ('A' for Active; 'I' for Inactive)
REMARK    1  A    between atoms: C_7  and  C_8
REMARK    2  A    between atoms: C_8  and  C_9
REMARK    3  A    between atoms: C_13  and  N_14
REMARK    4  A    between atoms: C_21  and  C_22
REMARK                            x       y       z     vdW  Elec       q    Type
REMARK                         _______ _______ _______ _____ _____    ______ ____
ROOT
ATOM      1  C   UNL     1       2.226   6.346  19.788  0.00  0.00    +0.000 A 
ATOM      2  C   UNL     1       1.166   5.713  20.451  0.00  0.00    +0.000 A 
ATOM      3  C   UNL     1       1.311   4.414  20.932  0.00  0.00    +0.000 A 
ATOM      4  C   UNL     1       2.468   3.698  20.655  0.00  0.00    +0.000 A 
ATOM      5  C   UNL     1       3.391   4.214  19.736  0.00  0.00    +0.000 A 
ATOM      6  C   UNL     1       3.350   5.582  19.433  0.00  0.00    +0.000 A 
ENDROOT
BRANCH   5   7
ATOM      7  N   UNL     1       4.012   3.307  18.774  0.00  0.00    +0.000 N 
ATOM      8  C   UNL     1       5.488   3.421  18.855  0.00  0.00    +0.000 C 
ATOM      9  C   UNL     1       5.776   4.502  17.854  0.00  0.00    +0.000 A 
ATOM     10  C   UNL     1       4.759   4.456  16.895  0.00  0.00    +0.000 A 
ATOM     11  C   UNL     1       4.613   5.413  15.905  0.00  0.00    +0.000 A 
ATOM     12  C   UNL     1       5.527   6.464  15.896  0.00  0.00    +0.000 A 
ATOM     13  C   UNL     1       6.544   6.537  16.868  0.00  0.00    +0.000 A 
ATOM     14  C   UNL     1       6.685   5.555  17.872  0.00  0.00    +0.000 A 
ATOM     15  C   UNL     1       3.698   3.558  17.410  0.00  0.00    +0.000 C 
ATOM     16  O   UNL     1       2.672   3.299  16.806  0.00  0.00    +0.000 OA
BRANCH  14  17
ATOM     17  C   UNL     1       7.714   5.759  18.953  0.00  0.00    +0.000 C 
ATOM     18  F   UNL     1       7.217   5.746  20.223  0.00  0.00    +0.000 F 
ATOM     19  F   UNL     1       8.684   4.804  18.932  0.00  0.00    +0.000 F 
ATOM     20  F   UNL     1       8.370   6.949  18.834  0.00  0.00    +0.000 F 
ENDBRANCH  14  17
ENDBRANCH   5   7
BRANCH   1  21
ATOM     21  C   UNL     1       2.148   7.831  19.504  0.00  0.00    +0.000 C 
BRANCH  21  28
ATOM     22  O   UNL     1       0.421   9.638  17.948  0.00  0.00    +0.000 OA
ATOM     23  C   UNL     1      -0.002  10.112  18.993  0.00  0.00    +0.000 C 
ATOM     24  N   UNL     1       0.457   9.621  20.210  0.00  0.00    +0.000 N 
ATOM     25  C   UNL     1       0.024  10.060  21.432  0.00  0.00    +0.000 A 
ATOM     26  N   UNL     1       0.592   9.379  22.394  0.00  0.00    +0.000 NA
ATOM     27  N   UNL     1       1.434   8.472  21.808  0.00  0.00    +0.000 NA
ATOM     28  C   UNL     1       1.363   8.619  20.498  0.00  0.00    +0.000 A 
ENDBRANCH  21  28
ENDBRANCH   1  21
TORSDOF 4
ENDMDL
