MODEL 1
REMARK VINA RESULT:      -8.7      0.000      0.000
REMARK  Name = 
REMARK  9 active torsions:
REMARK  status: ('A' for Active; 'I' for Inactive)
REMARK    1  A    between atoms: C_1  and  C_2
REMARK    2  A    between atoms: C_2  and  C_3
REMARK    3  A    between atoms: C_2  and  C_10
REMARK    4  A    between atoms: C_3  and  C_4
REMARK    5  A    between atoms: N_8  and  C_9
REMARK    6  A    between atoms: C_14  and  N_15
REMARK    7  A    between atoms: N_15  and  C_16
REMARK    8  A    between atoms: C_17  and  C_19
REMARK    9  A    between atoms: C_23  and  C_24
REMARK                            x       y       z     vdW  Elec       q    Type
REMARK                         _______ _______ _______ _____ _____    ______ ____
ROOT
ATOM      1  C   UNL     1       0.065  10.404  20.074  0.00  0.00    +0.000 A 
ATOM      2  C   UNL     1      -0.033  10.549  21.463  0.00  0.00    +0.000 A 
ATOM      3  C   UNL     1       0.565   9.624  22.317  0.00  0.00    +0.000 A 
ATOM      4  C   UNL     1       1.271   8.533  21.800  0.00  0.00    +0.000 A 
ATOM      5  C   UNL     1       1.402   8.347  20.422  0.00  0.00    +0.000 A 
ATOM      6  C   UNL     1       0.816   9.319  19.583  0.00  0.00    +0.000 A 
ENDROOT
BRANCH   5   7
ATOM      7  N   UNL     1       2.035   7.178  19.840  0.00  0.00    +0.000 N 
ATOM      8  C   UNL     1       1.920   5.947  20.628  0.00  0.00    +0.000 C 
ATOM      9  C   UNL     1       2.790   7.256  18.644  0.00  0.00    +0.000 C 
ATOM     10  O   UNL     1       2.976   8.294  18.006  0.00  0.00    +0.000 OA
BRANCH   9  11
ATOM     11  C   UNL     1       3.422   6.037  18.030  0.00  0.00    +0.000 A 
ATOM     12  C   UNL     1       2.717   4.884  17.671  0.00  0.00    +0.000 A 
ATOM     13  C   UNL     1       3.373   3.790  17.100  0.00  0.00    +0.000 A 
ATOM     14  C   UNL     1       4.727   3.873  16.783  0.00  0.00    +0.000 A 
ATOM     15  C   UNL     1       5.438   5.053  17.029  0.00  0.00    +0.000 A 
ATOM     16  C   UNL     1       4.785   6.115  17.684  0.00  0.00    +0.000 A 
BRANCH  15  17
ATOM     17  C   UNL     1       6.861   5.216  16.551  0.00  0.00    +0.000 C 
ATOM     18  F   UNL     1       7.365   6.465  16.770  0.00  0.00    +0.000 F 
ATOM     19  F   UNL     1       7.719   4.360  17.174  0.00  0.00    +0.000 F 
ATOM     20  F   UNL     1       6.999   4.987  15.217  0.00  0.00    +0.000 F 
ENDBRANCH  15  17
ENDBRANCH   9  11
ENDBRANCH   5   7
BRANCH   1  22
ATOM     21  C   UNL     1       0.220  12.514  18.600  0.00  0.00    +0.000 C 
ATOM     22  C   UNL     1      -0.671  11.385  19.153  0.00  0.00    +0.000 C 
BRANCH  22  23
ATOM     23  C   UNL     1      -1.344  10.601  17.997  0.00  0.00    +0.000 C 
BRANCH  23  24
ATOM     24  C   UNL     1      -2.741  11.034  17.707  0.00  0.00    +0.000 A 
ATOM     25  N   UNL     1      -3.566  11.601  18.568  0.00  0.00    +0.000 NA
ATOM     26  N   UNL     1      -4.747  11.868  17.922  0.00  0.00    +0.000 NA
ATOM     27  C   UNL     1      -4.618  11.472  16.678  0.00  0.00    +0.000 A 
ATOM     28  N   UNL     1      -3.379  10.938  16.499  0.00  0.00    +0.000 N 
ATOM     29  C   UNL     1      -2.858  10.398  15.273  0.00  0.00    +0.000 C 
ENDBRANCH  23  24
ENDBRANCH  22  23
ENDBRANCH   1  22
TORSDOF 6
ENDMDL
MODEL 2
REMARK VINA RESULT:      -8.6      1.074      1.482
REMARK  Name = 
REMARK  9 active torsions:
REMARK  status: ('A' for Active; 'I' for Inactive)
REMARK    1  A    between atoms: C_1  and  C_2
REMARK    2  A    between atoms: C_2  and  C_3
REMARK    3  A    between atoms: C_2  and  C_10
REMARK    4  A    between atoms: C_3  and  C_4
REMARK    5  A    between atoms: N_8  and  C_9
REMARK    6  A    between atoms: C_14  and  N_15
REMARK    7  A    between atoms: N_15  and  C_16
REMARK    8  A    between atoms: C_17  and  C_19
REMARK    9  A    between atoms: C_23  and  C_24
REMARK                            x       y       z     vdW  Elec       q    Type
REMARK                         _______ _______ _______ _____ _____    ______ ____
ROOT
ATOM      1  C   UNL     1      -0.320  10.489  20.116  0.00  0.00    +0.000 A 
ATOM      2  C   UNL     1      -0.336  10.336  21.508  0.00  0.00    +0.000 A 
ATOM      3  C   UNL     1       0.487   9.398  22.128  0.00  0.00    +0.000 A 
ATOM      4  C   UNL     1       1.341   8.590  21.370  0.00  0.00    +0.000 A 
ATOM      5  C   UNL     1       1.397   8.709  19.979  0.00  0.00    +0.000 A 
ATOM      6  C   UNL     1       0.579   9.692  19.383  0.00  0.00    +0.000 A 
ENDROOT
BRANCH   5   7
ATOM      7  N   UNL     1       2.189   7.825  19.144  0.00  0.00    +0.000 N 
ATOM      8  C   UNL     1       2.585   8.380  17.845  0.00  0.00    +0.000 C 
ATOM      9  C   UNL     1       2.471   6.491  19.526  0.00  0.00    +0.000 C 
ATOM     10  O   UNL     1       2.079   5.970  20.573  0.00  0.00    +0.000 OA
BRANCH   9  11
ATOM     11  C   UNL     1       3.314   5.586  18.670  0.00  0.00    +0.000 A 
ATOM     12  C   UNL     1       2.795   4.627  17.794  0.00  0.00    +0.000 A 
ATOM     13  C   UNL     1       3.642   3.823  17.026  0.00  0.00    +0.000 A 
ATOM     14  C   UNL     1       5.018   4.038  17.045  0.00  0.00    +0.000 A 
ATOM     15  C   UNL     1       5.562   5.063  17.828  0.00  0.00    +0.000 A 
ATOM     16  C   UNL     1       4.705   5.807  18.662  0.00  0.00    +0.000 A 
BRANCH  15  17
ATOM     17  C   UNL     1       7.028   5.411  17.742  0.00  0.00    +0.000 C 
ATOM     18  F   UNL     1       7.851   4.357  18.009  0.00  0.00    +0.000 F 
ATOM     19  F   UNL     1       7.385   5.851  16.504  0.00  0.00    +0.000 F 
ATOM     20  F   UNL     1       7.389   6.394  18.611  0.00  0.00    +0.000 F 
ENDBRANCH  15  17
ENDBRANCH   9  11
ENDBRANCH   5   7
BRANCH   1  22
ATOM     21  C   UNL     1      -0.621  12.734  18.885  0.00  0.00    +0.000 C 
ATOM     22  C   UNL     1      -1.294  11.468  19.448  0.00  0.00    +0.000 C 
BRANCH  22  23
ATOM     23  C   UNL     1      -2.088  10.729  18.340  0.00  0.00    +0.000 C 
BRANCH  23  24
ATOM     24  C   UNL     1      -3.429  11.317  18.065  0.00  0.00    +0.000 A 
ATOM     25  N   UNL     1      -4.215  11.894  18.955  0.00  0.00    +0.000 NA
ATOM     26  N   UNL     1      -5.351  12.323  18.314  0.00  0.00    +0.000 NA
ATOM     27  C   UNL     1      -5.233  12.012  17.046  0.00  0.00    +0.000 A 
ATOM     28  N   UNL     1      -4.047  11.375  16.844  0.00  0.00    +0.000 N 
ATOM     29  C   UNL     1      -3.554  10.882  15.586  0.00  0.00    +0.000 C 
ENDBRANCH  23  24
ENDBRANCH  22  23
ENDBRANCH   1  22
TORSDOF 6
ENDMDL
MODEL 3
REMARK VINA RESULT:      -8.4      4.752      9.286
REMARK  Name = 
REMARK  9 active torsions:
REMARK  status: ('A' for Active; 'I' for Inactive)
REMARK    1  A    between atoms: C_1  and  C_2
REMARK    2  A    between atoms: C_2  and  C_3
REMARK    3  A    between atoms: C_2  and  C_10
REMARK    4  A    between atoms: C_3  and  C_4
REMARK    5  A    between atoms: N_8  and  C_9
REMARK    6  A    between atoms: C_14  and  N_15
REMARK    7  A    between atoms: N_15  and  C_16
REMARK    8  A    between atoms: C_17  and  C_19
REMARK    9  A    between atoms: C_23  and  C_24
REMARK                            x       y       z     vdW  Elec       q    Type
REMARK                         _______ _______ _______ _____ _____    ______ ____
ROOT
ATOM      1  C   UNL     1       4.619   4.747  17.130  0.00  0.00    +0.000 A 
ATOM      2  C   UNL     1       3.950   3.580  16.740  0.00  0.00    +0.000 A 
ATOM      3  C   UNL     1       2.665   3.309  17.207  0.00  0.00    +0.000 A 
ATOM      4  C   UNL     1       2.023   4.196  18.077  0.00  0.00    +0.000 A 
ATOM      5  C   UNL     1       2.646   5.376  18.491  0.00  0.00    +0.000 A 
ATOM      6  C   UNL     1       3.932   5.641  17.973  0.00  0.00    +0.000 A 
ENDROOT
BRANCH   5   7
ATOM      7  N   UNL     1       2.063   6.274  19.471  0.00  0.00    +0.000 N 
ATOM      8  C   UNL     1       1.649   5.644  20.728  0.00  0.00    +0.000 C 
ATOM      9  C   UNL     1       1.828   7.641  19.183  0.00  0.00    +0.000 C 
ATOM     10  O   UNL     1       2.087   8.179  18.104  0.00  0.00    +0.000 OA
BRANCH   9  11
ATOM     11  C   UNL     1       1.248   8.575  20.210  0.00  0.00    +0.000 A 
ATOM     12  C   UNL     1       1.504   8.488  21.582  0.00  0.00    +0.000 A 
ATOM     13  C   UNL     1       0.932   9.396  22.477  0.00  0.00    +0.000 A 
ATOM     14  C   UNL     1       0.178  10.467  22.003  0.00  0.00    +0.000 A 
ATOM     15  C   UNL     1      -0.008  10.645  20.627  0.00  0.00    +0.000 A 
ATOM     16  C   UNL     1       0.502   9.674  19.743  0.00  0.00    +0.000 A 
BRANCH  15  17
ATOM     17  C   UNL     1      -0.687  11.880  20.088  0.00  0.00    +0.000 C 
ATOM     18  F   UNL     1       0.187  12.859  19.717  0.00  0.00    +0.000 F 
ATOM     19  F   UNL     1      -1.436  11.619  18.981  0.00  0.00    +0.000 F 
ATOM     20  F   UNL     1      -1.529  12.454  20.988  0.00  0.00    +0.000 F 
ENDBRANCH  15  17
ENDBRANCH   9  11
ENDBRANCH   5   7
BRANCH   1  22
ATOM     21  C   UNL     1       7.099   4.931  17.811  0.00  0.00    +0.000 C 
ATOM     22  C   UNL     1       6.063   4.985  16.672  0.00  0.00    +0.000 C 
BRANCH  22  23
ATOM     23  C   UNL     1       6.422   3.973  15.553  0.00  0.00    +0.000 C 
BRANCH  23  24
ATOM     24  C   UNL     1       7.050   4.597  14.355  0.00  0.00    +0.000 A 
ATOM     25  N   UNL     1       7.989   5.526  14.371  0.00  0.00    +0.000 NA
ATOM     26  N   UNL     1       8.320   5.829  13.074  0.00  0.00    +0.000 NA
ATOM     27  C   UNL     1       7.589   5.072  12.291  0.00  0.00    +0.000 A 
ATOM     28  N   UNL     1       6.775   4.288  13.049  0.00  0.00    +0.000 N 
ATOM     29  C   UNL     1       5.829   3.323  12.557  0.00  0.00    +0.000 C 
ENDBRANCH  23  24
ENDBRANCH  22  23
ENDBRANCH   1  22
TORSDOF 6
ENDMDL
MODEL 4
REMARK VINA RESULT:      -8.3      2.116      2.563
REMARK  Name = 
REMARK  9 active torsions:
REMARK  status: ('A' for Active; 'I' for Inactive)
REMARK    1  A    between atoms: C_1  and  C_2
REMARK    2  A    between atoms: C_2  and  C_3
REMARK    3  A    between atoms: C_2  and  C_10
REMARK    4  A    between atoms: C_3  and  C_4
REMARK    5  A    between atoms: N_8  and  C_9
REMARK    6  A    between atoms: C_14  and  N_15
REMARK    7  A    between atoms: N_15  and  C_16
REMARK    8  A    between atoms: C_17  and  C_19
REMARK    9  A    between atoms: C_23  and  C_24
REMARK                            x       y       z     vdW  Elec       q    Type
REMARK                         _______ _______ _______ _____ _____    ______ ____
ROOT
ATOM      1  C   UNL     1      -0.320  10.737  20.279  0.00  0.00    +0.000 A 
ATOM      2  C   UNL     1      -0.360  10.890  21.671  0.00  0.00    +0.000 A 
ATOM      3  C   UNL     1       0.305   9.991  22.502  0.00  0.00    +0.000 A 
ATOM      4  C   UNL     1       1.021   8.918  21.961  0.00  0.00    +0.000 A 
ATOM      5  C   UNL     1       1.096   8.727  20.579  0.00  0.00    +0.000 A 
ATOM      6  C   UNL     1       0.443   9.674  19.762  0.00  0.00    +0.000 A 
ENDROOT
BRANCH   5   7
ATOM      7  N   UNL     1       1.739   7.574  19.977  0.00  0.00    +0.000 N 
ATOM      8  C   UNL     1       1.794   6.375  20.820  0.00  0.00    +0.000 C 
ATOM      9  C   UNL     1       2.353   7.643  18.702  0.00  0.00    +0.000 C 
ATOM     10  O   UNL     1       2.398   8.660  18.007  0.00  0.00    +0.000 OA
BRANCH   9  11
ATOM     11  C   UNL     1       2.995   6.439  18.069  0.00  0.00    +0.000 A 
ATOM     12  C   UNL     1       4.246   6.457  17.442  0.00  0.00    +0.000 A 
ATOM     13  C   UNL     1       4.782   5.296  16.879  0.00  0.00    +0.000 A 
ATOM     14  C   UNL     1       4.123   4.077  17.026  0.00  0.00    +0.000 A 
ATOM     15  C   UNL     1       2.923   4.006  17.743  0.00  0.00    +0.000 A 
ATOM     16  C   UNL     1       2.352   5.197  18.229  0.00  0.00    +0.000 A 
BRANCH  15  17
ATOM     17  C   UNL     1       2.277   2.675  18.046  0.00  0.00    +0.000 C 
ATOM     18  F   UNL     1       2.745   2.095  19.187  0.00  0.00    +0.000 F 
ATOM     19  F   UNL     1       0.929   2.779  18.212  0.00  0.00    +0.000 F 
ATOM     20  F   UNL     1       2.467   1.760  17.057  0.00  0.00    +0.000 F 
ENDBRANCH  15  17
ENDBRANCH   9  11
ENDBRANCH   5   7
BRANCH   1  22
ATOM     21  C   UNL     1      -0.318  12.888  18.857  0.00  0.00    +0.000 C 
ATOM     22  C   UNL     1      -1.127  11.688  19.386  0.00  0.00    +0.000 C 
BRANCH  22  23
ATOM     23  C   UNL     1      -1.753  10.888  18.215  0.00  0.00    +0.000 C 
BRANCH  23  24
ATOM     24  C   UNL     1      -3.139  11.312  17.868  0.00  0.00    +0.000 A 
ATOM     25  N   UNL     1      -4.025  11.815  18.708  0.00  0.00    +0.000 NA
ATOM     26  N   UNL     1      -5.172  12.096  18.009  0.00  0.00    +0.000 NA
ATOM     27  C   UNL     1      -4.962  11.774  16.756  0.00  0.00    +0.000 A 
ATOM     28  N   UNL     1      -3.704  11.273  16.621  0.00  0.00    +0.000 N 
ATOM     29  C   UNL     1      -3.102  10.812  15.399  0.00  0.00    +0.000 C 
ENDBRANCH  23  24
ENDBRANCH  22  23
ENDBRANCH   1  22
TORSDOF 6
ENDMDL
MODEL 5
REMARK VINA RESULT:      -8.2      2.684      3.530
REMARK  Name = 
REMARK  9 active torsions:
REMARK  status: ('A' for Active; 'I' for Inactive)
REMARK    1  A    between atoms: C_1  and  C_2
REMARK    2  A    between atoms: C_2  and  C_3
REMARK    3  A    between atoms: C_2  and  C_10
REMARK    4  A    between atoms: C_3  and  C_4
REMARK    5  A    between atoms: N_8  and  C_9
REMARK    6  A    between atoms: C_14  and  N_15
REMARK    7  A    between atoms: N_15  and  C_16
REMARK    8  A    between atoms: C_17  and  C_19
REMARK    9  A    between atoms: C_23  and  C_24
REMARK                            x       y       z     vdW  Elec       q    Type
REMARK                         _______ _______ _______ _____ _____    ______ ____
ROOT
ATOM      1  C   UNL     1      -0.048  10.421  20.139  0.00  0.00    +0.000 A 
ATOM      2  C   UNL     1      -0.388  10.018  21.437  0.00  0.00    +0.000 A 
ATOM      3  C   UNL     1       0.174   8.871  21.993  0.00  0.00    +0.000 A 
ATOM      4  C   UNL     1       1.084   8.100  21.264  0.00  0.00    +0.000 A 
ATOM      5  C   UNL     1       1.460   8.463  19.968  0.00  0.00    +0.000 A 
ATOM      6  C   UNL     1       0.903   9.649  19.445  0.00  0.00    +0.000 A 
ENDROOT
BRANCH   5   7
ATOM      7  N   UNL     1       2.320   7.642  19.137  0.00  0.00    +0.000 N 
ATOM      8  C   UNL     1       2.727   8.249  17.865  0.00  0.00    +0.000 C 
ATOM      9  C   UNL     1       2.657   6.313  19.495  0.00  0.00    +0.000 C 
ATOM     10  O   UNL     1       2.260   5.747  20.516  0.00  0.00    +0.000 OA
BRANCH   9  11
ATOM     11  C   UNL     1       3.570   5.474  18.644  0.00  0.00    +0.000 A 
ATOM     12  C   UNL     1       3.130   4.631  17.617  0.00  0.00    +0.000 A 
ATOM     13  C   UNL     1       4.040   3.883  16.864  0.00  0.00    +0.000 A 
ATOM     14  C   UNL     1       5.410   4.045  17.058  0.00  0.00    +0.000 A 
ATOM     15  C   UNL     1       5.885   4.961  18.004  0.00  0.00    +0.000 A 
ATOM     16  C   UNL     1       4.958   5.643  18.814  0.00  0.00    +0.000 A 
BRANCH  15  17
ATOM     17  C   UNL     1       7.360   5.263  18.119  0.00  0.00    +0.000 C 
ATOM     18  F   UNL     1       7.771   5.471  19.403  0.00  0.00    +0.000 F 
ATOM     19  F   UNL     1       8.136   4.249  17.645  0.00  0.00    +0.000 F 
ATOM     20  F   UNL     1       7.726   6.375  17.426  0.00  0.00    +0.000 F 
ENDBRANCH  15  17
ENDBRANCH   9  11
ENDBRANCH   5   7
BRANCH   1  22
ATOM     21  C   UNL     1      -1.832  12.264  20.405  0.00  0.00    +0.000 C 
ATOM     22  C   UNL     1      -0.740  11.639  19.515  0.00  0.00    +0.000 C 
BRANCH  22  23
ATOM     23  C   UNL     1       0.326  12.697  19.130  0.00  0.00    +0.000 C 
BRANCH  23  24
ATOM     24  C   UNL     1       0.711  13.600  20.251  0.00  0.00    +0.000 A 
ATOM     25  N   UNL     1       1.496  13.281  21.264  0.00  0.00    +0.000 NA
ATOM     26  N   UNL     1       1.626  14.382  22.073  0.00  0.00    +0.000 NA
ATOM     27  C   UNL     1       0.931  15.355  21.535  0.00  0.00    +0.000 A 
ATOM     28  N   UNL     1       0.336  14.910  20.394  0.00  0.00    +0.000 N 
ATOM     29  C   UNL     1      -0.505  15.682  19.520  0.00  0.00    +0.000 C 
ENDBRANCH  23  24
ENDBRANCH  22  23
ENDBRANCH   1  22
TORSDOF 6
ENDMDL
MODEL 6
REMARK VINA RESULT:      -8.2      3.300      4.376
REMARK  Name = 
REMARK  9 active torsions:
REMARK  status: ('A' for Active; 'I' for Inactive)
REMARK    1  A    between atoms: C_1  and  C_2
REMARK    2  A    between atoms: C_2  and  C_3
REMARK    3  A    between atoms: C_2  and  C_10
REMARK    4  A    between atoms: C_3  and  C_4
REMARK    5  A    between atoms: N_8  and  C_9
REMARK    6  A    between atoms: C_14  and  N_15
REMARK    7  A    between atoms: N_15  and  C_16
REMARK    8  A    between atoms: C_17  and  C_19
REMARK    9  A    between atoms: C_23  and  C_24
REMARK                            x       y       z     vdW  Elec       q    Type
REMARK                         _______ _______ _______ _____ _____    ______ ____
ROOT
ATOM      1  C   UNL     1      -0.106  10.216  20.888  0.00  0.00    +0.000 A 
ATOM      2  C   UNL     1      -0.270  11.292  20.007  0.00  0.00    +0.000 A 
ATOM      3  C   UNL     1       0.329  11.276  18.748  0.00  0.00    +0.000 A 
ATOM      4  C   UNL     1       1.107  10.186  18.346  0.00  0.00    +0.000 A 
ATOM      5  C   UNL     1       1.297   9.086  19.186  0.00  0.00    +0.000 A 
ATOM      6  C   UNL     1       0.648   9.115  20.439  0.00  0.00    +0.000 A 
ENDROOT
BRANCH   5   7
ATOM      7  N   UNL     1       2.177   7.982  18.854  0.00  0.00    +0.000 N 
ATOM      8  C   UNL     1       2.887   8.110  17.577  0.00  0.00    +0.000 C 
ATOM      9  C   UNL     1       2.262   6.825  19.666  0.00  0.00    +0.000 C 
ATOM     10  O   UNL     1       1.613   6.652  20.700  0.00  0.00    +0.000 OA
BRANCH   9  11
ATOM     11  C   UNL     1       3.195   5.694  19.332  0.00  0.00    +0.000 A 
ATOM     12  C   UNL     1       4.586   5.756  19.476  0.00  0.00    +0.000 A 
ATOM     13  C   UNL     1       5.390   4.660  19.149  0.00  0.00    +0.000 A 
ATOM     14  C   UNL     1       4.809   3.451  18.773  0.00  0.00    +0.000 A 
ATOM     15  C   UNL     1       3.415   3.324  18.724  0.00  0.00    +0.000 A 
ATOM     16  C   UNL     1       2.621   4.459  18.972  0.00  0.00    +0.000 A 
BRANCH  15  17
ATOM     17  C   UNL     1       2.767   1.984  18.471  0.00  0.00    +0.000 C 
ATOM     18  F   UNL     1       3.640   0.939  18.538  0.00  0.00    +0.000 F 
ATOM     19  F   UNL     1       1.788   1.703  19.376  0.00  0.00    +0.000 F 
ATOM     20  F   UNL     1       2.183   1.904  17.245  0.00  0.00    +0.000 F 
ENDBRANCH  15  17
ENDBRANCH   9  11
ENDBRANCH   5   7
BRANCH   1  22
ATOM     21  C   UNL     1       0.088   9.498  23.357  0.00  0.00    +0.000 C 
ATOM     22  C   UNL     1      -0.704  10.290  22.299  0.00  0.00    +0.000 C 
BRANCH  22  23
ATOM     23  C   UNL     1      -0.850  11.775  22.719  0.00  0.00    +0.000 C 
BRANCH  23  24
ATOM     24  C   UNL     1      -2.263  12.220  22.881  0.00  0.00    +0.000 A 
ATOM     25  N   UNL     1      -3.168  11.647  23.653  0.00  0.00    +0.000 NA
ATOM     26  N   UNL     1      -4.338  12.356  23.547  0.00  0.00    +0.000 NA
ATOM     27  C   UNL     1      -4.123  13.355  22.724  0.00  0.00    +0.000 A 
ATOM     28  N   UNL     1      -2.838  13.307  22.278  0.00  0.00    +0.000 N 
ATOM     29  C   UNL     1      -2.223  14.232  21.365  0.00  0.00    +0.000 C 
ENDBRANCH  23  24
ENDBRANCH  22  23
ENDBRANCH   1  22
TORSDOF 6
ENDMDL
MODEL 7
REMARK VINA RESULT:      -8.1      5.036      9.478
REMARK  Name = 
REMARK  9 active torsions:
REMARK  status: ('A' for Active; 'I' for Inactive)
REMARK    1  A    between atoms: C_1  and  C_2
REMARK    2  A    between atoms: C_2  and  C_3
REMARK    3  A    between atoms: C_2  and  C_10
REMARK    4  A    between atoms: C_3  and  C_4
REMARK    5  A    between atoms: N_8  and  C_9
REMARK    6  A    between atoms: C_14  and  N_15
REMARK    7  A    between atoms: N_15  and  C_16
REMARK    8  A    between atoms: C_17  and  C_19
REMARK    9  A    between atoms: C_23  and  C_24
REMARK                            x       y       z     vdW  Elec       q    Type
REMARK                         _______ _______ _______ _____ _____    ______ ____
ROOT
ATOM      1  C   UNL     1       4.864   5.336  17.890  0.00  0.00    +0.000 A 
ATOM      2  C   UNL     1       4.505   4.257  18.708  0.00  0.00    +0.000 A 
ATOM      3  C   UNL     1       3.377   4.330  19.523  0.00  0.00    +0.000 A 
ATOM      4  C   UNL     1       2.586   5.483  19.541  0.00  0.00    +0.000 A 
ATOM      5  C   UNL     1       2.899   6.583  18.739  0.00  0.00    +0.000 A 
ATOM      6  C   UNL     1       4.026   6.466  17.897  0.00  0.00    +0.000 A 
ENDROOT
BRANCH   5   7
ATOM      7  N   UNL     1       2.169   7.836  18.799  0.00  0.00    +0.000 N 
ATOM      8  C   UNL     1       2.281   8.683  17.607  0.00  0.00    +0.000 C 
ATOM      9  C   UNL     1       1.482   8.243  19.968  0.00  0.00    +0.000 C 
ATOM     10  O   UNL     1       1.442   7.592  21.014  0.00  0.00    +0.000 OA
BRANCH   9  11
ATOM     11  C   UNL     1       0.705   9.530  20.019  0.00  0.00    +0.000 A 
ATOM     12  C   UNL     1       0.375  10.292  18.893  0.00  0.00    +0.000 A 
ATOM     13  C   UNL     1      -0.355  11.477  19.017  0.00  0.00    +0.000 A 
ATOM     14  C   UNL     1      -0.856  11.865  20.258  0.00  0.00    +0.000 A 
ATOM     15  C   UNL     1      -0.635  11.068  21.388  0.00  0.00    +0.000 A 
ATOM     16  C   UNL     1       0.174   9.923  21.263  0.00  0.00    +0.000 A 
BRANCH  15  17
ATOM     17  C   UNL     1      -1.299  11.388  22.705  0.00  0.00    +0.000 C 
ATOM     18  F   UNL     1      -1.239  10.364  23.604  0.00  0.00    +0.000 F 
ATOM     19  F   UNL     1      -0.726  12.456  23.328  0.00  0.00    +0.000 F 
ATOM     20  F   UNL     1      -2.618  11.691  22.572  0.00  0.00    +0.000 F 
ENDBRANCH  15  17
ENDBRANCH   9  11
ENDBRANCH   5   7
BRANCH   1  22
ATOM     21  C   UNL     1       7.388   4.807  17.865  0.00  0.00    +0.000 C 
ATOM     22  C   UNL     1       6.155   5.267  17.064  0.00  0.00    +0.000 C 
BRANCH  22  23
ATOM     23  C   UNL     1       5.930   4.355  15.830  0.00  0.00    +0.000 C 
BRANCH  23  24
ATOM     24  C   UNL     1       6.742   4.738  14.641  0.00  0.00    +0.000 A 
ATOM     25  N   UNL     1       7.785   5.548  14.648  0.00  0.00    +0.000 NA
ATOM     26  N   UNL     1       8.273   5.635  13.368  0.00  0.00    +0.000 NA
ATOM     27  C   UNL     1       7.529   4.869  12.607  0.00  0.00    +0.000 A 
ATOM     28  N   UNL     1       6.554   4.292  13.360  0.00  0.00    +0.000 N 
ATOM     29  C   UNL     1       5.543   3.384  12.887  0.00  0.00    +0.000 C 
ENDBRANCH  23  24
ENDBRANCH  22  23
ENDBRANCH   1  22
TORSDOF 6
ENDMDL
MODEL 8
REMARK VINA RESULT:      -8.1      2.636      3.800
REMARK  Name = 
REMARK  9 active torsions:
REMARK  status: ('A' for Active; 'I' for Inactive)
REMARK    1  A    between atoms: C_1  and  C_2
REMARK    2  A    between atoms: C_2  and  C_3
REMARK    3  A    between atoms: C_2  and  C_10
REMARK    4  A    between atoms: C_3  and  C_4
REMARK    5  A    between atoms: N_8  and  C_9
REMARK    6  A    between atoms: C_14  and  N_15
REMARK    7  A    between atoms: N_15  and  C_16
REMARK    8  A    between atoms: C_17  and  C_19
REMARK    9  A    between atoms: C_23  and  C_24
REMARK                            x       y       z     vdW  Elec       q    Type
REMARK                         _______ _______ _______ _____ _____    ______ ____
ROOT
ATOM      1  C   UNL     1      -0.150  10.303  21.040  0.00  0.00    +0.000 A 
ATOM      2  C   UNL     1      -0.105  11.355  20.117  0.00  0.00    +0.000 A 
ATOM      3  C   UNL     1       0.600  11.219  18.921  0.00  0.00    +0.000 A 
ATOM      4  C   UNL     1       1.276  10.031  18.626  0.00  0.00    +0.000 A 
ATOM      5  C   UNL     1       1.257   8.951  19.513  0.00  0.00    +0.000 A 
ATOM      6  C   UNL     1       0.505   9.105  20.697  0.00  0.00    +0.000 A 
ENDROOT
BRANCH   5   7
ATOM      7  N   UNL     1       2.026   7.740  19.297  0.00  0.00    +0.000 N 
ATOM      8  C   UNL     1       2.061   6.811  20.432  0.00  0.00    +0.000 C 
ATOM      9  C   UNL     1       2.764   7.526  18.108  0.00  0.00    +0.000 C 
ATOM     10  O   UNL     1       2.822   8.327  17.173  0.00  0.00    +0.000 OA
BRANCH   9  11
ATOM     11  C   UNL     1       3.539   6.258  17.877  0.00  0.00    +0.000 A 
ATOM     12  C   UNL     1       2.952   5.026  17.570  0.00  0.00    +0.000 A 
ATOM     13  C   UNL     1       3.738   3.889  17.364  0.00  0.00    +0.000 A 
ATOM     14  C   UNL     1       5.128   3.989  17.360  0.00  0.00    +0.000 A 
ATOM     15  C   UNL     1       5.747   5.229  17.556  0.00  0.00    +0.000 A 
ATOM     16  C   UNL     1       4.944   6.349  17.848  0.00  0.00    +0.000 A 
BRANCH  15  17
ATOM     17  C   UNL     1       7.240   5.386  17.401  0.00  0.00    +0.000 C 
ATOM     18  F   UNL     1       7.592   6.364  16.519  0.00  0.00    +0.000 F 
ATOM     19  F   UNL     1       7.852   5.711  18.573  0.00  0.00    +0.000 F 
ATOM     20  F   UNL     1       7.846   4.250  16.960  0.00  0.00    +0.000 F 
ENDBRANCH  15  17
ENDBRANCH   9  11
ENDBRANCH   5   7
BRANCH   1  22
ATOM     21  C   UNL     1      -0.244   9.696  23.544  0.00  0.00    +0.000 C 
ATOM     22  C   UNL     1      -0.860  10.502  22.385  0.00  0.00    +0.000 C 
BRANCH  22  23
ATOM     23  C   UNL     1      -0.900  12.014  22.728  0.00  0.00    +0.000 C 
BRANCH  23  24
ATOM     24  C   UNL     1      -2.207  12.474  23.275  0.00  0.00    +0.000 A 
ATOM     25  N   UNL     1      -3.236  11.700  23.569  0.00  0.00    +0.000 NA
ATOM     26  N   UNL     1      -4.244  12.490  24.063  0.00  0.00    +0.000 NA
ATOM     27  C   UNL     1      -3.810  13.727  24.074  0.00  0.00    +0.000 A 
ATOM     28  N   UNL     1      -2.541  13.766  23.583  0.00  0.00    +0.000 N 
ATOM     29  C   UNL     1      -1.724  14.941  23.439  0.00  0.00    +0.000 C 
ENDBRANCH  23  24
ENDBRANCH  22  23
ENDBRANCH   1  22
TORSDOF 6
ENDMDL
MODEL 9
REMARK VINA RESULT:      -8.1      4.340      8.951
REMARK  Name = 
REMARK  9 active torsions:
REMARK  status: ('A' for Active; 'I' for Inactive)
REMARK    1  A    between atoms: C_1  and  C_2
REMARK    2  A    between atoms: C_2  and  C_3
REMARK    3  A    between atoms: C_2  and  C_10
REMARK    4  A    between atoms: C_3  and  C_4
REMARK    5  A    between atoms: N_8  and  C_9
REMARK    6  A    between atoms: C_14  and  N_15
REMARK    7  A    between atoms: N_15  and  C_16
REMARK    8  A    between atoms: C_17  and  C_19
REMARK    9  A    between atoms: C_23  and  C_24
REMARK                            x       y       z     vdW  Elec       q    Type
REMARK                         _______ _______ _______ _____ _____    ______ ____
ROOT
ATOM      1  C   UNL     1       4.665   5.363  17.802  0.00  0.00    +0.000 A 
ATOM      2  C   UNL     1       4.211   4.153  18.341  0.00  0.00    +0.000 A 
ATOM      3  C   UNL     1       3.063   4.113  19.129  0.00  0.00    +0.000 A 
ATOM      4  C   UNL     1       2.345   5.282  19.400  0.00  0.00    +0.000 A 
ATOM      5  C   UNL     1       2.754   6.514  18.881  0.00  0.00    +0.000 A 
ATOM      6  C   UNL     1       3.899   6.517  18.057  0.00  0.00    +0.000 A 
ENDROOT
BRANCH   5   7
ATOM      7  N   UNL     1       2.103   7.766  19.217  0.00  0.00    +0.000 N 
ATOM      8  C   UNL     1       1.672   7.893  20.613  0.00  0.00    +0.000 C 
ATOM      9  C   UNL     1       1.822   8.748  18.236  0.00  0.00    +0.000 C 
ATOM     10  O   UNL     1       2.096   8.634  17.040  0.00  0.00    +0.000 OA
BRANCH   9  11
ATOM     11  C   UNL     1       1.171  10.057  18.593  0.00  0.00    +0.000 A 
ATOM     12  C   UNL     1      -0.105  10.170  19.154  0.00  0.00    +0.000 A 
ATOM     13  C   UNL     1      -0.644  11.422  19.464  0.00  0.00    +0.000 A 
ATOM     14  C   UNL     1       0.126  12.573  19.313  0.00  0.00    +0.000 A 
ATOM     15  C   UNL     1       1.446  12.484  18.856  0.00  0.00    +0.000 A 
ATOM     16  C   UNL     1       1.946  11.226  18.466  0.00  0.00    +0.000 A 
BRANCH  15  17
ATOM     17  C   UNL     1       2.344  13.697  18.834  0.00  0.00    +0.000 C 
ATOM     18  F   UNL     1       2.904  13.933  17.613  0.00  0.00    +0.000 F 
ATOM     19  F   UNL     1       1.679  14.840  19.160  0.00  0.00    +0.000 F 
ATOM     20  F   UNL     1       3.382  13.601  19.708  0.00  0.00    +0.000 F 
ENDBRANCH  15  17
ENDBRANCH   9  11
ENDBRANCH   5   7
BRANCH   1  22
ATOM     21  C   UNL     1       7.228   5.093  17.851  0.00  0.00    +0.000 C 
ATOM     22  C   UNL     1       5.976   5.398  17.007  0.00  0.00    +0.000 C 
BRANCH  22  23
ATOM     23  C   UNL     1       5.875   4.427  15.803  0.00  0.00    +0.000 C 
BRANCH  23  24
ATOM     24  C   UNL     1       6.736   4.806  14.648  0.00  0.00    +0.000 A 
ATOM     25  N   UNL     1       7.775   5.620  14.696  0.00  0.00    +0.000 NA
ATOM     26  N   UNL     1       8.317   5.703  13.437  0.00  0.00    +0.000 NA
ATOM     27  C   UNL     1       7.609   4.930  12.649  0.00  0.00    +0.000 A 
ATOM     28  N   UNL     1       6.605   4.352  13.363  0.00  0.00    +0.000 N 
ATOM     29  C   UNL     1       5.620   3.438  12.852  0.00  0.00    +0.000 C 
ENDBRANCH  23  24
ENDBRANCH  22  23
ENDBRANCH   1  22
TORSDOF 6
ENDMDL
