MODEL 1
REMARK VINA RESULT:      -9.5      0.000      0.000
REMARK  Name = 
REMARK  6 active torsions:
REMARK  status: ('A' for Active; 'I' for Inactive)
REMARK    1  A    between atoms: C_1  and  C_2
REMARK    2  A    between atoms: C_4  and  N_5
REMARK    3  A    between atoms: C_7  and  C_8
REMARK    4  A    between atoms: C_10  and  C_11
REMARK    5  A    between atoms: C_11  and  O_12
REMARK    6  A    between atoms: O_12  and  C_13
REMARK                            x       y       z     vdW  Elec       q    Type
REMARK                         _______ _______ _______ _____ _____    ______ ____
ROOT
ATOM      1  N   UNL     1       5.276   4.522  18.021  0.00  0.00    +0.000 N 
ATOM      2  C   UNL     1       6.514   4.506  18.766  0.00  0.00    +0.000 C 
ATOM      3  C   UNL     1       7.561   4.971  17.767  0.00  0.00    +0.000 C 
ATOM      4  C   UNL     1       7.022   4.466  16.439  0.00  0.00    +0.000 C 
ATOM      5  C   UNL     1       5.525   4.487  16.641  0.00  0.00    +0.000 C 
ATOM      6  O   UNL     1       4.734   4.407  15.715  0.00  0.00    +0.000 OA
ENDROOT
BRANCH   1  10
ATOM      7  C   UNL     1       0.894   2.259  18.746  0.00  0.00    +0.000 C 
ATOM      8  C   UNL     1       1.840   3.388  19.016  0.00  0.00    +0.000 A 
ATOM      9  C   UNL     1       3.102   3.434  18.403  0.00  0.00    +0.000 A 
ATOM     10  C   UNL     1       4.001   4.485  18.644  0.00  0.00    +0.000 A 
ATOM     11  C   UNL     1       3.596   5.509  19.517  0.00  0.00    +0.000 A 
ATOM     12  C   UNL     1       2.344   5.472  20.137  0.00  0.00    +0.000 A 
ATOM     13  C   UNL     1       1.479   4.416  19.883  0.00  0.00    +0.000 A 
ATOM     14  F   UNL     1       0.282   4.397  20.485  0.00  0.00    +0.000 F 
ENDBRANCH   1  10
BRANCH   3  15
ATOM     15  C   UNL     1       7.724   6.451  17.815  0.00  0.00    +0.000 A 
ATOM     16  N   UNL     1       8.405   7.166  18.680  0.00  0.00    +0.000 NA
ATOM     17  C   UNL     1       8.207   8.446  18.213  0.00  0.00    +0.000 A 
ATOM     18  N   UNL     1       7.415   8.535  17.137  0.00  0.00    +0.000 NA
ATOM     19  O   UNL     1       7.091   7.206  16.869  0.00  0.00    +0.000 OA
BRANCH  17  20
ATOM     20  C   UNL     1       8.794   9.635  18.889  0.00  0.00    +0.000 C 
BRANCH  20  21
ATOM     21  O   UNL     1       9.297  10.580  17.937  0.00  0.00    +0.000 OA
BRANCH  21  22
ATOM     22  C   UNL     1      10.281  11.414  18.388  0.00  0.00    +0.000 A 
ATOM     23  C   UNL     1      10.851  11.370  19.665  0.00  0.00    +0.000 A 
ATOM     24  C   UNL     1      11.873  12.259  20.013  0.00  0.00    +0.000 A 
ATOM     25  C   UNL     1      12.331  13.189  19.084  0.00  0.00    +0.000 A 
ATOM     26  C   UNL     1      11.772  13.217  17.812  0.00  0.00    +0.000 A 
ATOM     27  F   UNL     1      12.218  14.107  16.917  0.00  0.00    +0.000 F 
ATOM     28  C   UNL     1      10.759  12.334  17.455  0.00  0.00    +0.000 A 
ENDBRANCH  21  22
ENDBRANCH  20  21
ENDBRANCH  17  20
ENDBRANCH   3  15
TORSDOF 5
ENDMDL
MODEL 2
REMARK VINA RESULT:      -9.1      0.539      1.391
REMARK  Name = 
REMARK  6 active torsions:
REMARK  status: ('A' for Active; 'I' for Inactive)
REMARK    1  A    between atoms: C_1  and  C_2
REMARK    2  A    between atoms: C_4  and  N_5
REMARK    3  A    between atoms: C_7  and  C_8
REMARK    4  A    between atoms: C_10  and  C_11
REMARK    5  A    between atoms: C_11  and  O_12
REMARK    6  A    between atoms: O_12  and  C_13
REMARK                            x       y       z     vdW  Elec       q    Type
REMARK                         _______ _______ _______ _____ _____    ______ ____
ROOT
ATOM      1  N   UNL     1       5.224   4.550  18.080  0.00  0.00    +0.000 N 
ATOM      2  C   UNL     1       6.472   4.509  18.808  0.00  0.00    +0.000 C 
ATOM      3  C   UNL     1       7.517   4.940  17.791  0.00  0.00    +0.000 C 
ATOM      4  C   UNL     1       6.947   4.436  16.475  0.00  0.00    +0.000 C 
ATOM      5  C   UNL     1       5.454   4.496  16.697  0.00  0.00    +0.000 C 
ATOM      6  O   UNL     1       4.649   4.428  15.782  0.00  0.00    +0.000 OA
ENDROOT
BRANCH   1  10
ATOM      7  C   UNL     1       1.703   6.946  20.669  0.00  0.00    +0.000 C 
ATOM      8  C   UNL     1       2.212   5.710  19.993  0.00  0.00    +0.000 A 
ATOM      9  C   UNL     1       3.465   5.700  19.358  0.00  0.00    +0.000 A 
ATOM     10  C   UNL     1       3.957   4.550  18.721  0.00  0.00    +0.000 A 
ATOM     11  C   UNL     1       3.162   3.393  18.744  0.00  0.00    +0.000 A 
ATOM     12  C   UNL     1       1.912   3.392  19.369  0.00  0.00    +0.000 A 
ATOM     13  C   UNL     1       1.448   4.547  19.986  0.00  0.00    +0.000 A 
ATOM     14  F   UNL     1       0.248   4.528  20.582  0.00  0.00    +0.000 F 
ENDBRANCH   1  10
BRANCH   3  15
ATOM     15  C   UNL     1       7.716   6.415  17.822  0.00  0.00    +0.000 A 
ATOM     16  N   UNL     1       8.353   7.130  18.721  0.00  0.00    +0.000 NA
ATOM     17  C   UNL     1       8.225   8.404  18.217  0.00  0.00    +0.000 A 
ATOM     18  N   UNL     1       7.515   8.492  17.086  0.00  0.00    +0.000 NA
ATOM     19  O   UNL     1       7.174   7.167  16.819  0.00  0.00    +0.000 OA
BRANCH  17  20
ATOM     20  C   UNL     1       8.795   9.591  18.912  0.00  0.00    +0.000 C 
BRANCH  20  21
ATOM     21  O   UNL     1       9.076  10.650  17.988  0.00  0.00    +0.000 OA
BRANCH  21  22
ATOM     22  C   UNL     1       9.993  11.575  18.403  0.00  0.00    +0.000 A 
ATOM     23  C   UNL     1      10.889  11.400  19.463  0.00  0.00    +0.000 A 
ATOM     24  C   UNL     1      11.804  12.407  19.787  0.00  0.00    +0.000 A 
ATOM     25  C   UNL     1      11.829  13.587  19.048  0.00  0.00    +0.000 A 
ATOM     26  C   UNL     1      10.947  13.747  17.986  0.00  0.00    +0.000 A 
ATOM     27  F   UNL     1      10.977  14.880  17.272  0.00  0.00    +0.000 F 
ATOM     28  C   UNL     1      10.037  12.750  17.654  0.00  0.00    +0.000 A 
ENDBRANCH  21  22
ENDBRANCH  20  21
ENDBRANCH  17  20
ENDBRANCH   3  15
TORSDOF 5
ENDMDL
MODEL 3
REMARK VINA RESULT:      -9.0      5.643      7.719
REMARK  Name = 
REMARK  6 active torsions:
REMARK  status: ('A' for Active; 'I' for Inactive)
REMARK    1  A    between atoms: C_1  and  C_2
REMARK    2  A    between atoms: C_4  and  N_5
REMARK    3  A    between atoms: C_7  and  C_8
REMARK    4  A    between atoms: C_10  and  C_11
REMARK    5  A    between atoms: C_11  and  O_12
REMARK    6  A    between atoms: O_12  and  C_13
REMARK                            x       y       z     vdW  Elec       q    Type
REMARK                         _______ _______ _______ _____ _____    ______ ____
ROOT
ATOM      1  N   UNL     1       3.092   5.520  18.919  0.00  0.00    +0.000 N 
ATOM      2  C   UNL     1       4.254   5.126  19.683  0.00  0.00    +0.000 C 
ATOM      3  C   UNL     1       4.742   3.858  19.000  0.00  0.00    +0.000 C 
ATOM      4  C   UNL     1       3.461   3.236  18.469  0.00  0.00    +0.000 C 
ATOM      5  C   UNL     1       2.581   4.433  18.195  0.00  0.00    +0.000 C 
ATOM      6  O   UNL     1       1.572   4.366  17.511  0.00  0.00    +0.000 OA
ENDROOT
BRANCH   1  10
ATOM      7  C   UNL     1       0.689   9.033  21.513  0.00  0.00    +0.000 C 
ATOM      8  C   UNL     1       1.345   8.561  20.252  0.00  0.00    +0.000 A 
ATOM      9  C   UNL     1       1.907   7.277  20.168  0.00  0.00    +0.000 A 
ATOM     10  C   UNL     1       2.525   6.819  18.994  0.00  0.00    +0.000 A 
ATOM     11  C   UNL     1       2.558   7.683  17.887  0.00  0.00    +0.000 A 
ATOM     12  C   UNL     1       2.005   8.966  17.960  0.00  0.00    +0.000 A 
ATOM     13  C   UNL     1       1.406   9.393  19.137  0.00  0.00    +0.000 A 
ATOM     14  F   UNL     1       0.881  10.625  19.189  0.00  0.00    +0.000 F 
ENDBRANCH   1  10
BRANCH   3  15
ATOM     15  C   UNL     1       5.732   4.173  17.933  0.00  0.00    +0.000 A 
ATOM     16  N   UNL     1       5.530   4.268  16.640  0.00  0.00    +0.000 NA
ATOM     17  C   UNL     1       6.784   4.594  16.176  0.00  0.00    +0.000 A 
ATOM     18  N   UNL     1       7.731   4.662  17.120  0.00  0.00    +0.000 NA
ATOM     19  O   UNL     1       7.033   4.382  18.293  0.00  0.00    +0.000 OA
BRANCH  17  20
ATOM     20  C   UNL     1       7.064   4.805  14.729  0.00  0.00    +0.000 C 
BRANCH  20  21
ATOM     21  O   UNL     1       5.851   4.900  13.973  0.00  0.00    +0.000 OA
BRANCH  21  22
ATOM     22  C   UNL     1       5.686   3.964  12.991  0.00  0.00    +0.000 A 
ATOM     23  C   UNL     1       4.464   3.629  12.396  0.00  0.00    +0.000 A 
ATOM     24  C   UNL     1       4.414   2.670  11.379  0.00  0.00    +0.000 A 
ATOM     25  C   UNL     1       5.585   2.049  10.952  0.00  0.00    +0.000 A 
ATOM     26  C   UNL     1       6.796   2.397  11.536  0.00  0.00    +0.000 A 
ATOM     27  F   UNL     1       7.923   1.804  11.120  0.00  0.00    +0.000 F 
ATOM     28  C   UNL     1       6.857   3.353  12.544  0.00  0.00    +0.000 A 
ENDBRANCH  21  22
ENDBRANCH  20  21
ENDBRANCH  17  20
ENDBRANCH   3  15
TORSDOF 5
ENDMDL
MODEL 4
REMARK VINA RESULT:      -8.8      1.675      2.095
REMARK  Name = 
REMARK  6 active torsions:
REMARK  status: ('A' for Active; 'I' for Inactive)
REMARK    1  A    between atoms: C_1  and  C_2
REMARK    2  A    between atoms: C_4  and  N_5
REMARK    3  A    between atoms: C_7  and  C_8
REMARK    4  A    between atoms: C_10  and  C_11
REMARK    5  A    between atoms: C_11  and  O_12
REMARK    6  A    between atoms: O_12  and  C_13
REMARK                            x       y       z     vdW  Elec       q    Type
REMARK                         _______ _______ _______ _____ _____    ______ ____
ROOT
ATOM      1  N   UNL     1       3.946   5.601  17.654  0.00  0.00    +0.000 N 
ATOM      2  C   UNL     1       5.090   4.994  17.012  0.00  0.00    +0.000 C 
ATOM      3  C   UNL     1       5.819   6.158  16.359  0.00  0.00    +0.000 C 
ATOM      4  C   UNL     1       4.694   7.121  16.015  0.00  0.00    +0.000 C 
ATOM      5  C   UNL     1       3.667   6.854  17.089  0.00  0.00    +0.000 C 
ATOM      6  O   UNL     1       2.738   7.614  17.315  0.00  0.00    +0.000 OA
ENDROOT
BRANCH   1  10
ATOM      7  C   UNL     1       0.635   2.107  18.946  0.00  0.00    +0.000 C 
ATOM      8  C   UNL     1       1.558   3.229  19.311  0.00  0.00    +0.000 A 
ATOM      9  C   UNL     1       2.315   3.888  18.329  0.00  0.00    +0.000 A 
ATOM     10  C   UNL     1       3.184   4.942  18.653  0.00  0.00    +0.000 A 
ATOM     11  C   UNL     1       3.270   5.333  19.999  0.00  0.00    +0.000 A 
ATOM     12  C   UNL     1       2.525   4.681  20.987  0.00  0.00    +0.000 A 
ATOM     13  C   UNL     1       1.678   3.638  20.636  0.00  0.00    +0.000 A 
ATOM     14  F   UNL     1       0.970   3.025  21.595  0.00  0.00    +0.000 F 
ENDBRANCH   1  10
BRANCH   3  15
ATOM     15  C   UNL     1       6.831   6.740  17.284  0.00  0.00    +0.000 A 
ATOM     16  N   UNL     1       7.264   7.978  17.340  0.00  0.00    +0.000 NA
ATOM     17  C   UNL     1       8.160   7.922  18.383  0.00  0.00    +0.000 A 
ATOM     18  N   UNL     1       8.312   6.709  18.928  0.00  0.00    +0.000 NA
ATOM     19  O   UNL     1       7.427   5.918  18.197  0.00  0.00    +0.000 OA
BRANCH  17  20
ATOM     20  C   UNL     1       8.930   9.115  18.830  0.00  0.00    +0.000 C 
BRANCH  20  21
ATOM     21  O   UNL     1       8.651  10.254  18.006  0.00  0.00    +0.000 OA
BRANCH  21  22
ATOM     22  C   UNL     1       9.423  11.358  18.235  0.00  0.00    +0.000 A 
ATOM     23  C   UNL     1       9.202  12.623  17.679  0.00  0.00    +0.000 A 
ATOM     24  C   UNL     1      10.043  13.693  18.003  0.00  0.00    +0.000 A 
ATOM     25  C   UNL     1      11.101  13.501  18.887  0.00  0.00    +0.000 A 
ATOM     26  C   UNL     1      11.305  12.247  19.448  0.00  0.00    +0.000 A 
ATOM     27  F   UNL     1      12.320  12.065  20.303  0.00  0.00    +0.000 F 
ATOM     28  C   UNL     1      10.472  11.178  19.136  0.00  0.00    +0.000 A 
ENDBRANCH  21  22
ENDBRANCH  20  21
ENDBRANCH  17  20
ENDBRANCH   3  15
TORSDOF 5
ENDMDL
MODEL 5
REMARK VINA RESULT:      -8.8      1.240      1.453
REMARK  Name = 
REMARK  6 active torsions:
REMARK  status: ('A' for Active; 'I' for Inactive)
REMARK    1  A    between atoms: C_1  and  C_2
REMARK    2  A    between atoms: C_4  and  N_5
REMARK    3  A    between atoms: C_7  and  C_8
REMARK    4  A    between atoms: C_10  and  C_11
REMARK    5  A    between atoms: C_11  and  O_12
REMARK    6  A    between atoms: O_12  and  C_13
REMARK                            x       y       z     vdW  Elec       q    Type
REMARK                         _______ _______ _______ _____ _____    ______ ____
ROOT
ATOM      1  N   UNL     1       5.357   4.759  18.345  0.00  0.00    +0.000 N 
ATOM      2  C   UNL     1       6.599   4.777  19.085  0.00  0.00    +0.000 C 
ATOM      3  C   UNL     1       7.650   5.146  18.050  0.00  0.00    +0.000 C 
ATOM      4  C   UNL     1       7.095   4.550  16.766  0.00  0.00    +0.000 C 
ATOM      5  C   UNL     1       5.599   4.614  16.971  0.00  0.00    +0.000 C 
ATOM      6  O   UNL     1       4.803   4.478  16.056  0.00  0.00    +0.000 OA
ENDROOT
BRANCH   1  10
ATOM      7  C   UNL     1       1.804   2.501  21.013  0.00  0.00    +0.000 C 
ATOM      8  C   UNL     1       2.325   3.702  20.287  0.00  0.00    +0.000 A 
ATOM      9  C   UNL     1       3.582   3.677  19.660  0.00  0.00    +0.000 A 
ATOM     10  C   UNL     1       4.085   4.794  18.974  0.00  0.00    +0.000 A 
ATOM     11  C   UNL     1       3.286   5.948  18.920  0.00  0.00    +0.000 A 
ATOM     12  C   UNL     1       2.036   5.986  19.543  0.00  0.00    +0.000 A 
ATOM     13  C   UNL     1       1.567   4.868  20.219  0.00  0.00    +0.000 A 
ATOM     14  F   UNL     1       0.365   4.922  20.811  0.00  0.00    +0.000 F 
ENDBRANCH   1  10
BRANCH   3  15
ATOM     15  C   UNL     1       7.839   6.621  17.983  0.00  0.00    +0.000 A 
ATOM     16  N   UNL     1       8.440   7.403  18.849  0.00  0.00    +0.000 NA
ATOM     17  C   UNL     1       8.321   8.638  18.253  0.00  0.00    +0.000 A 
ATOM     18  N   UNL     1       7.650   8.639  17.094  0.00  0.00    +0.000 NA
ATOM     19  O   UNL     1       7.327   7.295  16.912  0.00  0.00    +0.000 OA
BRANCH  17  20
ATOM     20  C   UNL     1       8.860   9.876  18.880  0.00  0.00    +0.000 C 
BRANCH  20  21
ATOM     21  O   UNL     1       9.576  10.673  17.929  0.00  0.00    +0.000 OA
BRANCH  21  22
ATOM     22  C   UNL     1      10.407  11.623  18.453  0.00  0.00    +0.000 A 
ATOM     23  C   UNL     1      11.556  12.119  17.827  0.00  0.00    +0.000 A 
ATOM     24  C   UNL     1      12.322  13.112  18.445  0.00  0.00    +0.000 A 
ATOM     25  C   UNL     1      11.938  13.615  19.686  0.00  0.00    +0.000 A 
ATOM     26  C   UNL     1      10.787  13.129  20.294  0.00  0.00    +0.000 A 
ATOM     27  F   UNL     1      10.415  13.618  21.484  0.00  0.00    +0.000 F 
ATOM     28  C   UNL     1      10.016  12.145  19.685  0.00  0.00    +0.000 A 
ENDBRANCH  21  22
ENDBRANCH  20  21
ENDBRANCH  17  20
ENDBRANCH   3  15
TORSDOF 5
ENDMDL
MODEL 6
REMARK VINA RESULT:      -8.8      1.260      1.924
REMARK  Name = 
REMARK  6 active torsions:
REMARK  status: ('A' for Active; 'I' for Inactive)
REMARK    1  A    between atoms: C_1  and  C_2
REMARK    2  A    between atoms: C_4  and  N_5
REMARK    3  A    between atoms: C_7  and  C_8
REMARK    4  A    between atoms: C_10  and  C_11
REMARK    5  A    between atoms: C_11  and  O_12
REMARK    6  A    between atoms: O_12  and  C_13
REMARK                            x       y       z     vdW  Elec       q    Type
REMARK                         _______ _______ _______ _____ _____    ______ ____
ROOT
ATOM      1  N   UNL     1       5.427   4.646  18.438  0.00  0.00    +0.000 N 
ATOM      2  C   UNL     1       6.607   4.873  19.243  0.00  0.00    +0.000 C 
ATOM      3  C   UNL     1       7.684   5.243  18.236  0.00  0.00    +0.000 C 
ATOM      4  C   UNL     1       7.282   4.462  16.995  0.00  0.00    +0.000 C 
ATOM      5  C   UNL     1       5.778   4.386  17.105  0.00  0.00    +0.000 C 
ATOM      6  O   UNL     1       5.064   4.072  16.166  0.00  0.00    +0.000 OA
ENDROOT
BRANCH   1  10
ATOM      7  C   UNL     1       1.592   6.977  20.605  0.00  0.00    +0.000 C 
ATOM      8  C   UNL     1       2.219   5.736  20.049  0.00  0.00    +0.000 A 
ATOM      9  C   UNL     1       3.515   5.763  19.509  0.00  0.00    +0.000 A 
ATOM     10  C   UNL     1       4.117   4.609  18.984  0.00  0.00    +0.000 A 
ATOM     11  C   UNL     1       3.388   3.409  19.025  0.00  0.00    +0.000 A 
ATOM     12  C   UNL     1       2.096   3.371  19.556  0.00  0.00    +0.000 A 
ATOM     13  C   UNL     1       1.524   4.530  20.062  0.00  0.00    +0.000 A 
ATOM     14  F   UNL     1       0.284   4.475  20.569  0.00  0.00    +0.000 F 
ENDBRANCH   1  10
BRANCH   3  15
ATOM     15  C   UNL     1       7.729   6.715  18.018  0.00  0.00    +0.000 A 
ATOM     16  N   UNL     1       8.475   7.605  18.631  0.00  0.00    +0.000 NA
ATOM     17  C   UNL     1       8.101   8.773  18.006  0.00  0.00    +0.000 A 
ATOM     18  N   UNL     1       7.146   8.632  17.079  0.00  0.00    +0.000 NA
ATOM     19  O   UNL     1       6.895   7.261  17.085  0.00  0.00    +0.000 OA
BRANCH  17  20
ATOM     20  C   UNL     1       8.687  10.091  18.375  0.00  0.00    +0.000 C 
BRANCH  20  21
ATOM     21  O   UNL     1       9.301  10.044  19.668  0.00  0.00    +0.000 OA
BRANCH  21  22
ATOM     22  C   UNL     1       9.578  11.254  20.241  0.00  0.00    +0.000 A 
ATOM     23  C   UNL     1       8.984  11.747  21.408  0.00  0.00    +0.000 A 
ATOM     24  C   UNL     1       9.363  12.992  21.921  0.00  0.00    +0.000 A 
ATOM     25  C   UNL     1      10.339  13.743  21.271  0.00  0.00    +0.000 A 
ATOM     26  C   UNL     1      10.935  13.241  20.121  0.00  0.00    +0.000 A 
ATOM     27  F   UNL     1      11.878  13.962  19.500  0.00  0.00    +0.000 F 
ATOM     28  C   UNL     1      10.570  12.002  19.606  0.00  0.00    +0.000 A 
ENDBRANCH  21  22
ENDBRANCH  20  21
ENDBRANCH  17  20
ENDBRANCH   3  15
TORSDOF 5
ENDMDL
MODEL 7
REMARK VINA RESULT:      -8.7      1.790      2.166
REMARK  Name = 
REMARK  6 active torsions:
REMARK  status: ('A' for Active; 'I' for Inactive)
REMARK    1  A    between atoms: C_1  and  C_2
REMARK    2  A    between atoms: C_4  and  N_5
REMARK    3  A    between atoms: C_7  and  C_8
REMARK    4  A    between atoms: C_10  and  C_11
REMARK    5  A    between atoms: C_11  and  O_12
REMARK    6  A    between atoms: O_12  and  C_13
REMARK                            x       y       z     vdW  Elec       q    Type
REMARK                         _______ _______ _______ _____ _____    ______ ____
ROOT
ATOM      1  N   UNL     1       5.306   4.384  18.006  0.00  0.00    +0.000 N 
ATOM      2  C   UNL     1       6.477   4.594  18.827  0.00  0.00    +0.000 C 
ATOM      3  C   UNL     1       7.548   5.049  17.848  0.00  0.00    +0.000 C 
ATOM      4  C   UNL     1       7.169   4.330  16.563  0.00  0.00    +0.000 C 
ATOM      5  C   UNL     1       5.667   4.210  16.662  0.00  0.00    +0.000 C 
ATOM      6  O   UNL     1       4.964   3.932  15.703  0.00  0.00    +0.000 OA
ENDROOT
BRANCH   1  10
ATOM      7  C   UNL     1       2.259   3.037  21.713  0.00  0.00    +0.000 C 
ATOM      8  C   UNL     1       2.480   3.629  20.355  0.00  0.00    +0.000 A 
ATOM      9  C   UNL     1       3.772   3.732  19.815  0.00  0.00    +0.000 A 
ATOM     10  C   UNL     1       3.996   4.282  18.543  0.00  0.00    +0.000 A 
ATOM     11  C   UNL     1       2.881   4.723  17.810  0.00  0.00    +0.000 A 
ATOM     12  C   UNL     1       1.591   4.629  18.340  0.00  0.00    +0.000 A 
ATOM     13  C   UNL     1       1.401   4.085  19.603  0.00  0.00    +0.000 A 
ATOM     14  F   UNL     1       0.157   4.002  20.095  0.00  0.00    +0.000 F 
ENDBRANCH   1  10
BRANCH   3  15
ATOM     15  C   UNL     1       7.555   6.532  17.715  0.00  0.00    +0.000 A 
ATOM     16  N   UNL     1       8.362   7.394  18.288  0.00  0.00    +0.000 NA
ATOM     17  C   UNL     1       7.908   8.592  17.782  0.00  0.00    +0.000 A 
ATOM     18  N   UNL     1       6.850   8.492  16.967  0.00  0.00    +0.000 NA
ATOM     19  O   UNL     1       6.613   7.119  16.921  0.00  0.00    +0.000 OA
BRANCH  17  20
ATOM     20  C   UNL     1       8.523   9.894  18.158  0.00  0.00    +0.000 C 
BRANCH  20  21
ATOM     21  O   UNL     1       9.212   9.803  19.411  0.00  0.00    +0.000 OA
BRANCH  21  22
ATOM     22  C   UNL     1       9.656  10.984  19.935  0.00  0.00    +0.000 A 
ATOM     23  C   UNL     1      10.535  11.867  19.297  0.00  0.00    +0.000 A 
ATOM     24  C   UNL     1      10.905  13.065  19.916  0.00  0.00    +0.000 A 
ATOM     25  C   UNL     1      10.394  13.385  21.172  0.00  0.00    +0.000 A 
ATOM     26  C   UNL     1       9.510  12.511  21.792  0.00  0.00    +0.000 A 
ATOM     27  F   UNL     1       9.013  12.823  22.997  0.00  0.00    +0.000 F 
ATOM     28  C   UNL     1       9.132  11.320  21.182  0.00  0.00    +0.000 A 
ENDBRANCH  21  22
ENDBRANCH  20  21
ENDBRANCH  17  20
ENDBRANCH   3  15
TORSDOF 5
ENDMDL
MODEL 8
REMARK VINA RESULT:      -8.7      5.689      7.655
REMARK  Name = 
REMARK  6 active torsions:
REMARK  status: ('A' for Active; 'I' for Inactive)
REMARK    1  A    between atoms: C_1  and  C_2
REMARK    2  A    between atoms: C_4  and  N_5
REMARK    3  A    between atoms: C_7  and  C_8
REMARK    4  A    between atoms: C_10  and  C_11
REMARK    5  A    between atoms: C_11  and  O_12
REMARK    6  A    between atoms: O_12  and  C_13
REMARK                            x       y       z     vdW  Elec       q    Type
REMARK                         _______ _______ _______ _____ _____    ______ ____
ROOT
ATOM      1  N   UNL     1       2.951   5.070  19.158  0.00  0.00    +0.000 N 
ATOM      2  C   UNL     1       4.119   4.565  19.844  0.00  0.00    +0.000 C 
ATOM      3  C   UNL     1       4.607   3.423  18.967  0.00  0.00    +0.000 C 
ATOM      4  C   UNL     1       3.324   2.887  18.351  0.00  0.00    +0.000 C 
ATOM      5  C   UNL     1       2.439   4.109  18.275  0.00  0.00    +0.000 C 
ATOM      6  O   UNL     1       1.427   4.147  17.594  0.00  0.00    +0.000 OA
ENDROOT
BRANCH   1  10
ATOM      7  C   UNL     1       1.932   9.746  17.763  0.00  0.00    +0.000 C 
ATOM      8  C   UNL     1       1.868   8.642  18.773  0.00  0.00    +0.000 A 
ATOM      9  C   UNL     1       2.431   7.384  18.504  0.00  0.00    +0.000 A 
ATOM     10  C   UNL     1       2.381   6.340  19.440  0.00  0.00    +0.000 A 
ATOM     11  C   UNL     1       1.757   6.590  20.673  0.00  0.00    +0.000 A 
ATOM     12  C   UNL     1       1.189   7.837  20.951  0.00  0.00    +0.000 A 
ATOM     13  C   UNL     1       1.249   8.849  20.002  0.00  0.00    +0.000 A 
ATOM     14  F   UNL     1       0.700  10.039  20.286  0.00  0.00    +0.000 F 
ENDBRANCH   1  10
BRANCH   3  15
ATOM     15  C   UNL     1       5.590   3.906  17.958  0.00  0.00    +0.000 A 
ATOM     16  N   UNL     1       5.437   4.006  16.658  0.00  0.00    +0.000 NA
ATOM     17  C   UNL     1       6.651   4.521  16.265  0.00  0.00    +0.000 A 
ATOM     18  N   UNL     1       7.532   4.700  17.257  0.00  0.00    +0.000 NA
ATOM     19  O   UNL     1       6.827   4.290  18.387  0.00  0.00    +0.000 OA
BRANCH  17  20
ATOM     20  C   UNL     1       6.965   4.809  14.838  0.00  0.00    +0.000 C 
BRANCH  20  21
ATOM     21  O   UNL     1       5.770   4.915  14.054  0.00  0.00    +0.000 OA
BRANCH  21  22
ATOM     22  C   UNL     1       5.637   4.002  13.046  0.00  0.00    +0.000 A 
ATOM     23  C   UNL     1       4.433   3.674  12.413  0.00  0.00    +0.000 A 
ATOM     24  C   UNL     1       4.415   2.740  11.371  0.00  0.00    +0.000 A 
ATOM     25  C   UNL     1       5.600   2.138  10.958  0.00  0.00    +0.000 A 
ATOM     26  C   UNL     1       6.794   2.480  11.581  0.00  0.00    +0.000 A 
ATOM     27  F   UNL     1       7.935   1.906  11.178  0.00  0.00    +0.000 F 
ATOM     28  C   UNL     1       6.823   3.411  12.613  0.00  0.00    +0.000 A 
ENDBRANCH  21  22
ENDBRANCH  20  21
ENDBRANCH  17  20
ENDBRANCH   3  15
TORSDOF 5
ENDMDL
MODEL 9
REMARK VINA RESULT:      -8.7      1.394      1.566
REMARK  Name = 
REMARK  6 active torsions:
REMARK  status: ('A' for Active; 'I' for Inactive)
REMARK    1  A    between atoms: C_1  and  C_2
REMARK    2  A    between atoms: C_4  and  N_5
REMARK    3  A    between atoms: C_7  and  C_8
REMARK    4  A    between atoms: C_10  and  C_11
REMARK    5  A    between atoms: C_11  and  O_12
REMARK    6  A    between atoms: O_12  and  C_13
REMARK                            x       y       z     vdW  Elec       q    Type
REMARK                         _______ _______ _______ _____ _____    ______ ____
ROOT
ATOM      1  N   UNL     1       5.465   4.822  18.609  0.00  0.00    +0.000 N 
ATOM      2  C   UNL     1       6.659   5.031  19.397  0.00  0.00    +0.000 C 
ATOM      3  C   UNL     1       7.739   5.341  18.373  0.00  0.00    +0.000 C 
ATOM      4  C   UNL     1       7.300   4.543  17.155  0.00  0.00    +0.000 C 
ATOM      5  C   UNL     1       5.795   4.518  17.280  0.00  0.00    +0.000 C 
ATOM      6  O   UNL     1       5.063   4.204  16.355  0.00  0.00    +0.000 OA
ENDROOT
BRANCH   1  10
ATOM      7  C   UNL     1       1.865   2.586  21.232  0.00  0.00    +0.000 C 
ATOM      8  C   UNL     1       2.377   3.760  20.455  0.00  0.00    +0.000 A 
ATOM      9  C   UNL     1       3.665   3.750  19.898  0.00  0.00    +0.000 A 
ATOM     10  C   UNL     1       4.160   4.841  19.166  0.00  0.00    +0.000 A 
ATOM     11  C   UNL     1       3.319   5.952  18.993  0.00  0.00    +0.000 A 
ATOM     12  C   UNL     1       2.036   5.976  19.547  0.00  0.00    +0.000 A 
ATOM     13  C   UNL     1       1.576   4.884  20.271  0.00  0.00    +0.000 A 
ATOM     14  F   UNL     1       0.343   4.923  20.793  0.00  0.00    +0.000 F 
ENDBRANCH   1  10
BRANCH   3  15
ATOM     15  C   UNL     1       7.828   6.805  18.118  0.00  0.00    +0.000 A 
ATOM     16  N   UNL     1       8.560   7.695  18.747  0.00  0.00    +0.000 NA
ATOM     17  C   UNL     1       8.247   8.853  18.071  0.00  0.00    +0.000 A 
ATOM     18  N   UNL     1       7.342   8.706  17.096  0.00  0.00    +0.000 NA
ATOM     19  O   UNL     1       7.060   7.341  17.125  0.00  0.00    +0.000 OA
BRANCH  17  20
ATOM     20  C   UNL     1       8.842  10.168  18.436  0.00  0.00    +0.000 C 
BRANCH  20  21
ATOM     21  O   UNL     1       9.165  10.225  19.830  0.00  0.00    +0.000 OA
BRANCH  21  22
ATOM     22  C   UNL     1       9.514  11.455  20.312  0.00  0.00    +0.000 A 
ATOM     23  C   UNL     1       9.059  12.007  21.515  0.00  0.00    +0.000 A 
ATOM     24  C   UNL     1       9.503  13.268  21.924  0.00  0.00    +0.000 A 
ATOM     25  C   UNL     1      10.405  13.978  21.136  0.00  0.00    +0.000 A 
ATOM     26  C   UNL     1      10.864  13.417  19.950  0.00  0.00    +0.000 A 
ATOM     27  F   UNL     1      11.737  14.098  19.196  0.00  0.00    +0.000 F 
ATOM     28  C   UNL     1      10.434  12.162  19.537  0.00  0.00    +0.000 A 
ENDBRANCH  21  22
ENDBRANCH  20  21
ENDBRANCH  17  20
ENDBRANCH   3  15
TORSDOF 5
ENDMDL
