MODEL 1
REMARK VINA RESULT:      -8.7      0.000      0.000
REMARK  Name = 
REMARK  5 active torsions:
REMARK  status: ('A' for Active; 'I' for Inactive)
REMARK    1  A    between atoms: C_2  and  C_15
REMARK    2  A    between atoms: N_3  and  C_4
REMARK    3  A    between atoms: C_4  and  C_5
REMARK    4  A    between atoms: C_5  and  C_6
REMARK    5  A    between atoms: C_17  and  C_18
REMARK                            x       y       z     vdW  Elec       q    Type
REMARK                         _______ _______ _______ _____ _____    ______ ____
ROOT
ATOM      1  O   UNL     1       7.803   6.016  19.307  0.00  0.00    +0.000 OA
ATOM      2  C   UNL     1       7.351   6.403  18.238  0.00  0.00    +0.000 C 
ATOM      3  N   UNL     1       7.692   7.627  17.688  0.00  0.00    +0.000 N 
ATOM      4  H   UNL     1       7.144   7.996  16.921  0.00  0.00    +0.000 HD
ENDROOT
BRANCH   2   5
ATOM      5  C   UNL     1       6.403   5.566  17.438  0.00  0.00    +0.000 A 
ATOM      6  C   UNL     1       6.862   5.072  16.213  0.00  0.00    +0.000 A 
ATOM      7  C   UNL     1       6.044   4.271  15.434  0.00  0.00    +0.000 A 
ATOM      8  N   UNL     1       4.798   3.950  15.849  0.00  0.00    +0.000 NA
ATOM      9  C   UNL     1       4.350   4.391  17.042  0.00  0.00    +0.000 A 
ATOM     10  C   UNL     1       3.078   4.002  17.441  0.00  0.00    +0.000 A 
ATOM     11  C   UNL     1       2.525   4.393  18.664  0.00  0.00    +0.000 A 
ATOM     12  C   UNL     1       3.260   5.203  19.515  0.00  0.00    +0.000 A 
ATOM     13  C   UNL     1       4.536   5.616  19.135  0.00  0.00    +0.000 A 
ATOM     14  C   UNL     1       5.112   5.212  17.898  0.00  0.00    +0.000 A 
BRANCH   7  15
ATOM     15  C   UNL     1       6.571   3.705  14.135  0.00  0.00    +0.000 C 
ATOM     16  C   UNL     1       6.822   4.638  12.967  0.00  0.00    +0.000 C 
ATOM     17  C   UNL     1       5.715   3.631  12.895  0.00  0.00    +0.000 C 
ENDBRANCH   7  15
ENDBRANCH   2   5
BRANCH   3  18
ATOM     18  C   UNL     1       8.594   8.526  18.389  0.00  0.00    +0.000 C 
BRANCH  18  19
ATOM     19  C   UNL     1       8.208   9.992  18.196  0.00  0.00    +0.000 C 
BRANCH  19  20
ATOM     20  C   UNL     1       9.306  10.933  18.622  0.00  0.00    +0.000 A 
ATOM     21  C   UNL     1       9.766  10.934  19.959  0.00  0.00    +0.000 A 
ATOM     22  C   UNL     1      10.771  11.814  20.374  0.00  0.00    +0.000 A 
ATOM     23  C   UNL     1      11.286  12.686  19.440  0.00  0.00    +0.000 A 
ATOM     24  C   UNL     1      10.843  12.695  18.139  0.00  0.00    +0.000 A 
ATOM     25  C   UNL     1       9.860  11.834  17.698  0.00  0.00    +0.000 A 
ATOM     26  O   UNL     1      11.475  13.633  17.383  0.00  0.00    +0.000 OA
ATOM     27  C   UNL     1      12.328  14.246  18.371  0.00  0.00    +0.000 C 
ATOM     28  O   UNL     1      12.253  13.615  19.667  0.00  0.00    +0.000 OA
ENDBRANCH  19  20
ENDBRANCH  18  19
ENDBRANCH   3  18
TORSDOF 5
ENDMDL
MODEL 2
REMARK VINA RESULT:      -8.7      5.832      7.922
REMARK  Name = 
REMARK  5 active torsions:
REMARK  status: ('A' for Active; 'I' for Inactive)
REMARK    1  A    between atoms: C_2  and  C_15
REMARK    2  A    between atoms: N_3  and  C_4
REMARK    3  A    between atoms: C_4  and  C_5
REMARK    4  A    between atoms: C_5  and  C_6
REMARK    5  A    between atoms: C_17  and  C_18
REMARK                            x       y       z     vdW  Elec       q    Type
REMARK                         _______ _______ _______ _____ _____    ______ ____
ROOT
ATOM      1  O   UNL     1       2.260   8.710  17.267  0.00  0.00    +0.000 OA
ATOM      2  C   UNL     1       2.575   7.896  18.125  0.00  0.00    +0.000 C 
ATOM      3  N   UNL     1       2.068   7.943  19.413  0.00  0.00    +0.000 N 
ATOM      4  H   UNL     1       2.506   7.390  20.138  0.00  0.00    +0.000 HD
ENDROOT
BRANCH   2   5
ATOM      5  C   UNL     1       3.523   6.776  17.834  0.00  0.00    +0.000 A 
ATOM      6  C   UNL     1       4.873   7.105  17.675  0.00  0.00    +0.000 A 
ATOM      7  C   UNL     1       5.807   6.113  17.427  0.00  0.00    +0.000 A 
ATOM      8  N   UNL     1       5.430   4.817  17.346  0.00  0.00    +0.000 NA
ATOM      9  C   UNL     1       4.138   4.477  17.529  0.00  0.00    +0.000 A 
ATOM     10  C   UNL     1       3.807   3.131  17.473  0.00  0.00    +0.000 A 
ATOM     11  C   UNL     1       2.500   2.672  17.663  0.00  0.00    +0.000 A 
ATOM     12  C   UNL     1       1.488   3.586  17.910  0.00  0.00    +0.000 A 
ATOM     13  C   UNL     1       1.791   4.946  17.961  0.00  0.00    +0.000 A 
ATOM     14  C   UNL     1       3.120   5.420  17.782  0.00  0.00    +0.000 A 
BRANCH   7  15
ATOM     15  C   UNL     1       7.269   6.478  17.304  0.00  0.00    +0.000 C 
ATOM     16  C   UNL     1       8.059   6.808  18.555  0.00  0.00    +0.000 C 
ATOM     17  C   UNL     1       7.762   7.882  17.554  0.00  0.00    +0.000 C 
ENDBRANCH   7  15
ENDBRANCH   2   5
BRANCH   3  18
ATOM     18  C   UNL     1       1.149   8.998  19.806  0.00  0.00    +0.000 C 
BRANCH  18  19
ATOM     19  C   UNL     1       0.781   8.916  21.287  0.00  0.00    +0.000 C 
BRANCH  19  20
ATOM     20  C   UNL     1       0.135  10.183  21.787  0.00  0.00    +0.000 A 
ATOM     21  C   UNL     1      -0.812  10.136  22.835  0.00  0.00    +0.000 A 
ATOM     22  C   UNL     1      -1.433  11.301  23.298  0.00  0.00    +0.000 A 
ATOM     23  C   UNL     1      -1.099  12.491  22.689  0.00  0.00    +0.000 A 
ATOM     24  C   UNL     1      -0.182  12.547  21.668  0.00  0.00    +0.000 A 
ATOM     25  C   UNL     1       0.453  11.417  21.196  0.00  0.00    +0.000 A 
ATOM     26  O   UNL     1       0.000  13.812  21.203  0.00  0.00    +0.000 OA
ATOM     27  C   UNL     1      -0.947  14.537  22.015  0.00  0.00    +0.000 C 
ATOM     28  O   UNL     1      -1.609  13.713  22.998  0.00  0.00    +0.000 OA
ENDBRANCH  19  20
ENDBRANCH  18  19
ENDBRANCH   3  18
TORSDOF 5
ENDMDL
MODEL 3
REMARK VINA RESULT:      -8.7      6.044      7.645
REMARK  Name = 
REMARK  5 active torsions:
REMARK  status: ('A' for Active; 'I' for Inactive)
REMARK    1  A    between atoms: C_2  and  C_15
REMARK    2  A    between atoms: N_3  and  C_4
REMARK    3  A    between atoms: C_4  and  C_5
REMARK    4  A    between atoms: C_5  and  C_6
REMARK    5  A    between atoms: C_17  and  C_18
REMARK                            x       y       z     vdW  Elec       q    Type
REMARK                         _______ _______ _______ _____ _____    ______ ____
ROOT
ATOM      1  O   UNL     1       2.601   7.523  19.944  0.00  0.00    +0.000 OA
ATOM      2  C   UNL     1       2.565   7.191  18.766  0.00  0.00    +0.000 C 
ATOM      3  N   UNL     1       2.227   8.075  17.756  0.00  0.00    +0.000 N 
ATOM      4  H   UNL     1       2.007   7.716  16.836  0.00  0.00    +0.000 HD
ENDROOT
BRANCH   2   5
ATOM      5  C   UNL     1       2.905   5.800  18.333  0.00  0.00    +0.000 A 
ATOM      6  C   UNL     1       3.836   5.660  17.300  0.00  0.00    +0.000 A 
ATOM      7  C   UNL     1       4.212   4.399  16.867  0.00  0.00    +0.000 A 
ATOM      8  N   UNL     1       3.693   3.291  17.441  0.00  0.00    +0.000 NA
ATOM      9  C   UNL     1       2.816   3.406  18.460  0.00  0.00    +0.000 A 
ATOM     10  C   UNL     1       2.341   2.239  19.041  0.00  0.00    +0.000 A 
ATOM     11  C   UNL     1       1.441   2.248  20.111  0.00  0.00    +0.000 A 
ATOM     12  C   UNL     1       0.996   3.460  20.615  0.00  0.00    +0.000 A 
ATOM     13  C   UNL     1       1.450   4.647  20.043  0.00  0.00    +0.000 A 
ATOM     14  C   UNL     1       2.376   4.648  18.963  0.00  0.00    +0.000 A 
BRANCH   7  15
ATOM     15  C   UNL     1       5.256   4.262  15.782  0.00  0.00    +0.000 C 
ATOM     16  C   UNL     1       6.724   4.311  16.155  0.00  0.00    +0.000 C 
ATOM     17  C   UNL     1       6.119   5.425  15.359  0.00  0.00    +0.000 C 
ENDBRANCH   7  15
ENDBRANCH   2   5
BRANCH   3  18
ATOM     18  C   UNL     1       1.865   9.449  18.068  0.00  0.00    +0.000 C 
BRANCH  18  19
ATOM     19  C   UNL     1       0.361   9.612  18.278  0.00  0.00    +0.000 C 
BRANCH  19  20
ATOM     20  C   UNL     1       0.030  10.139  19.652  0.00  0.00    +0.000 A 
ATOM     21  C   UNL     1      -0.054   9.257  20.753  0.00  0.00    +0.000 A 
ATOM     22  C   UNL     1      -0.378   9.729  22.031  0.00  0.00    +0.000 A 
ATOM     23  C   UNL     1      -0.624  11.076  22.173  0.00  0.00    +0.000 A 
ATOM     24  C   UNL     1      -0.549  11.942  21.107  0.00  0.00    +0.000 A 
ATOM     25  C   UNL     1      -0.224  11.508  19.839  0.00  0.00    +0.000 A 
ATOM     26  O   UNL     1      -0.833  13.224  21.459  0.00  0.00    +0.000 OA
ATOM     27  C   UNL     1      -1.147  13.057  22.858  0.00  0.00    +0.000 C 
ATOM     28  O   UNL     1      -0.964  11.706  23.330  0.00  0.00    +0.000 OA
ENDBRANCH  19  20
ENDBRANCH  18  19
ENDBRANCH   3  18
TORSDOF 5
ENDMDL
MODEL 4
REMARK VINA RESULT:      -8.6      6.051      7.884
REMARK  Name = 
REMARK  5 active torsions:
REMARK  status: ('A' for Active; 'I' for Inactive)
REMARK    1  A    between atoms: C_2  and  C_15
REMARK    2  A    between atoms: N_3  and  C_4
REMARK    3  A    between atoms: C_4  and  C_5
REMARK    4  A    between atoms: C_5  and  C_6
REMARK    5  A    between atoms: C_17  and  C_18
REMARK                            x       y       z     vdW  Elec       q    Type
REMARK                         _______ _______ _______ _____ _____    ______ ____
ROOT
ATOM      1  O   UNL     1       2.169   7.396  20.042  0.00  0.00    +0.000 OA
ATOM      2  C   UNL     1       2.422   7.114  18.878  0.00  0.00    +0.000 C 
ATOM      3  N   UNL     1       2.349   8.046  17.857  0.00  0.00    +0.000 N 
ATOM      4  H   UNL     1       2.360   7.731  16.896  0.00  0.00    +0.000 HD
ENDROOT
BRANCH   2   5
ATOM      5  C   UNL     1       2.846   5.736  18.478  0.00  0.00    +0.000 A 
ATOM      6  C   UNL     1       3.780   5.628  17.444  0.00  0.00    +0.000 A 
ATOM      7  C   UNL     1       4.233   4.383  17.041  0.00  0.00    +0.000 A 
ATOM      8  N   UNL     1       3.787   3.259  17.647  0.00  0.00    +0.000 NA
ATOM      9  C   UNL     1       2.909   3.345  18.667  0.00  0.00    +0.000 A 
ATOM     10  C   UNL     1       2.511   2.166  19.281  0.00  0.00    +0.000 A 
ATOM     11  C   UNL     1       1.617   2.147  20.356  0.00  0.00    +0.000 A 
ATOM     12  C   UNL     1       1.099   3.341  20.831  0.00  0.00    +0.000 A 
ATOM     13  C   UNL     1       1.475   4.539  20.226  0.00  0.00    +0.000 A 
ATOM     14  C   UNL     1       2.394   4.570  19.141  0.00  0.00    +0.000 A 
BRANCH   7  15
ATOM     15  C   UNL     1       5.279   4.284  15.953  0.00  0.00    +0.000 C 
ATOM     16  C   UNL     1       6.654   4.875  16.191  0.00  0.00    +0.000 C 
ATOM     17  C   UNL     1       5.738   5.495  15.181  0.00  0.00    +0.000 C 
ENDBRANCH   7  15
ENDBRANCH   2   5
BRANCH   3  18
ATOM     18  C   UNL     1       1.933   9.412  18.132  0.00  0.00    +0.000 C 
BRANCH  18  19
ATOM     19  C   UNL     1       0.456   9.637  17.812  0.00  0.00    +0.000 C 
BRANCH  19  20
ATOM     20  C   UNL     1      -0.245  10.439  18.880  0.00  0.00    +0.000 A 
ATOM     21  C   UNL     1      -1.308  11.305  18.538  0.00  0.00    +0.000 A 
ATOM     22  C   UNL     1      -1.957  12.069  19.515  0.00  0.00    +0.000 A 
ATOM     23  C   UNL     1      -1.514  11.957  20.815  0.00  0.00    +0.000 A 
ATOM     24  C   UNL     1      -0.479  11.120  21.156  0.00  0.00    +0.000 A 
ATOM     25  C   UNL     1       0.174  10.349  20.217  0.00  0.00    +0.000 A 
ATOM     26  O   UNL     1      -0.195  11.161  22.486  0.00  0.00    +0.000 OA
ATOM     27  C   UNL     1      -1.137  12.159  22.932  0.00  0.00    +0.000 C 
ATOM     28  O   UNL     1      -2.013  12.629  21.886  0.00  0.00    +0.000 OA
ENDBRANCH  19  20
ENDBRANCH  18  19
ENDBRANCH   3  18
TORSDOF 5
ENDMDL
MODEL 5
REMARK VINA RESULT:      -8.6      6.065      8.569
REMARK  Name = 
REMARK  5 active torsions:
REMARK  status: ('A' for Active; 'I' for Inactive)
REMARK    1  A    between atoms: C_2  and  C_15
REMARK    2  A    between atoms: N_3  and  C_4
REMARK    3  A    between atoms: C_4  and  C_5
REMARK    4  A    between atoms: C_5  and  C_6
REMARK    5  A    between atoms: C_17  and  C_18
REMARK                            x       y       z     vdW  Elec       q    Type
REMARK                         _______ _______ _______ _____ _____    ______ ____
ROOT
ATOM      1  O   UNL     1       2.696   7.598  19.955  0.00  0.00    +0.000 OA
ATOM      2  C   UNL     1       2.585   7.227  18.794  0.00  0.00    +0.000 C 
ATOM      3  N   UNL     1       2.161   8.072  17.783  0.00  0.00    +0.000 N 
ATOM      4  H   UNL     1       1.885   7.680  16.892  0.00  0.00    +0.000 HD
ENDROOT
BRANCH   2   5
ATOM      5  C   UNL     1       2.918   5.828  18.383  0.00  0.00    +0.000 A 
ATOM      6  C   UNL     1       3.836   5.668  17.341  0.00  0.00    +0.000 A 
ATOM      7  C   UNL     1       4.207   4.399  16.927  0.00  0.00    +0.000 A 
ATOM      8  N   UNL     1       3.695   3.302  17.528  0.00  0.00    +0.000 NA
ATOM      9  C   UNL     1       2.832   3.436  18.555  0.00  0.00    +0.000 A 
ATOM     10  C   UNL     1       2.363   2.280  19.164  0.00  0.00    +0.000 A 
ATOM     11  C   UNL     1       1.478   2.310  20.246  0.00  0.00    +0.000 A 
ATOM     12  C   UNL     1       1.039   3.531  20.732  0.00  0.00    +0.000 A 
ATOM     13  C   UNL     1       1.486   4.708  20.133  0.00  0.00    +0.000 A 
ATOM     14  C   UNL     1       2.398   4.687  19.041  0.00  0.00    +0.000 A 
BRANCH   7  15
ATOM     15  C   UNL     1       5.237   4.242  15.830  0.00  0.00    +0.000 C 
ATOM     16  C   UNL     1       6.690   4.552  16.129  0.00  0.00    +0.000 C 
ATOM     17  C   UNL     1       5.914   5.434  15.200  0.00  0.00    +0.000 C 
ENDBRANCH   7  15
ENDBRANCH   2   5
BRANCH   3  18
ATOM     18  C   UNL     1       1.798   9.449  18.075  0.00  0.00    +0.000 C 
BRANCH  18  19
ATOM     19  C   UNL     1       0.696   9.539  19.131  0.00  0.00    +0.000 C 
BRANCH  19  20
ATOM     20  C   UNL     1      -0.565  10.165  18.590  0.00  0.00    +0.000 A 
ATOM     21  C   UNL     1      -1.262  11.133  19.347  0.00  0.00    +0.000 A 
ATOM     22  C   UNL     1      -2.443  11.710  18.866  0.00  0.00    +0.000 A 
ATOM     23  C   UNL     1      -2.907  11.291  17.639  0.00  0.00    +0.000 A 
ATOM     24  C   UNL     1      -2.238  10.348  16.896  0.00  0.00    +0.000 A 
ATOM     25  C   UNL     1      -1.068   9.768  17.340  0.00  0.00    +0.000 A 
ATOM     26  O   UNL     1      -2.865  10.072  15.722  0.00  0.00    +0.000 OA
ATOM     27  C   UNL     1      -4.032  10.913  15.835  0.00  0.00    +0.000 C 
ATOM     28  O   UNL     1      -4.038  11.729  17.024  0.00  0.00    +0.000 OA
ENDBRANCH  19  20
ENDBRANCH  18  19
ENDBRANCH   3  18
TORSDOF 5
ENDMDL
MODEL 6
REMARK VINA RESULT:      -8.6      5.777      8.028
REMARK  Name = 
REMARK  5 active torsions:
REMARK  status: ('A' for Active; 'I' for Inactive)
REMARK    1  A    between atoms: C_2  and  C_15
REMARK    2  A    between atoms: N_3  and  C_4
REMARK    3  A    between atoms: C_4  and  C_5
REMARK    4  A    between atoms: C_5  and  C_6
REMARK    5  A    between atoms: C_17  and  C_18
REMARK                            x       y       z     vdW  Elec       q    Type
REMARK                         _______ _______ _______ _____ _____    ______ ____
ROOT
ATOM      1  O   UNL     1       2.202   7.754  17.784  0.00  0.00    +0.000 OA
ATOM      2  C   UNL     1       2.540   7.096  18.759  0.00  0.00    +0.000 C 
ATOM      3  N   UNL     1       2.146   7.420  20.045  0.00  0.00    +0.000 N 
ATOM      4  H   UNL     1       2.610   6.983  20.831  0.00  0.00    +0.000 HD
ENDROOT
BRANCH   2   5
ATOM      5  C   UNL     1       3.396   5.876  18.623  0.00  0.00    +0.000 A 
ATOM      6  C   UNL     1       4.766   6.073  18.433  0.00  0.00    +0.000 A 
ATOM      7  C   UNL     1       5.618   4.986  18.324  0.00  0.00    +0.000 A 
ATOM      8  N   UNL     1       5.138   3.725  18.407  0.00  0.00    +0.000 NA
ATOM      9  C   UNL     1       3.824   3.515  18.621  0.00  0.00    +0.000 A 
ATOM     10  C   UNL     1       3.386   2.203  18.738  0.00  0.00    +0.000 A 
ATOM     11  C   UNL     1       2.047   1.879  18.974  0.00  0.00    +0.000 A 
ATOM     12  C   UNL     1       1.112   2.894  19.092  0.00  0.00    +0.000 A 
ATOM     13  C   UNL     1       1.522   4.221  18.970  0.00  0.00    +0.000 A 
ATOM     14  C   UNL     1       2.885   4.561  18.743  0.00  0.00    +0.000 A 
BRANCH   7  15
ATOM     15  C   UNL     1       7.105   5.215  18.166  0.00  0.00    +0.000 C 
ATOM     16  C   UNL     1       7.912   5.687  19.359  0.00  0.00    +0.000 C 
ATOM     17  C   UNL     1       7.702   6.600  18.190  0.00  0.00    +0.000 C 
ENDBRANCH   7  15
ENDBRANCH   2   5
BRANCH   3  18
ATOM     18  C   UNL     1       1.324   8.594  20.292  0.00  0.00    +0.000 C 
BRANCH  18  19
ATOM     19  C   UNL     1       1.134   8.857  21.785  0.00  0.00    +0.000 C 
BRANCH  19  20
ATOM     20  C   UNL     1       0.289  10.078  22.047  0.00  0.00    +0.000 A 
ATOM     21  C   UNL     1      -0.712  10.052  23.045  0.00  0.00    +0.000 A 
ATOM     22  C   UNL     1      -1.517  11.172  23.288  0.00  0.00    +0.000 A 
ATOM     23  C   UNL     1      -1.307  12.291  22.513  0.00  0.00    +0.000 A 
ATOM     24  C   UNL     1      -0.338  12.326  21.539  0.00  0.00    +0.000 A 
ATOM     25  C   UNL     1       0.475  11.241  21.282  0.00  0.00    +0.000 A 
ATOM     26  O   UNL     1      -0.299  13.519  20.888  0.00  0.00    +0.000 OA
ATOM     27  C   UNL     1      -1.390  14.212  21.530  0.00  0.00    +0.000 C 
ATOM     28  O   UNL     1      -1.998  13.459  22.600  0.00  0.00    +0.000 OA
ENDBRANCH  19  20
ENDBRANCH  18  19
ENDBRANCH   3  18
TORSDOF 5
ENDMDL
MODEL 7
REMARK VINA RESULT:      -8.5      6.136      7.997
REMARK  Name = 
REMARK  5 active torsions:
REMARK  status: ('A' for Active; 'I' for Inactive)
REMARK    1  A    between atoms: C_2  and  C_15
REMARK    2  A    between atoms: N_3  and  C_4
REMARK    3  A    between atoms: C_4  and  C_5
REMARK    4  A    between atoms: C_5  and  C_6
REMARK    5  A    between atoms: C_17  and  C_18
REMARK                            x       y       z     vdW  Elec       q    Type
REMARK                         _______ _______ _______ _____ _____    ______ ____
ROOT
ATOM      1  O   UNL     1       2.317   7.328  19.832  0.00  0.00    +0.000 OA
ATOM      2  C   UNL     1       2.570   7.153  18.647  0.00  0.00    +0.000 C 
ATOM      3  N   UNL     1       2.436   8.157  17.704  0.00  0.00    +0.000 N 
ATOM      4  H   UNL     1       2.452   7.918  16.721  0.00  0.00    +0.000 HD
ENDROOT
BRANCH   2   5
ATOM      5  C   UNL     1       3.063   5.835  18.137  0.00  0.00    +0.000 A 
ATOM      6  C   UNL     1       4.185   5.850  17.304  0.00  0.00    +0.000 A 
ATOM      7  C   UNL     1       4.706   4.663  16.816  0.00  0.00    +0.000 A 
ATOM      8  N   UNL     1       4.145   3.478  17.146  0.00  0.00    +0.000 NA
ATOM      9  C   UNL     1       3.081   3.442  17.974  0.00  0.00    +0.000 A 
ATOM     10  C   UNL     1       2.565   2.199  18.312  0.00  0.00    +0.000 A 
ATOM     11  C   UNL     1       1.474   2.051  19.173  0.00  0.00    +0.000 A 
ATOM     12  C   UNL     1       0.874   3.178  19.711  0.00  0.00    +0.000 A 
ATOM     13  C   UNL     1       1.366   4.440  19.379  0.00  0.00    +0.000 A 
ATOM     14  C   UNL     1       2.484   4.599  18.514  0.00  0.00    +0.000 A 
BRANCH   7  15
ATOM     15  C   UNL     1       5.949   4.691  15.954  0.00  0.00    +0.000 C 
ATOM     16  C   UNL     1       5.839   5.137  14.510  0.00  0.00    +0.000 C 
ATOM     17  C   UNL     1       6.157   3.709  14.829  0.00  0.00    +0.000 C 
ENDBRANCH   7  15
ENDBRANCH   2   5
BRANCH   3  18
ATOM     18  C   UNL     1       1.951   9.472  18.089  0.00  0.00    +0.000 C 
BRANCH  18  19
ATOM     19  C   UNL     1       0.447   9.618  17.861  0.00  0.00    +0.000 C 
BRANCH  19  20
ATOM     20  C   UNL     1      -0.216  10.445  18.933  0.00  0.00    +0.000 A 
ATOM     21  C   UNL     1       0.389  10.585  20.203  0.00  0.00    +0.000 A 
ATOM     22  C   UNL     1      -0.223  11.335  21.214  0.00  0.00    +0.000 A 
ATOM     23  C   UNL     1      -1.439  11.918  20.933  0.00  0.00    +0.000 A 
ATOM     24  C   UNL     1      -2.037  11.785  19.703  0.00  0.00    +0.000 A 
ATOM     25  C   UNL     1      -1.454  11.060  18.684  0.00  0.00    +0.000 A 
ATOM     26  O   UNL     1      -3.232  12.431  19.634  0.00  0.00    +0.000 OA
ATOM     27  C   UNL     1      -3.339  12.942  20.979  0.00  0.00    +0.000 C 
ATOM     28  O   UNL     1      -2.180  12.666  21.793  0.00  0.00    +0.000 OA
ENDBRANCH  19  20
ENDBRANCH  18  19
ENDBRANCH   3  18
TORSDOF 5
ENDMDL
MODEL 8
REMARK VINA RESULT:      -8.5      5.992      8.748
REMARK  Name = 
REMARK  5 active torsions:
REMARK  status: ('A' for Active; 'I' for Inactive)
REMARK    1  A    between atoms: C_2  and  C_15
REMARK    2  A    between atoms: N_3  and  C_4
REMARK    3  A    between atoms: C_4  and  C_5
REMARK    4  A    between atoms: C_5  and  C_6
REMARK    5  A    between atoms: C_17  and  C_18
REMARK                            x       y       z     vdW  Elec       q    Type
REMARK                         _______ _______ _______ _____ _____    ______ ____
ROOT
ATOM      1  O   UNL     1       1.956   6.849  20.539  0.00  0.00    +0.000 OA
ATOM      2  C   UNL     1       2.301   6.921  19.367  0.00  0.00    +0.000 C 
ATOM      3  N   UNL     1       2.083   8.052  18.598  0.00  0.00    +0.000 N 
ATOM      4  H   UNL     1       2.190   7.997  17.594  0.00  0.00    +0.000 HD
ENDROOT
BRANCH   2   5
ATOM      5  C   UNL     1       3.003   5.790  18.684  0.00  0.00    +0.000 A 
ATOM      6  C   UNL     1       4.240   6.067  18.095  0.00  0.00    +0.000 A 
ATOM      7  C   UNL     1       4.954   5.060  17.467  0.00  0.00    +0.000 A 
ATOM      8  N   UNL     1       4.471   3.798  17.424  0.00  0.00    +0.000 NA
ATOM      9  C   UNL     1       3.294   3.505  18.015  0.00  0.00    +0.000 A 
ATOM     10  C   UNL     1       2.859   2.188  17.976  0.00  0.00    +0.000 A 
ATOM     11  C   UNL     1       1.662   1.777  18.569  0.00  0.00    +0.000 A 
ATOM     12  C   UNL     1       0.869   2.710  19.217  0.00  0.00    +0.000 A 
ATOM     13  C   UNL     1       1.277   4.043  19.262  0.00  0.00    +0.000 A 
ATOM     14  C   UNL     1       2.500   4.467  18.673  0.00  0.00    +0.000 A 
BRANCH   7  15
ATOM     15  C   UNL     1       6.312   5.363  16.876  0.00  0.00    +0.000 C 
ATOM     16  C   UNL     1       7.553   4.808  17.546  0.00  0.00    +0.000 C 
ATOM     17  C   UNL     1       7.291   6.283  17.563  0.00  0.00    +0.000 C 
ENDBRANCH   7  15
ENDBRANCH   2   5
BRANCH   3  18
ATOM     18  C   UNL     1       1.395   9.204  19.159  0.00  0.00    +0.000 C 
BRANCH  18  19
ATOM     19  C   UNL     1       0.919  10.171  18.075  0.00  0.00    +0.000 C 
BRANCH  19  20
ATOM     20  C   UNL     1      -0.547  10.499  18.205  0.00  0.00    +0.000 A 
ATOM     21  C   UNL     1      -1.492   9.891  17.349  0.00  0.00    +0.000 A 
ATOM     22  C   UNL     1      -2.855  10.198  17.445  0.00  0.00    +0.000 A 
ATOM     23  C   UNL     1      -3.237  11.121  18.393  0.00  0.00    +0.000 A 
ATOM     24  C   UNL     1      -2.325  11.721  19.228  0.00  0.00    +0.000 A 
ATOM     25  C   UNL     1      -0.978  11.432  19.163  0.00  0.00    +0.000 A 
ATOM     26  O   UNL     1      -2.907  12.603  20.084  0.00  0.00    +0.000 OA
ATOM     27  C   UNL     1      -4.283  12.527  19.656  0.00  0.00    +0.000 C 
ATOM     28  O   UNL     1      -4.508  11.549  18.619  0.00  0.00    +0.000 OA
ENDBRANCH  19  20
ENDBRANCH  18  19
ENDBRANCH   3  18
TORSDOF 5
ENDMDL
MODEL 9
REMARK VINA RESULT:      -8.5      6.073      8.000
REMARK  Name = 
REMARK  5 active torsions:
REMARK  status: ('A' for Active; 'I' for Inactive)
REMARK    1  A    between atoms: C_2  and  C_15
REMARK    2  A    between atoms: N_3  and  C_4
REMARK    3  A    between atoms: C_4  and  C_5
REMARK    4  A    between atoms: C_5  and  C_6
REMARK    5  A    between atoms: C_17  and  C_18
REMARK                            x       y       z     vdW  Elec       q    Type
REMARK                         _______ _______ _______ _____ _____    ______ ____
ROOT
ATOM      1  O   UNL     1       2.041   8.200  18.456  0.00  0.00    +0.000 OA
ATOM      2  C   UNL     1       2.360   7.191  19.072  0.00  0.00    +0.000 C 
ATOM      3  N   UNL     1       2.254   7.099  20.449  0.00  0.00    +0.000 N 
ATOM      4  H   UNL     1       2.717   6.341  20.932  0.00  0.00    +0.000 HD
ENDROOT
BRANCH   2   5
ATOM      5  C   UNL     1       2.875   5.974  18.371  0.00  0.00    +0.000 A 
ATOM      6  C   UNL     1       3.960   6.144  17.505  0.00  0.00    +0.000 A 
ATOM      7  C   UNL     1       4.500   5.054  16.843  0.00  0.00    +0.000 A 
ATOM      8  N   UNL     1       3.994   3.815  17.031  0.00  0.00    +0.000 NA
ATOM      9  C   UNL     1       2.969   3.626  17.886  0.00  0.00    +0.000 A 
ATOM     10  C   UNL     1       2.510   2.330  18.074  0.00  0.00    +0.000 A 
ATOM     11  C   UNL     1       1.463   2.026  18.948  0.00  0.00    +0.000 A 
ATOM     12  C   UNL     1       0.848   3.047  19.654  0.00  0.00    +0.000 A 
ATOM     13  C   UNL     1       1.282   4.360  19.478  0.00  0.00    +0.000 A 
ATOM     14  C   UNL     1       2.356   4.677  18.600  0.00  0.00    +0.000 A 
BRANCH   7  15
ATOM     15  C   UNL     1       5.703   5.246  15.946  0.00  0.00    +0.000 C 
ATOM     16  C   UNL     1       5.647   4.748  14.516  0.00  0.00    +0.000 C 
ATOM     17  C   UNL     1       6.557   4.084  15.503  0.00  0.00    +0.000 C 
ENDBRANCH   7  15
ENDBRANCH   2   5
BRANCH   3  18
ATOM     18  C   UNL     1       1.778   8.229  21.230  0.00  0.00    +0.000 C 
BRANCH  18  19
ATOM     19  C   UNL     1       0.252   8.275  21.301  0.00  0.00    +0.000 C 
BRANCH  19  20
ATOM     20  C   UNL     1      -0.280   9.686  21.259  0.00  0.00    +0.000 A 
ATOM     21  C   UNL     1      -0.565  10.304  20.020  0.00  0.00    +0.000 A 
ATOM     22  C   UNL     1      -1.042  11.619  19.964  0.00  0.00    +0.000 A 
ATOM     23  C   UNL     1      -1.210  12.291  21.154  0.00  0.00    +0.000 A 
ATOM     24  C   UNL     1      -0.932  11.700  22.364  0.00  0.00    +0.000 A 
ATOM     25  C   UNL     1      -0.469  10.404  22.451  0.00  0.00    +0.000 A 
ATOM     26  O   UNL     1      -1.160  12.534  23.413  0.00  0.00    +0.000 OA
ATOM     27  C   UNL     1      -1.563  13.735  22.721  0.00  0.00    +0.000 C 
ATOM     28  O   UNL     1      -1.649  13.571  21.290  0.00  0.00    +0.000 OA
ENDBRANCH  19  20
ENDBRANCH  18  19
ENDBRANCH   3  18
TORSDOF 5
ENDMDL
