MODEL 1
REMARK VINA RESULT:      -8.0      0.000      0.000
REMARK  Name = 
REMARK  6 active torsions:
REMARK  status: ('A' for Active; 'I' for Inactive)
REMARK    1  A    between atoms: C_1  and  C_2
REMARK    2  A    between atoms: C_6  and  S_7
REMARK    3  A    between atoms: S_7  and  N_10
REMARK    4  A    between atoms: N_10  and  C_11
REMARK    5  A    between atoms: N_15  and  C_16
REMARK    6  A    between atoms: C_16  and  C_17
REMARK                            x       y       z     vdW  Elec       q    Type
REMARK                         _______ _______ _______ _____ _____    ______ ____
ROOT
ATOM      1  N   UNL     1       2.297   4.764  18.615  0.00  0.00    +0.000 N 
ATOM      2  H   UNL     1       1.874   5.295  17.869  0.00  0.00    +0.000 HD
ENDROOT
BRANCH   1   3
ATOM      3  C   UNL     1       2.925   3.574  18.310  0.00  0.00    +0.000 A 
ATOM      4  C   UNL     1       2.891   2.460  19.115  0.00  0.00    +0.000 A 
ATOM      5  C   UNL     1       3.581   1.473  18.387  0.00  0.00    +0.000 A 
ATOM      6  N   UNL     1       4.056   1.935  17.231  0.00  0.00    +0.000 NA
ATOM      7  N   UNL     1       3.716   3.247  17.233  0.00  0.00    +0.000 N 
BRANCH   7   8
ATOM      8  C   UNL     1       4.334   4.140  16.257  0.00  0.00    +0.000 C 
BRANCH   8   9
ATOM      9  C   UNL     1       5.445   4.961  16.885  0.00  0.00    +0.000 A 
ATOM     10  C   UNL     1       6.470   4.349  17.627  0.00  0.00    +0.000 A 
ATOM     11  C   UNL     1       7.473   5.113  18.231  0.00  0.00    +0.000 A 
ATOM     12  C   UNL     1       7.468   6.491  18.074  0.00  0.00    +0.000 A 
ATOM     13  F   UNL     1       8.417   7.229  18.666  0.00  0.00    +0.000 F 
ATOM     14  C   UNL     1       6.488   7.117  17.314  0.00  0.00    +0.000 A 
ATOM     15  C   UNL     1       5.479   6.356  16.713  0.00  0.00    +0.000 A 
ENDBRANCH   8   9
ENDBRANCH   7   8
ENDBRANCH   1   3
BRANCH   1  16
ATOM     16  S   UNL     1       2.765   5.694  19.879  0.00  0.00    +0.000 S 
ATOM     17  O   UNL     1       4.210   5.789  19.934  0.00  0.00    +0.000 OA
ATOM     18  O   UNL     1       2.015   5.289  21.050  0.00  0.00    +0.000 OA
BRANCH  16  24
ATOM     19  C   UNL     1       0.575  12.792  20.405  0.00  0.00    +0.000 C 
ATOM     20  C   UNL     1       0.092  11.457  19.849  0.00  0.00    +0.000 C 
ATOM     21  C   UNL     1       0.282  10.322  20.869  0.00  0.00    +0.000 C 
ATOM     22  C   UNL     1       1.022   9.339  20.047  0.00  0.00    +0.000 A 
ATOM     23  C   UNL     1       1.458   8.073  20.398  0.00  0.00    +0.000 A 
ATOM     24  C   UNL     1       2.143   7.324  19.432  0.00  0.00    +0.000 A 
ATOM     25  C   UNL     1       2.338   7.830  18.128  0.00  0.00    +0.000 A 
ATOM     26  C   UNL     1       1.899   9.123  17.806  0.00  0.00    +0.000 A 
ATOM     27  C   UNL     1       1.259   9.860  18.788  0.00  0.00    +0.000 A 
ATOM     28  O   UNL     1       0.817  11.144  18.627  0.00  0.00    +0.000 OA
ENDBRANCH  16  24
ENDBRANCH   1  16
TORSDOF 5
ENDMDL
MODEL 2
REMARK VINA RESULT:      -7.7      1.968      2.777
REMARK  Name = 
REMARK  6 active torsions:
REMARK  status: ('A' for Active; 'I' for Inactive)
REMARK    1  A    between atoms: C_1  and  C_2
REMARK    2  A    between atoms: C_6  and  S_7
REMARK    3  A    between atoms: S_7  and  N_10
REMARK    4  A    between atoms: N_10  and  C_11
REMARK    5  A    between atoms: N_15  and  C_16
REMARK    6  A    between atoms: C_16  and  C_17
REMARK                            x       y       z     vdW  Elec       q    Type
REMARK                         _______ _______ _______ _____ _____    ______ ____
ROOT
ATOM      1  N   UNL     1       3.187   5.831  19.978  0.00  0.00    +0.000 N 
ATOM      2  H   UNL     1       3.476   6.377  20.776  0.00  0.00    +0.000 HD
ENDROOT
BRANCH   1   3
ATOM      3  C   UNL     1       2.660   4.574  20.190  0.00  0.00    +0.000 A 
ATOM      4  C   UNL     1       1.444   4.342  20.789  0.00  0.00    +0.000 A 
ATOM      5  C   UNL     1       1.274   2.948  20.723  0.00  0.00    +0.000 A 
ATOM      6  N   UNL     1       2.320   2.335  20.168  0.00  0.00    +0.000 NA
ATOM      7  N   UNL     1       3.198   3.337  19.919  0.00  0.00    +0.000 N 
BRANCH   7   8
ATOM      8  C   UNL     1       4.579   3.001  19.586  0.00  0.00    +0.000 C 
BRANCH   8   9
ATOM      9  C   UNL     1       5.036   3.721  18.332  0.00  0.00    +0.000 A 
ATOM     10  C   UNL     1       4.354   3.563  17.114  0.00  0.00    +0.000 A 
ATOM     11  C   UNL     1       4.799   4.203  15.953  0.00  0.00    +0.000 A 
ATOM     12  C   UNL     1       5.915   5.025  16.013  0.00  0.00    +0.000 A 
ATOM     13  F   UNL     1       6.356   5.627  14.900  0.00  0.00    +0.000 F 
ATOM     14  C   UNL     1       6.586   5.228  17.213  0.00  0.00    +0.000 A 
ATOM     15  C   UNL     1       6.146   4.584  18.375  0.00  0.00    +0.000 A 
ENDBRANCH   8   9
ENDBRANCH   7   8
ENDBRANCH   1   3
BRANCH   1  16
ATOM     16  S   UNL     1       2.753   6.751  18.694  0.00  0.00    +0.000 S 
ATOM     17  O   UNL     1       1.855   6.019  17.824  0.00  0.00    +0.000 OA
ATOM     18  O   UNL     1       3.942   7.377  18.155  0.00  0.00    +0.000 OA
BRANCH  16  24
ATOM     19  C   UNL     1      -2.101  12.329  19.571  0.00  0.00    +0.000 C 
ATOM     20  C   UNL     1      -0.642  11.994  19.855  0.00  0.00    +0.000 C 
ATOM     21  C   UNL     1       0.035  11.352  18.632  0.00  0.00    +0.000 C 
ATOM     22  C   UNL     1       0.603  10.131  19.245  0.00  0.00    +0.000 A 
ATOM     23  C   UNL     1       1.371   9.143  18.652  0.00  0.00    +0.000 A 
ATOM     24  C   UNL     1       1.796   8.074  19.453  0.00  0.00    +0.000 A 
ATOM     25  C   UNL     1       1.488   8.035  20.830  0.00  0.00    +0.000 A 
ATOM     26  C   UNL     1       0.694   9.042  21.399  0.00  0.00    +0.000 A 
ATOM     27  C   UNL     1       0.253  10.067  20.581  0.00  0.00    +0.000 A 
ATOM     28  O   UNL     1      -0.559  11.089  20.991  0.00  0.00    +0.000 OA
ENDBRANCH  16  24
ENDBRANCH   1  16
TORSDOF 5
ENDMDL
MODEL 3
REMARK VINA RESULT:      -7.7      2.050      2.625
REMARK  Name = 
REMARK  6 active torsions:
REMARK  status: ('A' for Active; 'I' for Inactive)
REMARK    1  A    between atoms: C_1  and  C_2
REMARK    2  A    between atoms: C_6  and  S_7
REMARK    3  A    between atoms: S_7  and  N_10
REMARK    4  A    between atoms: N_10  and  C_11
REMARK    5  A    between atoms: N_15  and  C_16
REMARK    6  A    between atoms: C_16  and  C_17
REMARK                            x       y       z     vdW  Elec       q    Type
REMARK                         _______ _______ _______ _____ _____    ______ ____
ROOT
ATOM      1  N   UNL     1       3.220   6.099  19.858  0.00  0.00    +0.000 N 
ATOM      2  H   UNL     1       3.380   6.741  20.621  0.00  0.00    +0.000 HD
ENDROOT
BRANCH   1   3
ATOM      3  C   UNL     1       2.711   4.848  20.140  0.00  0.00    +0.000 A 
ATOM      4  C   UNL     1       1.479   4.631  20.709  0.00  0.00    +0.000 A 
ATOM      5  C   UNL     1       1.340   3.232  20.737  0.00  0.00    +0.000 A 
ATOM      6  N   UNL     1       2.419   2.606  20.266  0.00  0.00    +0.000 NA
ATOM      7  N   UNL     1       3.285   3.608  19.979  0.00  0.00    +0.000 N 
BRANCH   7   8
ATOM      8  C   UNL     1       4.685   3.282  19.722  0.00  0.00    +0.000 C 
BRANCH   8   9
ATOM      9  C   UNL     1       5.150   3.850  18.394  0.00  0.00    +0.000 A 
ATOM     10  C   UNL     1       4.455   3.575  17.204  0.00  0.00    +0.000 A 
ATOM     11  C   UNL     1       4.907   4.073  15.978  0.00  0.00    +0.000 A 
ATOM     12  C   UNL     1       6.042   4.870  15.942  0.00  0.00    +0.000 A 
ATOM     13  F   UNL     1       6.490   5.335  14.768  0.00  0.00    +0.000 F 
ATOM     14  C   UNL     1       6.726   5.187  17.109  0.00  0.00    +0.000 A 
ATOM     15  C   UNL     1       6.280   4.685  18.337  0.00  0.00    +0.000 A 
ENDBRANCH   8   9
ENDBRANCH   7   8
ENDBRANCH   1   3
BRANCH   1  16
ATOM     16  S   UNL     1       2.931   6.854  18.434  0.00  0.00    +0.000 S 
ATOM     17  O   UNL     1       2.186   5.990  17.541  0.00  0.00    +0.000 OA
ATOM     18  O   UNL     1       4.160   7.478  17.988  0.00  0.00    +0.000 OA
BRANCH  16  24
ATOM     19  C   UNL     1      -0.535  12.012  22.537  0.00  0.00    +0.000 C 
ATOM     20  C   UNL     1      -0.853  10.892  21.554  0.00  0.00    +0.000 C 
ATOM     21  C   UNL     1      -0.072   9.610  21.891  0.00  0.00    +0.000 C 
ATOM     22  C   UNL     1       0.553   9.321  20.581  0.00  0.00    +0.000 A 
ATOM     23  C   UNL     1       1.363   8.256  20.226  0.00  0.00    +0.000 A 
ATOM     24  C   UNL     1       1.835   8.202  18.907  0.00  0.00    +0.000 A 
ATOM     25  C   UNL     1       1.455   9.179  17.962  0.00  0.00    +0.000 A 
ATOM     26  C   UNL     1       0.646  10.256  18.355  0.00  0.00    +0.000 A 
ATOM     27  C   UNL     1       0.223  10.310  19.672  0.00  0.00    +0.000 A 
ATOM     28  O   UNL     1      -0.532  11.320  20.201  0.00  0.00    +0.000 OA
ENDBRANCH  16  24
ENDBRANCH   1  16
TORSDOF 5
ENDMDL
MODEL 4
REMARK VINA RESULT:      -7.5      3.118      4.234
REMARK  Name = 
REMARK  6 active torsions:
REMARK  status: ('A' for Active; 'I' for Inactive)
REMARK    1  A    between atoms: C_1  and  C_2
REMARK    2  A    between atoms: C_6  and  S_7
REMARK    3  A    between atoms: S_7  and  N_10
REMARK    4  A    between atoms: N_10  and  C_11
REMARK    5  A    between atoms: N_15  and  C_16
REMARK    6  A    between atoms: C_16  and  C_17
REMARK                            x       y       z     vdW  Elec       q    Type
REMARK                         _______ _______ _______ _____ _____    ______ ____
ROOT
ATOM      1  N   UNL     1       4.811   3.529  17.511  0.00  0.00    +0.000 N 
ATOM      2  H   UNL     1       4.521   3.354  16.561  0.00  0.00    +0.000 HD
ENDROOT
BRANCH   1   3
ATOM      3  C   UNL     1       5.766   4.497  17.746  0.00  0.00    +0.000 A 
ATOM      4  C   UNL     1       6.424   4.653  18.943  0.00  0.00    +0.000 A 
ATOM      5  C   UNL     1       7.349   5.686  18.709  0.00  0.00    +0.000 A 
ATOM      6  N   UNL     1       7.256   6.181  17.475  0.00  0.00    +0.000 NA
ATOM      7  N   UNL     1       6.225   5.497  16.920  0.00  0.00    +0.000 N 
BRANCH   7   8
ATOM      8  C   UNL     1       5.644   5.983  15.672  0.00  0.00    +0.000 C 
BRANCH   8   9
ATOM      9  C   UNL     1       6.120   5.167  14.486  0.00  0.00    +0.000 A 
ATOM     10  C   UNL     1       7.374   5.404  13.897  0.00  0.00    +0.000 A 
ATOM     11  C   UNL     1       7.793   4.671  12.782  0.00  0.00    +0.000 A 
ATOM     12  C   UNL     1       6.970   3.679  12.269  0.00  0.00    +0.000 A 
ATOM     13  F   UNL     1       7.360   2.986  11.190  0.00  0.00    +0.000 F 
ATOM     14  C   UNL     1       5.742   3.399  12.856  0.00  0.00    +0.000 A 
ATOM     15  C   UNL     1       5.317   4.136  13.967  0.00  0.00    +0.000 A 
ENDBRANCH   8   9
ENDBRANCH   7   8
ENDBRANCH   1   3
BRANCH   1  16
ATOM     16  S   UNL     1       3.657   3.162  18.613  0.00  0.00    +0.000 S 
ATOM     17  O   UNL     1       4.251   2.577  19.799  0.00  0.00    +0.000 OA
ATOM     18  O   UNL     1       2.571   2.488  17.933  0.00  0.00    +0.000 OA
BRANCH  16  24
ATOM     19  C   UNL     1       0.399   9.846  18.200  0.00  0.00    +0.000 C 
ATOM     20  C   UNL     1       1.684   9.200  18.705  0.00  0.00    +0.000 C 
ATOM     21  C   UNL     1       2.277   8.237  17.663  0.00  0.00    +0.000 C 
ATOM     22  C   UNL     1       2.440   7.017  18.483  0.00  0.00    +0.000 A 
ATOM     23  C   UNL     1       2.970   5.792  18.114  0.00  0.00    +0.000 A 
ATOM     24  C   UNL     1       3.019   4.780  19.082  0.00  0.00    +0.000 A 
ATOM     25  C   UNL     1       2.585   5.021  20.404  0.00  0.00    +0.000 A 
ATOM     26  C   UNL     1       2.038   6.268  20.745  0.00  0.00    +0.000 A 
ATOM     27  C   UNL     1       1.964   7.239  19.762  0.00  0.00    +0.000 A 
ATOM     28  O   UNL     1       1.418   8.481  19.942  0.00  0.00    +0.000 OA
ENDBRANCH  16  24
ENDBRANCH   1  16
TORSDOF 5
ENDMDL
MODEL 5
REMARK VINA RESULT:      -7.5      3.027      4.094
REMARK  Name = 
REMARK  6 active torsions:
REMARK  status: ('A' for Active; 'I' for Inactive)
REMARK    1  A    between atoms: C_1  and  C_2
REMARK    2  A    between atoms: C_6  and  S_7
REMARK    3  A    between atoms: S_7  and  N_10
REMARK    4  A    between atoms: N_10  and  C_11
REMARK    5  A    between atoms: N_15  and  C_16
REMARK    6  A    between atoms: C_16  and  C_17
REMARK                            x       y       z     vdW  Elec       q    Type
REMARK                         _______ _______ _______ _____ _____    ______ ____
ROOT
ATOM      1  N   UNL     1       4.606   3.352  17.491  0.00  0.00    +0.000 N 
ATOM      2  H   UNL     1       4.613   3.053  16.528  0.00  0.00    +0.000 HD
ENDROOT
BRANCH   1   3
ATOM      3  C   UNL     1       5.457   4.367  17.877  0.00  0.00    +0.000 A 
ATOM      4  C   UNL     1       6.004   4.474  19.134  0.00  0.00    +0.000 A 
ATOM      5  C   UNL     1       6.858   5.589  19.058  0.00  0.00    +0.000 A 
ATOM      6  N   UNL     1       6.822   6.174  17.860  0.00  0.00    +0.000 NA
ATOM      7  N   UNL     1       5.898   5.463  17.171  0.00  0.00    +0.000 N 
BRANCH   7   8
ATOM      8  C   UNL     1       5.379   6.003  15.918  0.00  0.00    +0.000 C 
BRANCH   8   9
ATOM      9  C   UNL     1       5.892   5.221  14.724  0.00  0.00    +0.000 A 
ATOM     10  C   UNL     1       5.086   4.267  14.080  0.00  0.00    +0.000 A 
ATOM     11  C   UNL     1       5.576   3.525  13.000  0.00  0.00    +0.000 A 
ATOM     12  C   UNL     1       6.867   3.754  12.545  0.00  0.00    +0.000 A 
ATOM     13  F   UNL     1       7.347   3.033  11.523  0.00  0.00    +0.000 F 
ATOM     14  C   UNL     1       7.671   4.718  13.141  0.00  0.00    +0.000 A 
ATOM     15  C   UNL     1       7.185   5.458  14.225  0.00  0.00    +0.000 A 
ENDBRANCH   8   9
ENDBRANCH   7   8
ENDBRANCH   1   3
BRANCH   1  16
ATOM     16  S   UNL     1       3.168   3.095  18.233  0.00  0.00    +0.000 S 
ATOM     17  O   UNL     1       3.337   2.235  19.387  0.00  0.00    +0.000 OA
ATOM     18  O   UNL     1       2.182   2.774  17.223  0.00  0.00    +0.000 OA
BRANCH  16  24
ATOM     19  C   UNL     1       0.413  10.006  18.545  0.00  0.00    +0.000 C 
ATOM     20  C   UNL     1       1.705   9.248  18.830  0.00  0.00    +0.000 C 
ATOM     21  C   UNL     1       2.063   8.294  17.678  0.00  0.00    +0.000 C 
ATOM     22  C   UNL     1       2.249   7.028  18.421  0.00  0.00    +0.000 A 
ATOM     23  C   UNL     1       2.622   5.787  17.934  0.00  0.00    +0.000 A 
ATOM     24  C   UNL     1       2.734   4.731  18.848  0.00  0.00    +0.000 A 
ATOM     25  C   UNL     1       2.518   4.941  20.227  0.00  0.00    +0.000 A 
ATOM     26  C   UNL     1       2.124   6.206  20.689  0.00  0.00    +0.000 A 
ATOM     27  C   UNL     1       1.983   7.225  19.763  0.00  0.00    +0.000 A 
ATOM     28  O   UNL     1       1.567   8.493  20.066  0.00  0.00    +0.000 OA
ENDBRANCH  16  24
ENDBRANCH   1  16
TORSDOF 5
ENDMDL
MODEL 6
REMARK VINA RESULT:      -7.5      1.583      2.017
REMARK  Name = 
REMARK  6 active torsions:
REMARK  status: ('A' for Active; 'I' for Inactive)
REMARK    1  A    between atoms: C_1  and  C_2
REMARK    2  A    between atoms: C_6  and  S_7
REMARK    3  A    between atoms: S_7  and  N_10
REMARK    4  A    between atoms: N_10  and  C_11
REMARK    5  A    between atoms: N_15  and  C_16
REMARK    6  A    between atoms: C_16  and  C_17
REMARK                            x       y       z     vdW  Elec       q    Type
REMARK                         _______ _______ _______ _____ _____    ______ ____
ROOT
ATOM      1  N   UNL     1       1.861   5.595  18.179  0.00  0.00    +0.000 N 
ATOM      2  H   UNL     1       1.664   5.586  17.190  0.00  0.00    +0.000 HD
ENDROOT
BRANCH   1   3
ATOM      3  C   UNL     1       1.758   4.415  18.887  0.00  0.00    +0.000 A 
ATOM      4  C   UNL     1       1.230   4.322  20.153  0.00  0.00    +0.000 A 
ATOM      5  C   UNL     1       1.246   2.947  20.446  0.00  0.00    +0.000 A 
ATOM      6  N   UNL     1       1.785   2.225  19.463  0.00  0.00    +0.000 NA
ATOM      7  N   UNL     1       2.168   3.146  18.547  0.00  0.00    +0.000 N 
BRANCH   7   8
ATOM      8  C   UNL     1       3.067   2.741  17.469  0.00  0.00    +0.000 C 
BRANCH   8   9
ATOM      9  C   UNL     1       4.347   3.555  17.481  0.00  0.00    +0.000 A 
ATOM     10  C   UNL     1       5.068   3.757  18.671  0.00  0.00    +0.000 A 
ATOM     11  C   UNL     1       6.229   4.536  18.683  0.00  0.00    +0.000 A 
ATOM     12  C   UNL     1       6.688   5.095  17.499  0.00  0.00    +0.000 A 
ATOM     13  F   UNL     1       7.790   5.857  17.508  0.00  0.00    +0.000 F 
ATOM     14  C   UNL     1       6.014   4.879  16.302  0.00  0.00    +0.000 A 
ATOM     15  C   UNL     1       4.848   4.105  16.289  0.00  0.00    +0.000 A 
ENDBRANCH   8   9
ENDBRANCH   7   8
ENDBRANCH   1   3
BRANCH   1  16
ATOM     16  S   UNL     1       2.901   6.782  18.616  0.00  0.00    +0.000 S 
ATOM     17  O   UNL     1       3.712   7.191  17.486  0.00  0.00    +0.000 OA
ATOM     18  O   UNL     1       3.529   6.405  19.865  0.00  0.00    +0.000 OA
BRANCH  16  24
ATOM     19  C   UNL     1      -0.585  12.161  22.407  0.00  0.00    +0.000 C 
ATOM     20  C   UNL     1      -0.898  10.989  21.484  0.00  0.00    +0.000 C 
ATOM     21  C   UNL     1      -0.122   9.726  21.895  0.00  0.00    +0.000 C 
ATOM     22  C   UNL     1       0.512   9.366  20.607  0.00  0.00    +0.000 A 
ATOM     23  C   UNL     1       1.322   8.282  20.317  0.00  0.00    +0.000 A 
ATOM     24  C   UNL     1       1.804   8.155  19.007  0.00  0.00    +0.000 A 
ATOM     25  C   UNL     1       1.433   9.081  18.008  0.00  0.00    +0.000 A 
ATOM     26  C   UNL     1       0.624  10.179  18.335  0.00  0.00    +0.000 A 
ATOM     27  C   UNL     1       0.191  10.304  19.644  0.00  0.00    +0.000 A 
ATOM     28  O   UNL     1      -0.566  11.343  20.112  0.00  0.00    +0.000 OA
ENDBRANCH  16  24
ENDBRANCH   1  16
TORSDOF 5
ENDMDL
MODEL 7
REMARK VINA RESULT:      -7.5      1.622      2.291
REMARK  Name = 
REMARK  6 active torsions:
REMARK  status: ('A' for Active; 'I' for Inactive)
REMARK    1  A    between atoms: C_1  and  C_2
REMARK    2  A    between atoms: C_6  and  S_7
REMARK    3  A    between atoms: S_7  and  N_10
REMARK    4  A    between atoms: N_10  and  C_11
REMARK    5  A    between atoms: N_15  and  C_16
REMARK    6  A    between atoms: C_16  and  C_17
REMARK                            x       y       z     vdW  Elec       q    Type
REMARK                         _______ _______ _______ _____ _____    ______ ____
ROOT
ATOM      1  N   UNL     1       1.792   5.611  18.275  0.00  0.00    +0.000 N 
ATOM      2  H   UNL     1       1.543   5.643  17.298  0.00  0.00    +0.000 HD
ENDROOT
BRANCH   1   3
ATOM      3  C   UNL     1       1.728   4.403  18.938  0.00  0.00    +0.000 A 
ATOM      4  C   UNL     1       1.251   4.254  20.219  0.00  0.00    +0.000 A 
ATOM      5  C   UNL     1       1.291   2.868  20.456  0.00  0.00    +0.000 A 
ATOM      6  N   UNL     1       1.797   2.192  19.424  0.00  0.00    +0.000 NA
ATOM      7  N   UNL     1       2.136   3.154  18.532  0.00  0.00    +0.000 N 
BRANCH   7   8
ATOM      8  C   UNL     1       2.996   2.802  17.404  0.00  0.00    +0.000 C 
BRANCH   8   9
ATOM      9  C   UNL     1       4.269   3.625  17.402  0.00  0.00    +0.000 A 
ATOM     10  C   UNL     1       5.095   3.690  18.537  0.00  0.00    +0.000 A 
ATOM     11  C   UNL     1       6.250   4.478  18.541  0.00  0.00    +0.000 A 
ATOM     12  C   UNL     1       6.597   5.184  17.398  0.00  0.00    +0.000 A 
ATOM     13  F   UNL     1       7.693   5.955  17.402  0.00  0.00    +0.000 F 
ATOM     14  C   UNL     1       5.818   5.108  16.250  0.00  0.00    +0.000 A 
ATOM     15  C   UNL     1       4.658   4.325  16.246  0.00  0.00    +0.000 A 
ENDBRANCH   8   9
ENDBRANCH   7   8
ENDBRANCH   1   3
BRANCH   1  16
ATOM     16  S   UNL     1       2.853   6.783  18.705  0.00  0.00    +0.000 S 
ATOM     17  O   UNL     1       3.445   7.390  17.530  0.00  0.00    +0.000 OA
ATOM     18  O   UNL     1       3.697   6.271  19.765  0.00  0.00    +0.000 OA
BRANCH  16  24
ATOM     19  C   UNL     1      -2.279  12.111  19.558  0.00  0.00    +0.000 C 
ATOM     20  C   UNL     1      -0.827  11.817  19.917  0.00  0.00    +0.000 C 
ATOM     21  C   UNL     1      -0.049  11.271  18.708  0.00  0.00    +0.000 C 
ATOM     22  C   UNL     1       0.531  10.041  19.292  0.00  0.00    +0.000 A 
ATOM     23  C   UNL     1       1.375   9.118  18.699  0.00  0.00    +0.000 A 
ATOM     24  C   UNL     1       1.795   8.024  19.468  0.00  0.00    +0.000 A 
ATOM     25  C   UNL     1       1.404   7.897  20.819  0.00  0.00    +0.000 A 
ATOM     26  C   UNL     1       0.534   8.839  21.388  0.00  0.00    +0.000 A 
ATOM     27  C   UNL     1       0.102   9.890  20.598  0.00  0.00    +0.000 A 
ATOM     28  O   UNL     1      -0.777  10.855  21.008  0.00  0.00    +0.000 OA
ENDBRANCH  16  24
ENDBRANCH   1  16
TORSDOF 5
ENDMDL
MODEL 8
REMARK VINA RESULT:      -7.4      1.826      2.213
REMARK  Name = 
REMARK  6 active torsions:
REMARK  status: ('A' for Active; 'I' for Inactive)
REMARK    1  A    between atoms: C_1  and  C_2
REMARK    2  A    between atoms: C_6  and  S_7
REMARK    3  A    between atoms: S_7  and  N_10
REMARK    4  A    between atoms: N_10  and  C_11
REMARK    5  A    between atoms: N_15  and  C_16
REMARK    6  A    between atoms: C_16  and  C_17
REMARK                            x       y       z     vdW  Elec       q    Type
REMARK                         _______ _______ _______ _____ _____    ______ ____
ROOT
ATOM      1  N   UNL     1       2.472   5.542  17.747  0.00  0.00    +0.000 N 
ATOM      2  H   UNL     1       2.275   5.878  16.816  0.00  0.00    +0.000 HD
ENDROOT
BRANCH   1   3
ATOM      3  C   UNL     1       2.538   4.180  17.960  0.00  0.00    +0.000 A 
ATOM      4  C   UNL     1       1.441   3.383  18.185  0.00  0.00    +0.000 A 
ATOM      5  C   UNL     1       1.958   2.078  18.265  0.00  0.00    +0.000 A 
ATOM      6  N   UNL     1       3.285   2.050  18.146  0.00  0.00    +0.000 NA
ATOM      7  N   UNL     1       3.636   3.355  18.041  0.00  0.00    +0.000 N 
BRANCH   7   8
ATOM      8  C   UNL     1       5.040   3.725  18.196  0.00  0.00    +0.000 C 
BRANCH   8   9
ATOM      9  C   UNL     1       5.664   4.095  16.864  0.00  0.00    +0.000 A 
ATOM     10  C   UNL     1       6.972   4.604  16.791  0.00  0.00    +0.000 A 
ATOM     11  C   UNL     1       7.531   4.976  15.564  0.00  0.00    +0.000 A 
ATOM     12  C   UNL     1       6.791   4.815  14.402  0.00  0.00    +0.000 A 
ATOM     13  F   UNL     1       7.315   5.187  13.226  0.00  0.00    +0.000 F 
ATOM     14  C   UNL     1       5.509   4.279  14.442  0.00  0.00    +0.000 A 
ATOM     15  C   UNL     1       4.946   3.913  15.670  0.00  0.00    +0.000 A 
ENDBRANCH   8   9
ENDBRANCH   7   8
ENDBRANCH   1   3
BRANCH   1  16
ATOM     16  S   UNL     1       3.335   6.605  18.645  0.00  0.00    +0.000 S 
ATOM     17  O   UNL     1       4.408   7.182  17.860  0.00  0.00    +0.000 OA
ATOM     18  O   UNL     1       3.615   6.000  19.930  0.00  0.00    +0.000 OA
BRANCH  16  24
ATOM     19  C   UNL     1      -0.502  11.942  22.146  0.00  0.00    +0.000 C 
ATOM     20  C   UNL     1      -0.737  10.699  21.296  0.00  0.00    +0.000 C 
ATOM     21  C   UNL     1       0.127   9.519  21.773  0.00  0.00    +0.000 C 
ATOM     22  C   UNL     1       0.779   9.129  20.503  0.00  0.00    +0.000 A 
ATOM     23  C   UNL     1       1.662   8.089  20.270  0.00  0.00    +0.000 A 
ATOM     24  C   UNL     1       2.146   7.920  18.965  0.00  0.00    +0.000 A 
ATOM     25  C   UNL     1       1.707   8.757  17.916  0.00  0.00    +0.000 A 
ATOM     26  C   UNL     1       0.824   9.813  18.187  0.00  0.00    +0.000 A 
ATOM     27  C   UNL     1       0.390   9.985  19.490  0.00  0.00    +0.000 A 
ATOM     28  O   UNL     1      -0.436  10.994  19.903  0.00  0.00    +0.000 OA
ENDBRANCH  16  24
ENDBRANCH   1  16
TORSDOF 5
ENDMDL
MODEL 9
REMARK VINA RESULT:      -7.4      1.375      1.616
REMARK  Name = 
REMARK  6 active torsions:
REMARK  status: ('A' for Active; 'I' for Inactive)
REMARK    1  A    between atoms: C_1  and  C_2
REMARK    2  A    between atoms: C_6  and  S_7
REMARK    3  A    between atoms: S_7  and  N_10
REMARK    4  A    between atoms: N_10  and  C_11
REMARK    5  A    between atoms: N_15  and  C_16
REMARK    6  A    between atoms: C_16  and  C_17
REMARK                            x       y       z     vdW  Elec       q    Type
REMARK                         _______ _______ _______ _____ _____    ______ ____
ROOT
ATOM      1  N   UNL     1       2.127   5.872  17.824  0.00  0.00    +0.000 N 
ATOM      2  H   UNL     1       1.762   6.110  16.914  0.00  0.00    +0.000 HD
ENDROOT
BRANCH   1   3
ATOM      3  C   UNL     1       2.335   4.542  18.127  0.00  0.00    +0.000 A 
ATOM      4  C   UNL     1       1.747   3.894  19.188  0.00  0.00    +0.000 A 
ATOM      5  C   UNL     1       2.168   2.558  19.068  0.00  0.00    +0.000 A 
ATOM      6  N   UNL     1       2.997   2.378  18.040  0.00  0.00    +0.000 NA
ATOM      7  N   UNL     1       3.155   3.619  17.520  0.00  0.00    +0.000 N 
BRANCH   7   8
ATOM      8  C   UNL     1       4.233   3.853  16.562  0.00  0.00    +0.000 C 
BRANCH   8   9
ATOM      9  C   UNL     1       5.371   4.634  17.191  0.00  0.00    +0.000 A 
ATOM     10  C   UNL     1       5.739   4.428  18.532  0.00  0.00    +0.000 A 
ATOM     11  C   UNL     1       6.767   5.174  19.117  0.00  0.00    +0.000 A 
ATOM     12  C   UNL     1       7.448   6.111  18.354  0.00  0.00    +0.000 A 
ATOM     13  F   UNL     1       8.422   6.841  18.915  0.00  0.00    +0.000 F 
ATOM     14  C   UNL     1       7.129   6.308  17.016  0.00  0.00    +0.000 A 
ATOM     15  C   UNL     1       6.096   5.567  16.430  0.00  0.00    +0.000 A 
ENDBRANCH   8   9
ENDBRANCH   7   8
ENDBRANCH   1   3
BRANCH   1  16
ATOM     16  S   UNL     1       3.030   7.066  18.487  0.00  0.00    +0.000 S 
ATOM     17  O   UNL     1       3.860   7.696  17.480  0.00  0.00    +0.000 OA
ATOM     18  O   UNL     1       3.621   6.568  19.712  0.00  0.00    +0.000 OA
BRANCH  16  24
ATOM     19  C   UNL     1      -0.790  11.943  22.620  0.00  0.00    +0.000 C 
ATOM     20  C   UNL     1      -1.024  10.728  21.730  0.00  0.00    +0.000 C 
ATOM     21  C   UNL     1      -0.040   9.592  22.059  0.00  0.00    +0.000 C 
ATOM     22  C   UNL     1       0.507   9.310  20.713  0.00  0.00    +0.000 A 
ATOM     23  C   UNL     1       1.431   8.348  20.341  0.00  0.00    +0.000 A 
ATOM     24  C   UNL     1       1.793   8.275  18.989  0.00  0.00    +0.000 A 
ATOM     25  C   UNL     1       1.198   9.127  18.034  0.00  0.00    +0.000 A 
ATOM     26  C   UNL     1       0.277  10.103  18.443  0.00  0.00    +0.000 A 
ATOM     27  C   UNL     1      -0.037  10.182  19.789  0.00  0.00    +0.000 A 
ATOM     28  O   UNL     1      -0.883  11.109  20.332  0.00  0.00    +0.000 OA
ENDBRANCH  16  24
ENDBRANCH   1  16
TORSDOF 5
ENDMDL
