MODEL 1
REMARK VINA RESULT:      -8.6      0.000      0.000
REMARK  Name = 
REMARK  6 active torsions:
REMARK  status: ('A' for Active; 'I' for Inactive)
REMARK    1  A    between atoms: C_2  and  C_15
REMARK    2  A    between atoms: N_3  and  C_4
REMARK    3  A    between atoms: C_4  and  C_5
REMARK    4  A    between atoms: C_5  and  C_6
REMARK    5  A    between atoms: N_22  and  C_23
REMARK    6  A    between atoms: C_23  and  C_24
REMARK                            x       y       z     vdW  Elec       q    Type
REMARK                         _______ _______ _______ _____ _____    ______ ____
ROOT
ATOM      1  C   UNL     1       2.742   6.213  19.079  0.00  0.00    +0.000 A 
ATOM      2  C   UNL     1       2.805   7.294  18.201  0.00  0.00    +0.000 A 
ATOM      3  N   UNL     1       2.198   8.500  18.374  0.00  0.00    +0.000 NA
ATOM      4  C   UNL     1       1.521   8.581  19.540  0.00  0.00    +0.000 A 
ATOM      5  C   UNL     1       1.410   7.592  20.510  0.00  0.00    +0.000 A 
ATOM      6  C   UNL     1       0.639   8.187  21.531  0.00  0.00    +0.000 A 
ATOM      7  N   UNL     1       0.275   9.441  21.249  0.00  0.00    +0.000 NA
ATOM      8  N   UNL     1       0.792   9.648  20.009  0.00  0.00    +0.000 N 
ATOM      9  C   UNL     1       2.037   6.356  20.280  0.00  0.00    +0.000 A 
ENDROOT
BRANCH   1  11
ATOM     10  O   UNL     1       3.857   4.221  19.614  0.00  0.00    +0.000 OA
ATOM     11  C   UNL     1       3.455   4.963  18.725  0.00  0.00    +0.000 C 
ATOM     12  N   UNL     1       3.656   4.725  17.380  0.00  0.00    +0.000 N 
ATOM     13  H   UNL     1       3.513   5.480  16.722  0.00  0.00    +0.000 HD
BRANCH  12  14
ATOM     14  C   UNL     1       4.411   3.559  16.944  0.00  0.00    +0.000 C 
BRANCH  14  15
ATOM     15  C   UNL     1       5.711   3.937  16.232  0.00  0.00    +0.000 C 
BRANCH  15  16
ATOM     16  C   UNL     1       6.498   4.980  16.990  0.00  0.00    +0.000 A 
ATOM     17  C   UNL     1       7.275   4.613  18.112  0.00  0.00    +0.000 A 
ATOM     18  C   UNL     1       8.023   5.565  18.814  0.00  0.00    +0.000 A 
ATOM     19  C   UNL     1       7.976   6.869  18.374  0.00  0.00    +0.000 A 
ATOM     20  C   UNL     1       7.229   7.236  17.281  0.00  0.00    +0.000 A 
ATOM     21  C   UNL     1       6.483   6.319  16.567  0.00  0.00    +0.000 A 
ATOM     22  O   UNL     1       7.319   8.566  17.012  0.00  0.00    +0.000 OA
ATOM     23  C   UNL     1       8.195   8.997  18.076  0.00  0.00    +0.000 C 
ATOM     24  O   UNL     1       8.634   7.921  18.931  0.00  0.00    +0.000 OA
ENDBRANCH  15  16
ENDBRANCH  14  15
ENDBRANCH  12  14
ENDBRANCH   1  11
BRANCH   8  25
ATOM     25  C   UNL     1       0.550  10.904  19.318  0.00  0.00    +0.000 C 
BRANCH  25  26
ATOM     26  C   UNL     1      -0.827  10.917  18.698  0.00  0.00    +0.000 A 
ATOM     27  C   UNL     1      -1.823  11.775  19.189  0.00  0.00    +0.000 A 
ATOM     28  C   UNL     1      -3.124  11.711  18.684  0.00  0.00    +0.000 A 
ATOM     29  C   UNL     1      -3.440  10.793  17.684  0.00  0.00    +0.000 A 
ATOM     30  C   UNL     1      -2.453   9.954  17.173  0.00  0.00    +0.000 A 
ATOM     31  C   UNL     1      -1.151  10.016  17.674  0.00  0.00    +0.000 A 
ENDBRANCH  25  26
ENDBRANCH   8  25
TORSDOF 6
ENDMDL
MODEL 2
REMARK VINA RESULT:      -8.3      2.147      3.103
REMARK  Name = 
REMARK  6 active torsions:
REMARK  status: ('A' for Active; 'I' for Inactive)
REMARK    1  A    between atoms: C_2  and  C_15
REMARK    2  A    between atoms: N_3  and  C_4
REMARK    3  A    between atoms: C_4  and  C_5
REMARK    4  A    between atoms: C_5  and  C_6
REMARK    5  A    between atoms: N_22  and  C_23
REMARK    6  A    between atoms: C_23  and  C_24
REMARK                            x       y       z     vdW  Elec       q    Type
REMARK                         _______ _______ _______ _____ _____    ______ ____
ROOT
ATOM      1  C   UNL     1       1.692   8.078  19.800  0.00  0.00    +0.000 A 
ATOM      2  C   UNL     1       1.550   9.299  19.143  0.00  0.00    +0.000 A 
ATOM      3  N   UNL     1       0.977  10.422  19.656  0.00  0.00    +0.000 NA
ATOM      4  C   UNL     1       0.563  10.259  20.932  0.00  0.00    +0.000 A 
ATOM      5  C   UNL     1       0.676   9.109  21.705  0.00  0.00    +0.000 A 
ATOM      6  C   UNL     1       0.132   9.472  22.955  0.00  0.00    +0.000 A 
ATOM      7  N   UNL     1      -0.303  10.734  22.990  0.00  0.00    +0.000 NA
ATOM      8  N   UNL     1      -0.065  11.185  21.729  0.00  0.00    +0.000 N 
ATOM      9  C   UNL     1       1.258   7.969  21.127  0.00  0.00    +0.000 A 
ENDROOT
BRANCH   1  11
ATOM     10  O   UNL     1       2.836   7.139  17.981  0.00  0.00    +0.000 OA
ATOM     11  C   UNL     1       2.332   6.951  19.083  0.00  0.00    +0.000 C 
ATOM     12  N   UNL     1       2.290   5.718  19.703  0.00  0.00    +0.000 N 
ATOM     13  H   UNL     1       1.663   5.585  20.485  0.00  0.00    +0.000 HD
BRANCH  12  14
ATOM     14  C   UNL     1       2.830   4.541  19.038  0.00  0.00    +0.000 C 
BRANCH  14  15
ATOM     15  C   UNL     1       4.311   4.322  19.350  0.00  0.00    +0.000 C 
BRANCH  15  16
ATOM     16  C   UNL     1       5.203   4.684  18.186  0.00  0.00    +0.000 A 
ATOM     17  C   UNL     1       6.231   5.641  18.344  0.00  0.00    +0.000 A 
ATOM     18  C   UNL     1       7.075   5.975  17.279  0.00  0.00    +0.000 A 
ATOM     19  C   UNL     1       6.872   5.338  16.075  0.00  0.00    +0.000 A 
ATOM     20  C   UNL     1       5.879   4.402  15.912  0.00  0.00    +0.000 A 
ATOM     21  C   UNL     1       5.032   4.050  16.944  0.00  0.00    +0.000 A 
ATOM     22  O   UNL     1       5.847   3.893  14.652  0.00  0.00    +0.000 OA
ATOM     23  C   UNL     1       6.922   4.633  14.034  0.00  0.00    +0.000 C 
ATOM     24  O   UNL     1       7.591   5.536  14.938  0.00  0.00    +0.000 OA
ENDBRANCH  15  16
ENDBRANCH  14  15
ENDBRANCH  12  14
ENDBRANCH   1  11
BRANCH   8  25
ATOM     25  C   UNL     1      -0.468  12.529  21.347  0.00  0.00    +0.000 C 
BRANCH  25  26
ATOM     26  C   UNL     1      -1.929  12.563  20.967  0.00  0.00    +0.000 A 
ATOM     27  C   UNL     1      -2.909  12.859  21.927  0.00  0.00    +0.000 A 
ATOM     28  C   UNL     1      -4.265  12.787  21.600  0.00  0.00    +0.000 A 
ATOM     29  C   UNL     1      -4.653  12.420  20.312  0.00  0.00    +0.000 A 
ATOM     30  C   UNL     1      -3.688  12.147  19.346  0.00  0.00    +0.000 A 
ATOM     31  C   UNL     1      -2.332  12.220  19.669  0.00  0.00    +0.000 A 
ENDBRANCH  25  26
ENDBRANCH   8  25
TORSDOF 6
ENDMDL
MODEL 3
REMARK VINA RESULT:      -8.3      2.176      4.288
REMARK  Name = 
REMARK  6 active torsions:
REMARK  status: ('A' for Active; 'I' for Inactive)
REMARK    1  A    between atoms: C_2  and  C_15
REMARK    2  A    between atoms: N_3  and  C_4
REMARK    3  A    between atoms: C_4  and  C_5
REMARK    4  A    between atoms: C_5  and  C_6
REMARK    5  A    between atoms: N_22  and  C_23
REMARK    6  A    between atoms: C_23  and  C_24
REMARK                            x       y       z     vdW  Elec       q    Type
REMARK                         _______ _______ _______ _____ _____    ______ ____
ROOT
ATOM      1  C   UNL     1       2.957   7.347  18.705  0.00  0.00    +0.000 A 
ATOM      2  C   UNL     1       2.755   8.376  17.787  0.00  0.00    +0.000 A 
ATOM      3  N   UNL     1       1.869   9.401  17.917  0.00  0.00    +0.000 NA
ATOM      4  C   UNL     1       1.187   9.356  19.082  0.00  0.00    +0.000 A 
ATOM      5  C   UNL     1       1.318   8.407  20.089  0.00  0.00    +0.000 A 
ATOM      6  C   UNL     1       0.419   8.830  21.090  0.00  0.00    +0.000 A 
ATOM      7  N   UNL     1      -0.242   9.944  20.763  0.00  0.00    +0.000 NA
ATOM      8  N   UNL     1       0.215  10.226  19.513  0.00  0.00    +0.000 N 
ATOM      9  C   UNL     1       2.232   7.356  19.903  0.00  0.00    +0.000 A 
ENDROOT
BRANCH   1  11
ATOM     10  O   UNL     1       4.777   5.971  19.245  0.00  0.00    +0.000 OA
ATOM     11  C   UNL     1       3.958   6.299  18.395  0.00  0.00    +0.000 C 
ATOM     12  N   UNL     1       3.925   5.769  17.120  0.00  0.00    +0.000 N 
ATOM     13  H   UNL     1       3.389   6.245  16.406  0.00  0.00    +0.000 HD
BRANCH  12  14
ATOM     14  C   UNL     1       4.917   4.788  16.705  0.00  0.00    +0.000 C 
BRANCH  14  15
ATOM     15  C   UNL     1       4.396   3.354  16.806  0.00  0.00    +0.000 C 
BRANCH  15  16
ATOM     16  C   UNL     1       3.394   3.183  17.922  0.00  0.00    +0.000 A 
ATOM     17  C   UNL     1       2.008   3.273  17.659  0.00  0.00    +0.000 A 
ATOM     18  C   UNL     1       1.067   3.101  18.680  0.00  0.00    +0.000 A 
ATOM     19  C   UNL     1       1.537   2.841  19.948  0.00  0.00    +0.000 A 
ATOM     20  C   UNL     1       2.882   2.746  20.215  0.00  0.00    +0.000 A 
ATOM     21  C   UNL     1       3.834   2.908  19.228  0.00  0.00    +0.000 A 
ATOM     22  O   UNL     1       3.135   2.484  21.525  0.00  0.00    +0.000 OA
ATOM     23  C   UNL     1       1.793   2.444  22.057  0.00  0.00    +0.000 C 
ATOM     24  O   UNL     1       0.773   2.648  21.057  0.00  0.00    +0.000 OA
ENDBRANCH  15  16
ENDBRANCH  14  15
ENDBRANCH  12  14
ENDBRANCH   1  11
BRANCH   8  25
ATOM     25  C   UNL     1      -0.327  11.358  18.777  0.00  0.00    +0.000 C 
BRANCH  25  26
ATOM     26  C   UNL     1      -1.692  11.031  18.221  0.00  0.00    +0.000 A 
ATOM     27  C   UNL     1      -1.835  10.093  17.186  0.00  0.00    +0.000 A 
ATOM     28  C   UNL     1      -3.084   9.869  16.602  0.00  0.00    +0.000 A 
ATOM     29  C   UNL     1      -4.199  10.578  17.047  0.00  0.00    +0.000 A 
ATOM     30  C   UNL     1      -4.072  11.493  18.089  0.00  0.00    +0.000 A 
ATOM     31  C   UNL     1      -2.826  11.718  18.676  0.00  0.00    +0.000 A 
ENDBRANCH  25  26
ENDBRANCH   8  25
TORSDOF 6
ENDMDL
MODEL 4
REMARK VINA RESULT:      -8.2      1.937      2.784
REMARK  Name = 
REMARK  6 active torsions:
REMARK  status: ('A' for Active; 'I' for Inactive)
REMARK    1  A    between atoms: C_2  and  C_15
REMARK    2  A    between atoms: N_3  and  C_4
REMARK    3  A    between atoms: C_4  and  C_5
REMARK    4  A    between atoms: C_5  and  C_6
REMARK    5  A    between atoms: N_22  and  C_23
REMARK    6  A    between atoms: C_23  and  C_24
REMARK                            x       y       z     vdW  Elec       q    Type
REMARK                         _______ _______ _______ _____ _____    ______ ____
ROOT
ATOM      1  C   UNL     1       2.311   7.219  19.266  0.00  0.00    +0.000 A 
ATOM      2  C   UNL     1       2.146   8.074  18.178  0.00  0.00    +0.000 A 
ATOM      3  N   UNL     1       1.451   9.245  18.180  0.00  0.00    +0.000 NA
ATOM      4  C   UNL     1       0.934   9.542  19.392  0.00  0.00    +0.000 A 
ATOM      5  C   UNL     1       1.054   8.794  20.556  0.00  0.00    +0.000 A 
ATOM      6  C   UNL     1       0.373   9.551  21.533  0.00  0.00    +0.000 A 
ATOM      7  N   UNL     1      -0.150  10.681  21.048  0.00  0.00    +0.000 NA
ATOM      8  N   UNL     1       0.172  10.635  19.727  0.00  0.00    +0.000 N 
ATOM      9  C   UNL     1       1.765   7.583  20.503  0.00  0.00    +0.000 A 
ENDROOT
BRANCH   1  11
ATOM     10  O   UNL     1       2.551   4.984  18.601  0.00  0.00    +0.000 OA
ATOM     11  C   UNL     1       3.092   5.973  19.083  0.00  0.00    +0.000 C 
ATOM     12  N   UNL     1       4.405   5.996  19.509  0.00  0.00    +0.000 N 
ATOM     13  H   UNL     1       4.713   6.754  20.104  0.00  0.00    +0.000 HD
BRANCH  12  14
ATOM     14  C   UNL     1       5.224   4.795  19.433  0.00  0.00    +0.000 C 
BRANCH  14  15
ATOM     15  C   UNL     1       6.543   5.033  18.696  0.00  0.00    +0.000 C 
BRANCH  15  16
ATOM     16  C   UNL     1       6.438   4.730  17.220  0.00  0.00    +0.000 A 
ATOM     17  C   UNL     1       5.420   3.877  16.736  0.00  0.00    +0.000 A 
ATOM     18  C   UNL     1       5.302   3.601  15.369  0.00  0.00    +0.000 A 
ATOM     19  C   UNL     1       6.207   4.188  14.514  0.00  0.00    +0.000 A 
ATOM     20  C   UNL     1       7.198   5.023  14.973  0.00  0.00    +0.000 A 
ATOM     21  C   UNL     1       7.339   5.317  16.315  0.00  0.00    +0.000 A 
ATOM     22  O   UNL     1       7.984   5.497  13.971  0.00  0.00    +0.000 OA
ATOM     23  C   UNL     1       7.386   4.847  12.828  0.00  0.00    +0.000 C 
ATOM     24  O   UNL     1       6.244   4.032  13.163  0.00  0.00    +0.000 OA
ENDBRANCH  15  16
ENDBRANCH  14  15
ENDBRANCH  12  14
ENDBRANCH   1  11
BRANCH   8  25
ATOM     25  C   UNL     1      -0.286  11.684  18.829  0.00  0.00    +0.000 C 
BRANCH  25  26
ATOM     26  C   UNL     1      -1.686  11.397  18.342  0.00  0.00    +0.000 A 
ATOM     27  C   UNL     1      -2.792  12.025  18.936  0.00  0.00    +0.000 A 
ATOM     28  C   UNL     1      -4.091  11.681  18.556  0.00  0.00    +0.000 A 
ATOM     29  C   UNL     1      -4.296  10.708  17.579  0.00  0.00    +0.000 A 
ATOM     30  C   UNL     1      -3.206  10.096  16.966  0.00  0.00    +0.000 A 
ATOM     31  C   UNL     1      -1.906  10.439  17.342  0.00  0.00    +0.000 A 
ENDBRANCH  25  26
ENDBRANCH   8  25
TORSDOF 6
ENDMDL
MODEL 5
REMARK VINA RESULT:      -8.2      0.980      1.776
REMARK  Name = 
REMARK  6 active torsions:
REMARK  status: ('A' for Active; 'I' for Inactive)
REMARK    1  A    between atoms: C_2  and  C_15
REMARK    2  A    between atoms: N_3  and  C_4
REMARK    3  A    between atoms: C_4  and  C_5
REMARK    4  A    between atoms: C_5  and  C_6
REMARK    5  A    between atoms: N_22  and  C_23
REMARK    6  A    between atoms: C_23  and  C_24
REMARK                            x       y       z     vdW  Elec       q    Type
REMARK                         _______ _______ _______ _____ _____    ______ ____
ROOT
ATOM      1  C   UNL     1       2.279   6.555  19.687  0.00  0.00    +0.000 A 
ATOM      2  C   UNL     1       2.192   7.331  18.532  0.00  0.00    +0.000 A 
ATOM      3  N   UNL     1       1.631   8.569  18.441  0.00  0.00    +0.000 NA
ATOM      4  C   UNL     1       1.170   9.020  19.628  0.00  0.00    +0.000 A 
ATOM      5  C   UNL     1       1.226   8.361  20.850  0.00  0.00    +0.000 A 
ATOM      6  C   UNL     1       0.650   9.267  21.765  0.00  0.00    +0.000 A 
ATOM      7  N   UNL     1       0.247  10.405  21.192  0.00  0.00    +0.000 NA
ATOM      8  N   UNL     1       0.540  10.216  19.877  0.00  0.00    +0.000 N 
ATOM      9  C   UNL     1       1.797   7.078  20.893  0.00  0.00    +0.000 A 
ENDROOT
BRANCH   1  11
ATOM     10  O   UNL     1       3.619   4.821  20.522  0.00  0.00    +0.000 OA
ATOM     11  C   UNL     1       2.913   5.218  19.602  0.00  0.00    +0.000 C 
ATOM     12  N   UNL     1       2.689   4.499  18.444  0.00  0.00    +0.000 N 
ATOM     13  H   UNL     1       2.302   4.975  17.640  0.00  0.00    +0.000 HD
BRANCH  12  14
ATOM     14  C   UNL     1       3.332   3.208  18.245  0.00  0.00    +0.000 C 
BRANCH  14  15
ATOM     15  C   UNL     1       4.381   3.244  17.133  0.00  0.00    +0.000 C 
BRANCH  15  16
ATOM     16  C   UNL     1       5.172   4.531  17.131  0.00  0.00    +0.000 A 
ATOM     17  C   UNL     1       4.866   5.556  16.208  0.00  0.00    +0.000 A 
ATOM     18  C   UNL     1       5.580   6.760  16.205  0.00  0.00    +0.000 A 
ATOM     19  C   UNL     1       6.588   6.911  17.130  0.00  0.00    +0.000 A 
ATOM     20  C   UNL     1       6.891   5.922  18.036  0.00  0.00    +0.000 A 
ATOM     21  C   UNL     1       6.203   4.726  18.066  0.00  0.00    +0.000 A 
ATOM     22  O   UNL     1       7.915   6.269  18.860  0.00  0.00    +0.000 OA
ATOM     23  C   UNL     1       8.235   7.583  18.356  0.00  0.00    +0.000 C 
ATOM     24  O   UNL     1       7.382   8.006  17.272  0.00  0.00    +0.000 OA
ENDBRANCH  15  16
ENDBRANCH  14  15
ENDBRANCH  12  14
ENDBRANCH   1  11
BRANCH   8  25
ATOM     25  C   UNL     1       0.186  11.231  18.898  0.00  0.00    +0.000 C 
BRANCH  25  26
ATOM     26  C   UNL     1      -1.215  11.010  18.379  0.00  0.00    +0.000 A 
ATOM     27  C   UNL     1      -1.460  10.073  17.363  0.00  0.00    +0.000 A 
ATOM     28  C   UNL     1      -2.737   9.944  16.812  0.00  0.00    +0.000 A 
ATOM     29  C   UNL     1      -3.779  10.748  17.271  0.00  0.00    +0.000 A 
ATOM     30  C   UNL     1      -3.552  11.664  18.295  0.00  0.00    +0.000 A 
ATOM     31  C   UNL     1      -2.277  11.794  18.849  0.00  0.00    +0.000 A 
ENDBRANCH  25  26
ENDBRANCH   8  25
TORSDOF 6
ENDMDL
MODEL 6
REMARK VINA RESULT:      -8.2      0.978      1.422
REMARK  Name = 
REMARK  6 active torsions:
REMARK  status: ('A' for Active; 'I' for Inactive)
REMARK    1  A    between atoms: C_2  and  C_15
REMARK    2  A    between atoms: N_3  and  C_4
REMARK    3  A    between atoms: C_4  and  C_5
REMARK    4  A    between atoms: C_5  and  C_6
REMARK    5  A    between atoms: N_22  and  C_23
REMARK    6  A    between atoms: C_23  and  C_24
REMARK                            x       y       z     vdW  Elec       q    Type
REMARK                         _______ _______ _______ _____ _____    ______ ____
ROOT
ATOM      1  C   UNL     1       2.069   6.919  19.820  0.00  0.00    +0.000 A 
ATOM      2  C   UNL     1       2.010   7.908  18.840  0.00  0.00    +0.000 A 
ATOM      3  N   UNL     1       1.516   9.166  19.003  0.00  0.00    +0.000 NA
ATOM      4  C   UNL     1       1.093   9.401  20.264  0.00  0.00    +0.000 A 
ATOM      5  C   UNL     1       1.127   8.514  21.334  0.00  0.00    +0.000 A 
ATOM      6  C   UNL     1       0.610   9.253  22.419  0.00  0.00    +0.000 A 
ATOM      7  N   UNL     1       0.263  10.499  22.086  0.00  0.00    +0.000 NA
ATOM      8  N   UNL     1       0.530  10.555  20.753  0.00  0.00    +0.000 N 
ATOM      9  C   UNL     1       1.630   7.221  21.115  0.00  0.00    +0.000 A 
ENDROOT
BRANCH   1  11
ATOM     10  O   UNL     1       3.146   4.900  20.333  0.00  0.00    +0.000 OA
ATOM     11  C   UNL     1       2.630   5.594  19.465  0.00  0.00    +0.000 C 
ATOM     12  N   UNL     1       2.563   5.231  18.134  0.00  0.00    +0.000 N 
ATOM     13  H   UNL     1       2.344   5.937  17.444  0.00  0.00    +0.000 HD
BRANCH  12  14
ATOM     14  C   UNL     1       3.154   3.979  17.683  0.00  0.00    +0.000 C 
BRANCH  14  15
ATOM     15  C   UNL     1       4.307   4.198  16.703  0.00  0.00    +0.000 C 
BRANCH  15  16
ATOM     16  C   UNL     1       5.409   5.046  17.293  0.00  0.00    +0.000 A 
ATOM     17  C   UNL     1       6.161   4.576  18.394  0.00  0.00    +0.000 A 
ATOM     18  C   UNL     1       7.196   5.344  18.940  0.00  0.00    +0.000 A 
ATOM     19  C   UNL     1       7.455   6.570  18.370  0.00  0.00    +0.000 A 
ATOM     20  C   UNL     1       6.734   7.035  17.296  0.00  0.00    +0.000 A 
ATOM     21  C   UNL     1       5.710   6.299  16.734  0.00  0.00    +0.000 A 
ATOM     22  O   UNL     1       7.147   8.262  16.885  0.00  0.00    +0.000 OA
ATOM     23  C   UNL     1       8.200   8.526  17.836  0.00  0.00    +0.000 C 
ATOM     24  O   UNL     1       8.416   7.447  18.768  0.00  0.00    +0.000 OA
ENDBRANCH  15  16
ENDBRANCH  14  15
ENDBRANCH  12  14
ENDBRANCH   1  11
BRANCH   8  25
ATOM     25  C   UNL     1       0.220  11.758  19.997  0.00  0.00    +0.000 C 
BRANCH  25  26
ATOM     26  C   UNL     1      -1.174  11.684  19.422  0.00  0.00    +0.000 A 
ATOM     27  C   UNL     1      -1.401  11.081  18.175  0.00  0.00    +0.000 A 
ATOM     28  C   UNL     1      -2.672  11.106  17.597  0.00  0.00    +0.000 A 
ATOM     29  C   UNL     1      -3.727  11.733  18.259  0.00  0.00    +0.000 A 
ATOM     30  C   UNL     1      -3.518  12.314  19.507  0.00  0.00    +0.000 A 
ATOM     31  C   UNL     1      -2.249  12.289  20.089  0.00  0.00    +0.000 A 
ENDBRANCH  25  26
ENDBRANCH   8  25
TORSDOF 6
ENDMDL
MODEL 7
REMARK VINA RESULT:      -8.2      2.001      3.039
REMARK  Name = 
REMARK  6 active torsions:
REMARK  status: ('A' for Active; 'I' for Inactive)
REMARK    1  A    between atoms: C_2  and  C_15
REMARK    2  A    between atoms: N_3  and  C_4
REMARK    3  A    between atoms: C_4  and  C_5
REMARK    4  A    between atoms: C_5  and  C_6
REMARK    5  A    between atoms: N_22  and  C_23
REMARK    6  A    between atoms: C_23  and  C_24
REMARK                            x       y       z     vdW  Elec       q    Type
REMARK                         _______ _______ _______ _____ _____    ______ ____
ROOT
ATOM      1  C   UNL     1       1.936   7.637  19.522  0.00  0.00    +0.000 A 
ATOM      2  C   UNL     1       1.750   8.686  18.622  0.00  0.00    +0.000 A 
ATOM      3  N   UNL     1       1.118   9.862  18.886  0.00  0.00    +0.000 NA
ATOM      4  C   UNL     1       0.689   9.948  20.164  0.00  0.00    +0.000 A 
ATOM      5  C   UNL     1       0.841   8.992  21.161  0.00  0.00    +0.000 A 
ATOM      6  C   UNL     1       0.259   9.580  22.303  0.00  0.00    +0.000 A 
ATOM      7  N   UNL     1      -0.234  10.800  22.071  0.00  0.00    +0.000 NA
ATOM      8  N   UNL     1       0.005  10.989  20.745  0.00  0.00    +0.000 N 
ATOM      9  C   UNL     1       1.484   7.786  20.838  0.00  0.00    +0.000 A 
ENDROOT
BRANCH   1  11
ATOM     10  O   UNL     1       2.359   5.930  17.971  0.00  0.00    +0.000 OA
ATOM     11  C   UNL     1       2.639   6.417  19.060  0.00  0.00    +0.000 C 
ATOM     12  N   UNL     1       3.568   5.873  19.925  0.00  0.00    +0.000 N 
ATOM     13  H   UNL     1       3.579   6.181  20.889  0.00  0.00    +0.000 HD
BRANCH  12  14
ATOM     14  C   UNL     1       4.254   4.635  19.585  0.00  0.00    +0.000 C 
BRANCH  14  15
ATOM     15  C   UNL     1       5.678   4.876  19.082  0.00  0.00    +0.000 C 
BRANCH  15  16
ATOM     16  C   UNL     1       5.807   4.652  17.594  0.00  0.00    +0.000 A 
ATOM     17  C   UNL     1       4.862   3.859  16.905  0.00  0.00    +0.000 A 
ATOM     18  C   UNL     1       4.960   3.656  15.524  0.00  0.00    +0.000 A 
ATOM     19  C   UNL     1       6.006   4.257  14.860  0.00  0.00    +0.000 A 
ATOM     20  C   UNL     1       6.928   5.035  15.518  0.00  0.00    +0.000 A 
ATOM     21  C   UNL     1       6.856   5.255  16.879  0.00  0.00    +0.000 A 
ATOM     22  O   UNL     1       7.877   5.535  14.683  0.00  0.00    +0.000 OA
ATOM     23  C   UNL     1       7.458   4.965  13.425  0.00  0.00    +0.000 C 
ATOM     24  O   UNL     1       6.258   4.170  13.526  0.00  0.00    +0.000 OA
ENDBRANCH  15  16
ENDBRANCH  14  15
ENDBRANCH  12  14
ENDBRANCH   1  11
BRANCH   8  25
ATOM     25  C   UNL     1      -0.451  12.203  20.088  0.00  0.00    +0.000 C 
BRANCH  25  26
ATOM     26  C   UNL     1      -1.893  12.071  19.660  0.00  0.00    +0.000 A 
ATOM     27  C   UNL     1      -2.224  11.437  18.452  0.00  0.00    +0.000 A 
ATOM     28  C   UNL     1      -3.548  11.407  18.008  0.00  0.00    +0.000 A 
ATOM     29  C   UNL     1      -4.552  12.009  18.766  0.00  0.00    +0.000 A 
ATOM     30  C   UNL     1      -4.238  12.620  19.977  0.00  0.00    +0.000 A 
ATOM     31  C   UNL     1      -2.916  12.650  20.425  0.00  0.00    +0.000 A 
ENDBRANCH  25  26
ENDBRANCH   8  25
TORSDOF 6
ENDMDL
MODEL 8
REMARK VINA RESULT:      -8.1      2.010      2.945
REMARK  Name = 
REMARK  6 active torsions:
REMARK  status: ('A' for Active; 'I' for Inactive)
REMARK    1  A    between atoms: C_2  and  C_15
REMARK    2  A    between atoms: N_3  and  C_4
REMARK    3  A    between atoms: C_4  and  C_5
REMARK    4  A    between atoms: C_5  and  C_6
REMARK    5  A    between atoms: N_22  and  C_23
REMARK    6  A    between atoms: C_23  and  C_24
REMARK                            x       y       z     vdW  Elec       q    Type
REMARK                         _______ _______ _______ _____ _____    ______ ____
ROOT
ATOM      1  C   UNL     1       1.882   7.923  19.273  0.00  0.00    +0.000 A 
ATOM      2  C   UNL     1       1.593   9.013  18.454  0.00  0.00    +0.000 A 
ATOM      3  N   UNL     1       1.009  10.178  18.849  0.00  0.00    +0.000 NA
ATOM      4  C   UNL     1       0.745  10.205  20.174  0.00  0.00    +0.000 A 
ATOM      5  C   UNL     1       1.012   9.202  21.098  0.00  0.00    +0.000 A 
ATOM      6  C   UNL     1       0.584   9.738  22.331  0.00  0.00    +0.000 A 
ATOM      7  N   UNL     1       0.076  10.968  22.219  0.00  0.00    +0.000 NA
ATOM      8  N   UNL     1       0.148  11.219  20.884  0.00  0.00    +0.000 N 
ATOM      9  C   UNL     1       1.600   8.011  20.642  0.00  0.00    +0.000 A 
ENDROOT
BRANCH   1  11
ATOM     10  O   UNL     1       3.144   6.831  17.626  0.00  0.00    +0.000 OA
ATOM     11  C   UNL     1       2.511   6.724  18.671  0.00  0.00    +0.000 C 
ATOM     12  N   UNL     1       2.311   5.525  19.325  0.00  0.00    +0.000 N 
ATOM     13  H   UNL     1       1.594   5.469  20.036  0.00  0.00    +0.000 HD
BRANCH  12  14
ATOM     14  C   UNL     1       2.831   4.286  18.765  0.00  0.00    +0.000 C 
BRANCH  14  15
ATOM     15  C   UNL     1       4.291   4.039  19.151  0.00  0.00    +0.000 C 
BRANCH  15  16
ATOM     16  C   UNL     1       5.247   4.400  18.039  0.00  0.00    +0.000 A 
ATOM     17  C   UNL     1       6.441   5.102  18.323  0.00  0.00    +0.000 A 
ATOM     18  C   UNL     1       7.345   5.428  17.305  0.00  0.00    +0.000 A 
ATOM     19  C   UNL     1       7.033   5.041  16.022  0.00  0.00    +0.000 A 
ATOM     20  C   UNL     1       5.878   4.353  15.734  0.00  0.00    +0.000 A 
ATOM     21  C   UNL     1       4.969   4.015  16.717  0.00  0.00    +0.000 A 
ATOM     22  O   UNL     1       5.759   4.066  14.411  0.00  0.00    +0.000 OA
ATOM     23  C   UNL     1       6.964   4.671  13.894  0.00  0.00    +0.000 C 
ATOM     24  O   UNL     1       7.788   5.272  14.914  0.00  0.00    +0.000 OA
ENDBRANCH  15  16
ENDBRANCH  14  15
ENDBRANCH  12  14
ENDBRANCH   1  11
BRANCH   8  25
ATOM     25  C   UNL     1      -0.377  12.464  20.347  0.00  0.00    +0.000 C 
BRANCH  25  26
ATOM     26  C   UNL     1      -1.855  12.342  20.062  0.00  0.00    +0.000 A 
ATOM     27  C   UNL     1      -2.306  11.822  18.839  0.00  0.00    +0.000 A 
ATOM     28  C   UNL     1      -3.669  11.807  18.536  0.00  0.00    +0.000 A 
ATOM     29  C   UNL     1      -4.593  12.310  19.451  0.00  0.00    +0.000 A 
ATOM     30  C   UNL     1      -4.158  12.807  20.677  0.00  0.00    +0.000 A 
ATOM     31  C   UNL     1      -2.796  12.822  20.984  0.00  0.00    +0.000 A 
ENDBRANCH  25  26
ENDBRANCH   8  25
TORSDOF 6
ENDMDL
MODEL 9
REMARK VINA RESULT:      -8.1      2.019      2.903
REMARK  Name = 
REMARK  6 active torsions:
REMARK  status: ('A' for Active; 'I' for Inactive)
REMARK    1  A    between atoms: C_2  and  C_15
REMARK    2  A    between atoms: N_3  and  C_4
REMARK    3  A    between atoms: C_4  and  C_5
REMARK    4  A    between atoms: C_5  and  C_6
REMARK    5  A    between atoms: N_22  and  C_23
REMARK    6  A    between atoms: C_23  and  C_24
REMARK                            x       y       z     vdW  Elec       q    Type
REMARK                         _______ _______ _______ _____ _____    ______ ____
ROOT
ATOM      1  C   UNL     1       2.183   6.952  19.897  0.00  0.00    +0.000 A 
ATOM      2  C   UNL     1       2.135   7.758  18.760  0.00  0.00    +0.000 A 
ATOM      3  N   UNL     1       1.485   8.950  18.652  0.00  0.00    +0.000 NA
ATOM      4  C   UNL     1       0.886   9.323  19.804  0.00  0.00    +0.000 A 
ATOM      5  C   UNL     1       0.888   8.629  21.008  0.00  0.00    +0.000 A 
ATOM      6  C   UNL     1       0.161   9.456  21.891  0.00  0.00    +0.000 A 
ATOM      7  N   UNL     1      -0.281  10.577  21.314  0.00  0.00    +0.000 NA
ATOM      8  N   UNL     1       0.141  10.456  20.026  0.00  0.00    +0.000 N 
ATOM      9  C   UNL     1       1.556   7.395  21.068  0.00  0.00    +0.000 A 
ENDROOT
BRANCH   1  11
ATOM     10  O   UNL     1       2.417   4.650  20.272  0.00  0.00    +0.000 OA
ATOM     11  C   UNL     1       2.929   5.674  19.835  0.00  0.00    +0.000 C 
ATOM     12  N   UNL     1       4.203   5.725  19.303  0.00  0.00    +0.000 N 
ATOM     13  H   UNL     1       4.647   6.626  19.183  0.00  0.00    +0.000 HD
BRANCH  12  14
ATOM     14  C   UNL     1       5.034   4.531  19.269  0.00  0.00    +0.000 C 
BRANCH  14  15
ATOM     15  C   UNL     1       4.776   3.676  18.027  0.00  0.00    +0.000 C 
BRANCH  15  16
ATOM     16  C   UNL     1       5.562   4.151  16.829  0.00  0.00    +0.000 A 
ATOM     17  C   UNL     1       6.519   5.183  16.965  0.00  0.00    +0.000 A 
ATOM     18  C   UNL     1       7.266   5.622  15.866  0.00  0.00    +0.000 A 
ATOM     19  C   UNL     1       7.039   5.016  14.651  0.00  0.00    +0.000 A 
ATOM     20  C   UNL     1       6.115   4.008  14.508  0.00  0.00    +0.000 A 
ATOM     21  C   UNL     1       5.365   3.551  15.573  0.00  0.00    +0.000 A 
ATOM     22  O   UNL     1       6.045   3.545  13.232  0.00  0.00    +0.000 OA
ATOM     23  C   UNL     1       7.017   4.392  12.583  0.00  0.00    +0.000 C 
ATOM     24  O   UNL     1       7.668   5.313  13.482  0.00  0.00    +0.000 OA
ENDBRANCH  15  16
ENDBRANCH  14  15
ENDBRANCH  12  14
ENDBRANCH   1  11
BRANCH   8  25
ATOM     25  C   UNL     1      -0.207  11.473  19.047  0.00  0.00    +0.000 C 
BRANCH  25  26
ATOM     26  C   UNL     1      -1.519  11.143  18.376  0.00  0.00    +0.000 A 
ATOM     27  C   UNL     1      -1.576  10.186  17.352  0.00  0.00    +0.000 A 
ATOM     28  C   UNL     1      -2.769   9.958  16.661  0.00  0.00    +0.000 A 
ATOM     29  C   UNL     1      -3.913  10.683  16.989  0.00  0.00    +0.000 A 
ATOM     30  C   UNL     1      -3.874  11.619  18.019  0.00  0.00    +0.000 A 
ATOM     31  C   UNL     1      -2.684  11.848  18.713  0.00  0.00    +0.000 A 
ENDBRANCH  25  26
ENDBRANCH   8  25
TORSDOF 6
ENDMDL
