MODEL 1
REMARK VINA RESULT:      -8.9      0.000      0.000
REMARK  Name = 
REMARK  3 active torsions:
REMARK  status: ('A' for Active; 'I' for Inactive)
REMARK    1  A    between atoms: C_1  and  C_2
REMARK    2  A    between atoms: C_5  and  C_6
REMARK    3  A    between atoms: C_11  and  C_13
REMARK                            x       y       z     vdW  Elec       q    Type
REMARK                         _______ _______ _______ _____ _____    ______ ____
ROOT
ATOM      1  C   UNL     1       3.551   5.456  18.321  0.00  0.00    +0.000 A 
ATOM      2  C   UNL     1       3.155   4.550  19.288  0.00  0.00    +0.000 A 
ATOM      3  S   UNL     1       2.244   5.354  20.503  0.00  0.00    +0.000 S 
ATOM      4  C   UNL     1       2.382   6.800  19.612  0.00  0.00    +0.000 A 
ATOM      5  N   UNL     1       1.719   7.861  20.153  0.00  0.00    +0.000 N 
ATOM      6  C   UNL     1       1.519   9.042  19.467  0.00  0.00    +0.000 C 
ATOM      7  O   UNL     1       1.915   9.318  18.338  0.00  0.00    +0.000 OA
ATOM      8  N   UNL     1       3.084   6.747  18.515  0.00  0.00    +0.000 NA
ATOM      9  H   UNL     1       1.226   7.710  21.025  0.00  0.00    +0.000 HD
ENDROOT
BRANCH   6  10
ATOM     10  C   UNL     1       0.768  10.064  20.322  0.00  0.00    +0.000 C 
ATOM     11  C   UNL     1      -0.636  10.333  19.791  0.00  0.00    +0.000 C 
ATOM     12  C   UNL     1      -1.225  11.380  20.696  0.00  0.00    +0.000 A 
ATOM     13  C   UNL     1      -2.048  12.401  20.215  0.00  0.00    +0.000 A 
ATOM     14  C   UNL     1      -2.512  13.388  21.087  0.00  0.00    +0.000 A 
ATOM     15  C   UNL     1      -2.177  13.348  22.443  0.00  0.00    +0.000 A 
ATOM     16  C   UNL     1      -1.392  12.308  22.937  0.00  0.00    +0.000 A 
ATOM     17  C   UNL     1      -0.915  11.327  22.063  0.00  0.00    +0.000 A 
ATOM     18  C   UNL     1      -0.064  10.228  22.590  0.00  0.00    +0.000 C 
ATOM     19  O   UNL     1      -0.047   9.935  23.775  0.00  0.00    +0.000 OA
ATOM     20  O   UNL     1       0.702   9.575  21.680  0.00  0.00    +0.000 OA
ENDBRANCH   6  10
BRANCH   1  25
ATOM     21  C   UNL     1       6.754   4.274  13.657  0.00  0.00    +0.000 C 
ATOM     22  C   UNL     1       5.931   4.579  14.873  0.00  0.00    +0.000 A 
ATOM     23  C   UNL     1       5.593   5.895  15.198  0.00  0.00    +0.000 A 
ATOM     24  C   UNL     1       4.818   6.166  16.329  0.00  0.00    +0.000 A 
ATOM     25  C   UNL     1       4.357   5.128  17.150  0.00  0.00    +0.000 A 
ATOM     26  C   UNL     1       4.707   3.811  16.829  0.00  0.00    +0.000 A 
ATOM     27  C   UNL     1       5.486   3.540  15.699  0.00  0.00    +0.000 A 
ENDBRANCH   1  25
TORSDOF 2
ENDMDL
MODEL 2
REMARK VINA RESULT:      -8.4      1.343      1.743
REMARK  Name = 
REMARK  3 active torsions:
REMARK  status: ('A' for Active; 'I' for Inactive)
REMARK    1  A    between atoms: C_1  and  C_2
REMARK    2  A    between atoms: C_5  and  C_6
REMARK    3  A    between atoms: C_11  and  C_13
REMARK                            x       y       z     vdW  Elec       q    Type
REMARK                         _______ _______ _______ _____ _____    ______ ____
ROOT
ATOM      1  C   UNL     1       3.396   5.741  18.371  0.00  0.00    +0.000 A 
ATOM      2  C   UNL     1       2.993   4.908  19.399  0.00  0.00    +0.000 A 
ATOM      3  S   UNL     1       2.074   5.799  20.546  0.00  0.00    +0.000 S 
ATOM      4  C   UNL     1       2.219   7.176  19.553  0.00  0.00    +0.000 A 
ATOM      5  N   UNL     1       1.553   8.273  20.010  0.00  0.00    +0.000 N 
ATOM      6  C   UNL     1       1.357   9.401  19.238  0.00  0.00    +0.000 C 
ATOM      7  O   UNL     1       1.760   9.593  18.094  0.00  0.00    +0.000 OA
ATOM      8  N   UNL     1       2.928   7.042  18.467  0.00  0.00    +0.000 NA
ATOM      9  H   UNL     1       1.054   8.187  20.887  0.00  0.00    +0.000 HD
ENDROOT
BRANCH   6  10
ATOM     10  C   UNL     1       0.601  10.483  20.010  0.00  0.00    +0.000 C 
ATOM     11  C   UNL     1       0.370  10.091  21.466  0.00  0.00    +0.000 C 
ATOM     12  C   UNL     1      -0.417  11.218  22.076  0.00  0.00    +0.000 A 
ATOM     13  C   UNL     1      -1.428  10.997  23.013  0.00  0.00    +0.000 A 
ATOM     14  C   UNL     1      -2.175  12.074  23.497  0.00  0.00    +0.000 A 
ATOM     15  C   UNL     1      -1.901  13.374  23.065  0.00  0.00    +0.000 A 
ATOM     16  C   UNL     1      -0.865  13.606  22.163  0.00  0.00    +0.000 A 
ATOM     17  C   UNL     1      -0.126  12.528  21.667  0.00  0.00    +0.000 A 
ATOM     18  C   UNL     1       0.968  12.777  20.693  0.00  0.00    +0.000 C 
ATOM     19  O   UNL     1       1.486  13.875  20.568  0.00  0.00    +0.000 OA
ATOM     20  O   UNL     1       1.352  11.715  19.940  0.00  0.00    +0.000 OA
ENDBRANCH   6  10
BRANCH   1  25
ATOM     21  C   UNL     1       6.639   4.220  13.834  0.00  0.00    +0.000 C 
ATOM     22  C   UNL     1       5.805   4.612  15.018  0.00  0.00    +0.000 A 
ATOM     23  C   UNL     1       5.558   5.957  15.307  0.00  0.00    +0.000 A 
ATOM     24  C   UNL     1       4.773   6.310  16.407  0.00  0.00    +0.000 A 
ATOM     25  C   UNL     1       4.210   5.328  17.233  0.00  0.00    +0.000 A 
ATOM     26  C   UNL     1       4.467   3.981  16.948  0.00  0.00    +0.000 A 
ATOM     27  C   UNL     1       5.257   3.628  15.848  0.00  0.00    +0.000 A 
ENDBRANCH   1  25
TORSDOF 2
ENDMDL
MODEL 3
REMARK VINA RESULT:      -8.3      1.735      2.411
REMARK  Name = 
REMARK  3 active torsions:
REMARK  status: ('A' for Active; 'I' for Inactive)
REMARK    1  A    between atoms: C_1  and  C_2
REMARK    2  A    between atoms: C_5  and  C_6
REMARK    3  A    between atoms: C_11  and  C_13
REMARK                            x       y       z     vdW  Elec       q    Type
REMARK                         _______ _______ _______ _____ _____    ______ ____
ROOT
ATOM      1  C   UNL     1       4.593   5.180  17.272  0.00  0.00    +0.000 A 
ATOM      2  C   UNL     1       4.489   4.294  18.329  0.00  0.00    +0.000 A 
ATOM      3  S   UNL     1       3.571   5.003  19.597  0.00  0.00    +0.000 S 
ATOM      4  C   UNL     1       3.325   6.374  18.617  0.00  0.00    +0.000 A 
ATOM      5  N   UNL     1       2.525   7.328  19.172  0.00  0.00    +0.000 N 
ATOM      6  C   UNL     1       2.023   8.392  18.450  0.00  0.00    +0.000 C 
ATOM      7  O   UNL     1       2.234   8.648  17.268  0.00  0.00    +0.000 OA
ATOM      8  N   UNL     1       3.903   6.369  17.448  0.00  0.00    +0.000 NA
ATOM      9  H   UNL     1       2.167   7.155  20.104  0.00  0.00    +0.000 HD
ENDROOT
BRANCH   6  10
ATOM     10  C   UNL     1       1.180   9.316  19.329  0.00  0.00    +0.000 C 
ATOM     11  C   UNL     1       1.358   9.013  20.813  0.00  0.00    +0.000 C 
ATOM     12  C   UNL     1       0.441   9.958  21.540  0.00  0.00    +0.000 A 
ATOM     13  C   UNL     1      -0.266   9.578  22.682  0.00  0.00    +0.000 A 
ATOM     14  C   UNL     1      -1.157  10.473  23.278  0.00  0.00    +0.000 A 
ATOM     15  C   UNL     1      -1.329  11.756  22.751  0.00  0.00    +0.000 A 
ATOM     16  C   UNL     1      -0.594  12.156  21.636  0.00  0.00    +0.000 A 
ATOM     17  C   UNL     1       0.288  11.257  21.031  0.00  0.00    +0.000 A 
ATOM     18  C   UNL     1       1.058  11.681  19.832  0.00  0.00    +0.000 C 
ATOM     19  O   UNL     1       1.231  12.858  19.558  0.00  0.00    +0.000 OA
ATOM     20  O   UNL     1       1.548  10.685  19.053  0.00  0.00    +0.000 OA
ENDBRANCH   6  10
BRANCH   1  25
ATOM     21  C   UNL     1       7.374   4.097  12.322  0.00  0.00    +0.000 C 
ATOM     22  C   UNL     1       6.651   4.388  13.604  0.00  0.00    +0.000 A 
ATOM     23  C   UNL     1       5.331   3.972  13.792  0.00  0.00    +0.000 A 
ATOM     24  C   UNL     1       4.670   4.242  14.994  0.00  0.00    +0.000 A 
ATOM     25  C   UNL     1       5.319   4.921  16.035  0.00  0.00    +0.000 A 
ATOM     26  C   UNL     1       6.639   5.346  15.839  0.00  0.00    +0.000 A 
ATOM     27  C   UNL     1       7.299   5.080  14.635  0.00  0.00    +0.000 A 
ENDBRANCH   1  25
TORSDOF 2
ENDMDL
MODEL 4
REMARK VINA RESULT:      -8.2      2.479      3.842
REMARK  Name = 
REMARK  3 active torsions:
REMARK  status: ('A' for Active; 'I' for Inactive)
REMARK    1  A    between atoms: C_1  and  C_2
REMARK    2  A    between atoms: C_5  and  C_6
REMARK    3  A    between atoms: C_11  and  C_13
REMARK                            x       y       z     vdW  Elec       q    Type
REMARK                         _______ _______ _______ _____ _____    ______ ____
ROOT
ATOM      1  C   UNL     1       2.320   7.513  18.929  0.00  0.00    +0.000 A 
ATOM      2  C   UNL     1       2.590   8.270  17.804  0.00  0.00    +0.000 A 
ATOM      3  S   UNL     1       1.771   9.777  17.904  0.00  0.00    +0.000 S 
ATOM      4  C   UNL     1       1.202   9.335  19.448  0.00  0.00    +0.000 A 
ATOM      5  N   UNL     1       0.468  10.297  20.075  0.00  0.00    +0.000 N 
ATOM      6  C   UNL     1       0.122  10.218  21.410  0.00  0.00    +0.000 C 
ATOM      7  O   UNL     1       0.381   9.304  22.187  0.00  0.00    +0.000 OA
ATOM      8  N   UNL     1       1.530   8.147  19.875  0.00  0.00    +0.000 NA
ATOM      9  H   UNL     1       0.311  11.165  19.578  0.00  0.00    +0.000 HD
ENDROOT
BRANCH   6  10
ATOM     10  C   UNL     1      -0.720  11.420  21.840  0.00  0.00    +0.000 C 
ATOM     11  C   UNL     1      -1.491  11.147  23.128  0.00  0.00    +0.000 C 
ATOM     12  C   UNL     1      -2.300  12.386  23.395  0.00  0.00    +0.000 A 
ATOM     13  C   UNL     1      -3.593  12.332  23.917  0.00  0.00    +0.000 A 
ATOM     14  C   UNL     1      -4.326  13.510  24.081  0.00  0.00    +0.000 A 
ATOM     15  C   UNL     1      -3.764  14.744  23.747  0.00  0.00    +0.000 A 
ATOM     16  C   UNL     1      -2.458  14.809  23.265  0.00  0.00    +0.000 A 
ATOM     17  C   UNL     1      -1.728  13.630  23.087  0.00  0.00    +0.000 A 
ATOM     18  C   UNL     1      -0.341  13.701  22.558  0.00  0.00    +0.000 C 
ATOM     19  O   UNL     1       0.316  14.729  22.601  0.00  0.00    +0.000 OA
ATOM     20  O   UNL     1       0.151  12.560  22.014  0.00  0.00    +0.000 OA
ENDBRANCH   6  10
BRANCH   1  25
ATOM     21  C   UNL     1       4.268   2.174  19.983  0.00  0.00    +0.000 C 
ATOM     22  C   UNL     1       3.758   3.556  19.701  0.00  0.00    +0.000 A 
ATOM     23  C   UNL     1       2.711   4.100  20.450  0.00  0.00    +0.000 A 
ATOM     24  C   UNL     1       2.250   5.392  20.184  0.00  0.00    +0.000 A 
ATOM     25  C   UNL     1       2.832   6.169  19.173  0.00  0.00    +0.000 A 
ATOM     26  C   UNL     1       3.873   5.617  18.416  0.00  0.00    +0.000 A 
ATOM     27  C   UNL     1       4.332   4.322  18.680  0.00  0.00    +0.000 A 
ENDBRANCH   1  25
TORSDOF 2
ENDMDL
MODEL 5
REMARK VINA RESULT:      -8.1      3.227     10.520
REMARK  Name = 
REMARK  3 active torsions:
REMARK  status: ('A' for Active; 'I' for Inactive)
REMARK    1  A    between atoms: C_1  and  C_2
REMARK    2  A    between atoms: C_5  and  C_6
REMARK    3  A    between atoms: C_11  and  C_13
REMARK                            x       y       z     vdW  Elec       q    Type
REMARK                         _______ _______ _______ _____ _____    ______ ____
ROOT
ATOM      1  C   UNL     1       2.765   6.226  19.155  0.00  0.00    +0.000 A 
ATOM      2  C   UNL     1       2.884   5.062  19.893  0.00  0.00    +0.000 A 
ATOM      3  S   UNL     1       3.718   3.872  18.977  0.00  0.00    +0.000 S 
ATOM      4  C   UNL     1       3.918   5.012  17.727  0.00  0.00    +0.000 A 
ATOM      5  N   UNL     1       4.644   4.562  16.665  0.00  0.00    +0.000 N 
ATOM      6  C   UNL     1       5.108   5.402  15.672  0.00  0.00    +0.000 C 
ATOM      7  O   UNL     1       4.923   6.611  15.579  0.00  0.00    +0.000 OA
ATOM      8  N   UNL     1       3.381   6.185  17.914  0.00  0.00    +0.000 NA
ATOM      9  H   UNL     1       4.980   3.607  16.697  0.00  0.00    +0.000 HD
ENDROOT
BRANCH   6  10
ATOM     10  C   UNL     1       5.869   4.626  14.595  0.00  0.00    +0.000 C 
ATOM     11  C   UNL     1       4.955   4.179  13.459  0.00  0.00    +0.000 C 
ATOM     12  C   UNL     1       5.825   3.397  12.514  0.00  0.00    +0.000 A 
ATOM     13  C   UNL     1       5.365   2.259  11.848  0.00  0.00    +0.000 A 
ATOM     14  C   UNL     1       6.236   1.530  11.035  0.00  0.00    +0.000 A 
ATOM     15  C   UNL     1       7.559   1.946  10.865  0.00  0.00    +0.000 A 
ATOM     16  C   UNL     1       8.012   3.106  11.492  0.00  0.00    +0.000 A 
ATOM     17  C   UNL     1       7.146   3.828  12.317  0.00  0.00    +0.000 A 
ATOM     18  C   UNL     1       7.636   5.055  12.997  0.00  0.00    +0.000 C 
ATOM     19  O   UNL     1       8.625   5.658  12.610  0.00  0.00    +0.000 OA
ATOM     20  O   UNL     1       6.930   5.461  14.082  0.00  0.00    +0.000 OA
ENDBRANCH   6  10
BRANCH   1  25
ATOM     21  C   UNL     1       0.098  10.982  21.072  0.00  0.00    +0.000 C 
ATOM     22  C   UNL     1       0.799   9.752  20.575  0.00  0.00    +0.000 A 
ATOM     23  C   UNL     1       0.981   8.645  21.408  0.00  0.00    +0.000 A 
ATOM     24  C   UNL     1       1.629   7.502  20.931  0.00  0.00    +0.000 A 
ATOM     25  C   UNL     1       2.096   7.438  19.611  0.00  0.00    +0.000 A 
ATOM     26  C   UNL     1       1.922   8.553  18.782  0.00  0.00    +0.000 A 
ATOM     27  C   UNL     1       1.277   9.699  19.260  0.00  0.00    +0.000 A 
ENDBRANCH   1  25
TORSDOF 2
ENDMDL
MODEL 6
REMARK VINA RESULT:      -8.0      1.199      1.607
REMARK  Name = 
REMARK  3 active torsions:
REMARK  status: ('A' for Active; 'I' for Inactive)
REMARK    1  A    between atoms: C_1  and  C_2
REMARK    2  A    between atoms: C_5  and  C_6
REMARK    3  A    between atoms: C_11  and  C_13
REMARK                            x       y       z     vdW  Elec       q    Type
REMARK                         _______ _______ _______ _____ _____    ______ ____
ROOT
ATOM      1  C   UNL     1       4.548   5.249  17.320  0.00  0.00    +0.000 A 
ATOM      2  C   UNL     1       4.409   4.373  18.381  0.00  0.00    +0.000 A 
ATOM      3  S   UNL     1       3.502   5.117  19.637  0.00  0.00    +0.000 S 
ATOM      4  C   UNL     1       3.306   6.488  18.647  0.00  0.00    +0.000 A 
ATOM      5  N   UNL     1       2.531   7.470  19.190  0.00  0.00    +0.000 N 
ATOM      6  C   UNL     1       2.067   8.544  18.457  0.00  0.00    +0.000 C 
ATOM      7  O   UNL     1       2.295   8.786  17.275  0.00  0.00    +0.000 OA
ATOM      8  N   UNL     1       3.893   6.459  17.483  0.00  0.00    +0.000 NA
ATOM      9  H   UNL     1       2.160   7.313  20.120  0.00  0.00    +0.000 HD
ENDROOT
BRANCH   6  10
ATOM     10  C   UNL     1       1.245   9.498  19.324  0.00  0.00    +0.000 C 
ATOM     11  C   UNL     1       0.029  10.043  18.580  0.00  0.00    +0.000 C 
ATOM     12  C   UNL     1      -0.645  10.992  19.533  0.00  0.00    +0.000 A 
ATOM     13  C   UNL     1      -1.235  12.182  19.104  0.00  0.00    +0.000 A 
ATOM     14  C   UNL     1      -1.787  13.060  20.039  0.00  0.00    +0.000 A 
ATOM     15  C   UNL     1      -1.772  12.744  21.400  0.00  0.00    +0.000 A 
ATOM     16  C   UNL     1      -1.224  11.538  21.831  0.00  0.00    +0.000 A 
ATOM     17  C   UNL     1      -0.658  10.664  20.897  0.00  0.00    +0.000 A 
ATOM     18  C   UNL     1      -0.059   9.386  21.361  0.00  0.00    +0.000 C 
ATOM     19  O   UNL     1      -0.338   8.895  22.444  0.00  0.00    +0.000 OA
ATOM     20  O   UNL     1       0.826   8.799  20.517  0.00  0.00    +0.000 OA
ENDBRANCH   6  10
BRANCH   1  25
ATOM     21  C   UNL     1       7.337   4.049  12.401  0.00  0.00    +0.000 C 
ATOM     22  C   UNL     1       6.612   4.370  13.675  0.00  0.00    +0.000 A 
ATOM     23  C   UNL     1       5.289   3.964  13.869  0.00  0.00    +0.000 A 
ATOM     24  C   UNL     1       4.627   4.262  15.063  0.00  0.00    +0.000 A 
ATOM     25  C   UNL     1       5.276   4.960  16.090  0.00  0.00    +0.000 A 
ATOM     26  C   UNL     1       6.598   5.376  15.889  0.00  0.00    +0.000 A 
ATOM     27  C   UNL     1       7.260   5.081  14.692  0.00  0.00    +0.000 A 
ENDBRANCH   1  25
TORSDOF 2
ENDMDL
MODEL 7
REMARK VINA RESULT:      -7.8      1.633      1.730
REMARK  Name = 
REMARK  3 active torsions:
REMARK  status: ('A' for Active; 'I' for Inactive)
REMARK    1  A    between atoms: C_1  and  C_2
REMARK    2  A    between atoms: C_5  and  C_6
REMARK    3  A    between atoms: C_11  and  C_13
REMARK                            x       y       z     vdW  Elec       q    Type
REMARK                         _______ _______ _______ _____ _____    ______ ____
ROOT
ATOM      1  C   UNL     1       3.182   6.300  18.412  0.00  0.00    +0.000 A 
ATOM      2  C   UNL     1       2.728   5.651  19.546  0.00  0.00    +0.000 A 
ATOM      3  S   UNL     1       1.818   6.740  20.515  0.00  0.00    +0.000 S 
ATOM      4  C   UNL     1       2.031   7.938  19.324  0.00  0.00    +0.000 A 
ATOM      5  N   UNL     1       1.394   9.114  19.586  0.00  0.00    +0.000 N 
ATOM      6  C   UNL     1       1.255  10.112  18.643  0.00  0.00    +0.000 C 
ATOM      7  O   UNL     1       1.688  10.110  17.495  0.00  0.00    +0.000 OA
ATOM      8  N   UNL     1       2.758   7.614  18.291  0.00  0.00    +0.000 NA
ATOM      9  H   UNL     1       0.874   9.181  20.453  0.00  0.00    +0.000 HD
ENDROOT
BRANCH   6  10
ATOM     10  C   UNL     1       0.521  11.325  19.217  0.00  0.00    +0.000 C 
ATOM     11  C   UNL     1      -0.798  10.936  19.877  0.00  0.00    +0.000 C 
ATOM     12  C   UNL     1      -1.420  12.223  20.345  0.00  0.00    +0.000 A 
ATOM     13  C   UNL     1      -2.796  12.450  20.282  0.00  0.00    +0.000 A 
ATOM     14  C   UNL     1      -3.314  13.689  20.666  0.00  0.00    +0.000 A 
ATOM     15  C   UNL     1      -2.465  14.695  21.135  0.00  0.00    +0.000 A 
ATOM     16  C   UNL     1      -1.096  14.459  21.241  0.00  0.00    +0.000 A 
ATOM     17  C   UNL     1      -0.574  13.225  20.845  0.00  0.00    +0.000 A 
ATOM     18  C   UNL     1       0.888  12.982  20.944  0.00  0.00    +0.000 C 
ATOM     19  O   UNL     1       1.608  13.652  21.668  0.00  0.00    +0.000 OA
ATOM     20  O   UNL     1       1.382  11.979  20.175  0.00  0.00    +0.000 OA
ENDBRANCH   6  10
BRANCH   1  25
ATOM     21  C   UNL     1       6.471   3.987  14.260  0.00  0.00    +0.000 C 
ATOM     22  C   UNL     1       5.625   4.585  15.344  0.00  0.00    +0.000 A 
ATOM     23  C   UNL     1       5.485   5.970  15.462  0.00  0.00    +0.000 A 
ATOM     24  C   UNL     1       4.687   6.515  16.471  0.00  0.00    +0.000 A 
ATOM     25  C   UNL     1       4.005   5.688  17.374  0.00  0.00    +0.000 A 
ATOM     26  C   UNL     1       4.155   4.301  17.261  0.00  0.00    +0.000 A 
ATOM     27  C   UNL     1       4.958   3.755  16.253  0.00  0.00    +0.000 A 
ENDBRANCH   1  25
TORSDOF 2
ENDMDL
MODEL 8
REMARK VINA RESULT:      -7.8      3.418      9.123
REMARK  Name = 
REMARK  3 active torsions:
REMARK  status: ('A' for Active; 'I' for Inactive)
REMARK    1  A    between atoms: C_1  and  C_2
REMARK    2  A    between atoms: C_5  and  C_6
REMARK    3  A    between atoms: C_11  and  C_13
REMARK                            x       y       z     vdW  Elec       q    Type
REMARK                         _______ _______ _______ _____ _____    ______ ____
ROOT
ATOM      1  C   UNL     1       0.623  13.103  19.745  0.00  0.00    +0.000 A 
ATOM      2  C   UNL     1       0.133  12.821  21.007  0.00  0.00    +0.000 A 
ATOM      3  S   UNL     1       0.181  11.126  21.286  0.00  0.00    +0.000 S 
ATOM      4  C   UNL     1       0.913  10.923  19.761  0.00  0.00    +0.000 A 
ATOM      5  N   UNL     1       1.255   9.637  19.467  0.00  0.00    +0.000 N 
ATOM      6  C   UNL     1       2.060   9.307  18.395  0.00  0.00    +0.000 C 
ATOM      7  O   UNL     1       2.539  10.075  17.566  0.00  0.00    +0.000 OA
ATOM      8  N   UNL     1       1.083  11.999  19.045  0.00  0.00    +0.000 NA
ATOM      9  H   UNL     1       1.037   8.925  20.154  0.00  0.00    +0.000 HD
ENDROOT
BRANCH   6  10
ATOM     10  C   UNL     1       2.260   7.794  18.291  0.00  0.00    +0.000 C 
ATOM     11  C   UNL     1       3.668   7.433  17.830  0.00  0.00    +0.000 C 
ATOM     12  C   UNL     1       3.697   5.933  17.730  0.00  0.00    +0.000 A 
ATOM     13  C   UNL     1       4.392   5.268  16.717  0.00  0.00    +0.000 A 
ATOM     14  C   UNL     1       4.329   3.875  16.631  0.00  0.00    +0.000 A 
ATOM     15  C   UNL     1       3.593   3.141  17.565  0.00  0.00    +0.000 A 
ATOM     16  C   UNL     1       2.933   3.796  18.603  0.00  0.00    +0.000 A 
ATOM     17  C   UNL     1       2.984   5.190  18.684  0.00  0.00    +0.000 A 
ATOM     18  C   UNL     1       2.266   5.887  19.783  0.00  0.00    +0.000 C 
ATOM     19  O   UNL     1       1.932   5.309  20.805  0.00  0.00    +0.000 OA
ATOM     20  O   UNL     1       1.991   7.200  19.580  0.00  0.00    +0.000 OA
ENDBRANCH   6  10
BRANCH   1  25
ATOM     21  C   UNL     1       0.853  18.406  17.457  0.00  0.00    +0.000 C 
ATOM     22  C   UNL     1       0.797  17.034  18.059  0.00  0.00    +0.000 A 
ATOM     23  C   UNL     1      -0.416  16.487  18.486  0.00  0.00    +0.000 A 
ATOM     24  C   UNL     1      -0.456  15.204  19.038  0.00  0.00    +0.000 A 
ATOM     25  C   UNL     1       0.711  14.438  19.164  0.00  0.00    +0.000 A 
ATOM     26  C   UNL     1       1.927  14.992  18.745  0.00  0.00    +0.000 A 
ATOM     27  C   UNL     1       1.968  16.279  18.196  0.00  0.00    +0.000 A 
ENDBRANCH   1  25
TORSDOF 2
ENDMDL
MODEL 9
REMARK VINA RESULT:      -7.8      2.866      9.067
REMARK  Name = 
REMARK  3 active torsions:
REMARK  status: ('A' for Active; 'I' for Inactive)
REMARK    1  A    between atoms: C_1  and  C_2
REMARK    2  A    between atoms: C_5  and  C_6
REMARK    3  A    between atoms: C_11  and  C_13
REMARK                            x       y       z     vdW  Elec       q    Type
REMARK                         _______ _______ _______ _____ _____    ______ ____
ROOT
ATOM      1  C   UNL     1       0.200  11.274  20.837  0.00  0.00    +0.000 A 
ATOM      2  C   UNL     1      -0.194  10.947  22.122  0.00  0.00    +0.000 A 
ATOM      3  S   UNL     1       0.138   9.289  22.430  0.00  0.00    +0.000 S 
ATOM      4  C   UNL     1       0.840   9.169  20.883  0.00  0.00    +0.000 A 
ATOM      5  N   UNL     1       1.377   7.949  20.600  0.00  0.00    +0.000 N 
ATOM      6  C   UNL     1       2.187   7.727  19.505  0.00  0.00    +0.000 C 
ATOM      7  O   UNL     1       2.506   8.542  18.644  0.00  0.00    +0.000 OA
ATOM      8  N   UNL     1       0.809  10.241  20.141  0.00  0.00    +0.000 NA
ATOM      9  H   UNL     1       1.300   7.228  21.308  0.00  0.00    +0.000 HD
ENDROOT
BRANCH   6  10
ATOM     10  C   UNL     1       2.626   6.265  19.421  0.00  0.00    +0.000 C 
ATOM     11  C   UNL     1       2.150   5.597  18.135  0.00  0.00    +0.000 C 
ATOM     12  C   UNL     1       2.610   4.167  18.218  0.00  0.00    +0.000 A 
ATOM     13  C   UNL     1       1.834   3.107  17.746  0.00  0.00    +0.000 A 
ATOM     14  C   UNL     1       2.279   1.793  17.910  0.00  0.00    +0.000 A 
ATOM     15  C   UNL     1       3.507   1.535  18.524  0.00  0.00    +0.000 A 
ATOM     16  C   UNL     1       4.306   2.590  18.959  0.00  0.00    +0.000 A 
ATOM     17  C   UNL     1       3.857   3.905  18.807  0.00  0.00    +0.000 A 
ATOM     18  C   UNL     1       4.704   5.028  19.286  0.00  0.00    +0.000 C 
ATOM     19  O   UNL     1       5.902   4.898  19.480  0.00  0.00    +0.000 OA
ATOM     20  O   UNL     1       4.067   6.206  19.508  0.00  0.00    +0.000 OA
ENDBRANCH   6  10
BRANCH   1  25
ATOM     21  C   UNL     1      -0.490  16.513  18.495  0.00  0.00    +0.000 C 
ATOM     22  C   UNL     1      -0.303  15.157  19.108  0.00  0.00    +0.000 A 
ATOM     23  C   UNL     1      -1.178  14.688  20.091  0.00  0.00    +0.000 A 
ATOM     24  C   UNL     1      -0.999  13.419  20.649  0.00  0.00    +0.000 A 
ATOM     25  C   UNL     1       0.050  12.590  20.228  0.00  0.00    +0.000 A 
ATOM     26  C   UNL     1       0.932  13.067  19.251  0.00  0.00    +0.000 A 
ATOM     27  C   UNL     1       0.755  14.339  18.695  0.00  0.00    +0.000 A 
ENDBRANCH   1  25
TORSDOF 2
ENDMDL
