MODEL 1
REMARK VINA RESULT:      -9.3      0.000      0.000
REMARK  Name = 
REMARK  5 active torsions:
REMARK  status: ('A' for Active; 'I' for Inactive)
REMARK    1  A    between atoms: C_1  and  N_2
REMARK    2  A    between atoms: C_6  and  C_7
REMARK    3  A    between atoms: C_7  and  C_8
REMARK    4  A    between atoms: C_8  and  C_9
REMARK    5  A    between atoms: C_13  and  N_14
REMARK                            x       y       z     vdW  Elec       q    Type
REMARK                         _______ _______ _______ _____ _____    ______ ____
ROOT
ATOM      1  C   UNL     1       4.456   4.866  17.147  0.00  0.00    +0.000 A 
ATOM      2  C   UNL     1       3.608   3.749  17.028  0.00  0.00    +0.000 A 
ATOM      3  C   UNL     1       2.306   3.758  17.539  0.00  0.00    +0.000 A 
ATOM      4  C   UNL     1       1.819   4.886  18.198  0.00  0.00    +0.000 A 
ATOM      5  C   UNL     1       2.614   6.027  18.305  0.00  0.00    +0.000 A 
ATOM      6  C   UNL     1       3.897   6.007  17.756  0.00  0.00    +0.000 A 
ENDROOT
BRANCH   5   7
ATOM      7  N   UNL     1       2.185   7.167  19.047  0.00  0.00    +0.000 N 
ATOM      8  C   UNL     1       1.717   6.897  20.450  0.00  0.00    +0.000 C 
ATOM      9  C   UNL     1       1.227   8.112  21.194  0.00  0.00    +0.000 C 
ATOM     10  C   UNL     1       1.091   9.258  20.541  0.00  0.00    +0.000 C 
ATOM     11  C   UNL     1       0.625  10.681  20.628  0.00  0.00    +0.000 C 
ATOM     12  C   UNL     1       1.000  10.701  19.131  0.00  0.00    +0.000 C 
ATOM     13  C   UNL     1       1.438   9.430  19.190  0.00  0.00    +0.000 C 
ATOM     14  C   UNL     1       2.020   8.388  18.344  0.00  0.00    +0.000 C 
ATOM     15  O   UNL     1       2.306   8.549  17.158  0.00  0.00    +0.000 OA
ENDBRANCH   5   7
BRANCH   1  16
ATOM     16  C   UNL     1       6.008   4.855  16.720  0.00  0.00    +0.000 C 
ATOM     17  C   UNL     1       6.718   6.241  16.619  0.00  0.00    +0.000 C 
ATOM     18  O   UNL     1       7.699   5.877  17.615  0.00  0.00    +0.000 OA
ATOM     19  C   UNL     1       7.022   4.633  17.878  0.00  0.00    +0.000 C 
BRANCH  16  20
ATOM     20  C   UNL     1       6.270   3.911  15.527  0.00  0.00    +0.000 C 
BRANCH  20  26
ATOM     21  C   UNL     1       5.794   3.307  12.468  0.00  0.00    +0.000 C 
ATOM     22  N   UNL     1       6.707   4.264  13.030  0.00  0.00    +0.000 N 
ATOM     23  C   UNL     1       7.544   5.060  12.305  0.00  0.00    +0.000 A 
ATOM     24  N   UNL     1       8.263   5.795  13.123  0.00  0.00    +0.000 NA
ATOM     25  N   UNL     1       7.906   5.462  14.404  0.00  0.00    +0.000 NA
ATOM     26  C   UNL     1       6.946   4.555  14.354  0.00  0.00    +0.000 A 
ENDBRANCH  20  26
ENDBRANCH  16  20
ENDBRANCH   1  16
TORSDOF 4
ENDMDL
MODEL 2
REMARK VINA RESULT:      -9.1      0.965      1.504
REMARK  Name = 
REMARK  5 active torsions:
REMARK  status: ('A' for Active; 'I' for Inactive)
REMARK    1  A    between atoms: C_1  and  N_2
REMARK    2  A    between atoms: C_6  and  C_7
REMARK    3  A    between atoms: C_7  and  C_8
REMARK    4  A    between atoms: C_8  and  C_9
REMARK    5  A    between atoms: C_13  and  N_14
REMARK                            x       y       z     vdW  Elec       q    Type
REMARK                         _______ _______ _______ _____ _____    ______ ____
ROOT
ATOM      1  C   UNL     1       4.514   4.893  17.099  0.00  0.00    +0.000 A 
ATOM      2  C   UNL     1       3.733   3.733  16.936  0.00  0.00    +0.000 A 
ATOM      3  C   UNL     1       2.394   3.685  17.340  0.00  0.00    +0.000 A 
ATOM      4  C   UNL     1       1.802   4.799  17.933  0.00  0.00    +0.000 A 
ATOM      5  C   UNL     1       2.529   5.980  18.080  0.00  0.00    +0.000 A 
ATOM      6  C   UNL     1       3.852   6.015  17.636  0.00  0.00    +0.000 A 
ENDROOT
BRANCH   5   7
ATOM      7  N   UNL     1       1.987   7.110  18.761  0.00  0.00    +0.000 N 
ATOM      8  C   UNL     1       1.870   8.369  17.948  0.00  0.00    +0.000 C 
ATOM      9  C   UNL     1       1.339   9.559  18.704  0.00  0.00    +0.000 C 
ATOM     10  C   UNL     1       1.172   9.468  20.017  0.00  0.00    +0.000 C 
ATOM     11  C   UNL     1       0.805  10.207  21.270  0.00  0.00    +0.000 C 
ATOM     12  C   UNL     1       1.155   8.863  21.944  0.00  0.00    +0.000 C 
ATOM     13  C   UNL     1       1.407   8.293  20.751  0.00  0.00    +0.000 C 
ATOM     14  C   UNL     1       1.829   7.020  20.168  0.00  0.00    +0.000 C 
ATOM     15  O   UNL     1       2.044   6.003  20.825  0.00  0.00    +0.000 OA
ENDBRANCH   5   7
BRANCH   1  16
ATOM     16  C   UNL     1       6.094   4.952  16.798  0.00  0.00    +0.000 C 
ATOM     17  C   UNL     1       6.732   6.370  16.669  0.00  0.00    +0.000 C 
ATOM     18  O   UNL     1       7.645   6.124  17.760  0.00  0.00    +0.000 OA
ATOM     19  C   UNL     1       7.019   4.858  18.045  0.00  0.00    +0.000 C 
BRANCH  16  20
ATOM     20  C   UNL     1       6.506   3.959  15.690  0.00  0.00    +0.000 C 
BRANCH  20  26
ATOM     21  C   UNL     1       5.743   3.373  12.687  0.00  0.00    +0.000 C 
ATOM     22  N   UNL     1       6.720   4.312  13.165  0.00  0.00    +0.000 N 
ATOM     23  C   UNL     1       7.501   5.097  12.367  0.00  0.00    +0.000 A 
ATOM     24  N   UNL     1       8.305   5.816  13.118  0.00  0.00    +0.000 NA
ATOM     25  N   UNL     1       8.060   5.485  14.425  0.00  0.00    +0.000 NA
ATOM     26  C   UNL     1       7.084   4.595  14.461  0.00  0.00    +0.000 A 
ENDBRANCH  20  26
ENDBRANCH  16  20
ENDBRANCH   1  16
TORSDOF 4
ENDMDL
MODEL 3
REMARK VINA RESULT:      -8.7      2.871      4.388
REMARK  Name = 
REMARK  5 active torsions:
REMARK  status: ('A' for Active; 'I' for Inactive)
REMARK    1  A    between atoms: C_1  and  N_2
REMARK    2  A    between atoms: C_6  and  C_7
REMARK    3  A    between atoms: C_7  and  C_8
REMARK    4  A    between atoms: C_8  and  C_9
REMARK    5  A    between atoms: C_13  and  N_14
REMARK                            x       y       z     vdW  Elec       q    Type
REMARK                         _______ _______ _______ _____ _____    ______ ____
ROOT
ATOM      1  C   UNL     1       2.527   5.991  19.125  0.00  0.00    +0.000 A 
ATOM      2  C   UNL     1       2.930   6.507  17.879  0.00  0.00    +0.000 A 
ATOM      3  C   UNL     1       2.756   7.855  17.550  0.00  0.00    +0.000 A 
ATOM      4  C   UNL     1       2.157   8.726  18.459  0.00  0.00    +0.000 A 
ATOM      5  C   UNL     1       1.776   8.264  19.719  0.00  0.00    +0.000 A 
ATOM      6  C   UNL     1       1.994   6.922  20.038  0.00  0.00    +0.000 A 
ENDROOT
BRANCH   5   7
ATOM      7  N   UNL     1       1.081   9.101  20.641  0.00  0.00    +0.000 N 
ATOM      8  C   UNL     1       1.131   8.671  22.081  0.00  0.00    +0.000 C 
ATOM      9  C   UNL     1       0.351   9.547  23.026  0.00  0.00    +0.000 C 
ATOM     10  C   UNL     1      -0.428  10.499  22.531  0.00  0.00    +0.000 C 
ATOM     11  C   UNL     1      -1.436  11.562  22.852  0.00  0.00    +0.000 C 
ATOM     12  C   UNL     1      -1.480  11.725  21.318  0.00  0.00    +0.000 C 
ATOM     13  C   UNL     1      -0.527  10.788  21.159  0.00  0.00    +0.000 C 
ATOM     14  C   UNL     1       0.232  10.106  20.111  0.00  0.00    +0.000 C 
ATOM     15  O   UNL     1       0.124  10.360  18.912  0.00  0.00    +0.000 OA
ENDBRANCH   5   7
BRANCH   1  16
ATOM     16  C   UNL     1       2.560   4.425  19.493  0.00  0.00    +0.000 C 
ATOM     17  C   UNL     1       2.444   4.056  21.005  0.00  0.00    +0.000 C 
ATOM     18  O   UNL     1       1.249   3.277  20.785  0.00  0.00    +0.000 OA
ATOM     19  C   UNL     1       1.195   3.685  19.404  0.00  0.00    +0.000 C 
BRANCH  16  20
ATOM     20  C   UNL     1       3.678   3.679  18.734  0.00  0.00    +0.000 C 
BRANCH  20  26
ATOM     21  C   UNL     1       5.705   4.213  16.377  0.00  0.00    +0.000 C 
ATOM     22  N   UNL     1       5.886   4.538  17.766  0.00  0.00    +0.000 N 
ATOM     23  C   UNL     1       7.002   5.122  18.289  0.00  0.00    +0.000 A 
ATOM     24  N   UNL     1       6.855   5.254  19.588  0.00  0.00    +0.000 NA
ATOM     25  N   UNL     1       5.634   4.731  19.924  0.00  0.00    +0.000 NA
ATOM     26  C   UNL     1       5.031   4.320  18.821  0.00  0.00    +0.000 A 
ENDBRANCH  20  26
ENDBRANCH  16  20
ENDBRANCH   1  16
TORSDOF 4
ENDMDL
MODEL 4
REMARK VINA RESULT:      -8.5      2.100      3.388
REMARK  Name = 
REMARK  5 active torsions:
REMARK  status: ('A' for Active; 'I' for Inactive)
REMARK    1  A    between atoms: C_1  and  N_2
REMARK    2  A    between atoms: C_6  and  C_7
REMARK    3  A    between atoms: C_7  and  C_8
REMARK    4  A    between atoms: C_8  and  C_9
REMARK    5  A    between atoms: C_13  and  N_14
REMARK                            x       y       z     vdW  Elec       q    Type
REMARK                         _______ _______ _______ _____ _____    ______ ____
ROOT
ATOM      1  C   UNL     1       4.436   4.298  16.992  0.00  0.00    +0.000 A 
ATOM      2  C   UNL     1       3.896   3.065  17.404  0.00  0.00    +0.000 A 
ATOM      3  C   UNL     1       2.782   2.997  18.247  0.00  0.00    +0.000 A 
ATOM      4  C   UNL     1       2.183   4.166  18.714  0.00  0.00    +0.000 A 
ATOM      5  C   UNL     1       2.665   5.408  18.301  0.00  0.00    +0.000 A 
ATOM      6  C   UNL     1       3.755   5.451  17.429  0.00  0.00    +0.000 A 
ENDROOT
BRANCH   5   7
ATOM      7  N   UNL     1       2.137   6.625  18.825  0.00  0.00    +0.000 N 
ATOM      8  C   UNL     1       2.171   7.807  17.897  0.00  0.00    +0.000 C 
ATOM      9  C   UNL     1       1.650   9.089  18.492  0.00  0.00    +0.000 C 
ATOM     10  C   UNL     1       1.363   9.130  19.786  0.00  0.00    +0.000 C 
ATOM     11  C   UNL     1       0.933  10.002  20.928  0.00  0.00    +0.000 C 
ATOM     12  C   UNL     1       1.137   8.711  21.749  0.00  0.00    +0.000 C 
ATOM     13  C   UNL     1       1.458   8.019  20.640  0.00  0.00    +0.000 C 
ATOM     14  C   UNL     1       1.849   6.675  20.213  0.00  0.00    +0.000 C 
ATOM     15  O   UNL     1       1.941   5.714  20.975  0.00  0.00    +0.000 OA
ENDBRANCH   5   7
BRANCH   1  16
ATOM     16  C   UNL     1       5.804   4.435  16.155  0.00  0.00    +0.000 C 
ATOM     17  C   UNL     1       5.979   3.480  14.934  0.00  0.00    +0.000 C 
ATOM     18  O   UNL     1       6.109   4.584  14.013  0.00  0.00    +0.000 OA
ATOM     19  C   UNL     1       5.811   5.534  15.054  0.00  0.00    +0.000 C 
BRANCH  16  20
ATOM     20  C   UNL     1       7.037   4.528  17.079  0.00  0.00    +0.000 C 
BRANCH  20  26
ATOM     21  C   UNL     1       7.955   5.618  19.893  0.00  0.00    +0.000 C 
ATOM     22  N   UNL     1       7.857   6.360  18.666  0.00  0.00    +0.000 N 
ATOM     23  C   UNL     1       8.134   7.690  18.538  0.00  0.00    +0.000 A 
ATOM     24  N   UNL     1       7.917   8.061  17.295  0.00  0.00    +0.000 NA
ATOM     25  N   UNL     1       7.473   6.963  16.605  0.00  0.00    +0.000 NA
ATOM     26  C   UNL     1       7.460   5.924  17.423  0.00  0.00    +0.000 A 
ENDBRANCH  20  26
ENDBRANCH  16  20
ENDBRANCH   1  16
TORSDOF 4
ENDMDL
MODEL 5
REMARK VINA RESULT:      -8.5      0.802      1.362
REMARK  Name = 
REMARK  5 active torsions:
REMARK  status: ('A' for Active; 'I' for Inactive)
REMARK    1  A    between atoms: C_1  and  N_2
REMARK    2  A    between atoms: C_6  and  C_7
REMARK    3  A    between atoms: C_7  and  C_8
REMARK    4  A    between atoms: C_8  and  C_9
REMARK    5  A    between atoms: C_13  and  N_14
REMARK                            x       y       z     vdW  Elec       q    Type
REMARK                         _______ _______ _______ _____ _____    ______ ____
ROOT
ATOM      1  C   UNL     1       4.514   5.273  17.062  0.00  0.00    +0.000 A 
ATOM      2  C   UNL     1       3.790   4.066  17.049  0.00  0.00    +0.000 A 
ATOM      3  C   UNL     1       2.544   3.950  17.674  0.00  0.00    +0.000 A 
ATOM      4  C   UNL     1       1.992   5.040  18.344  0.00  0.00    +0.000 A 
ATOM      5  C   UNL     1       2.660   6.265  18.351  0.00  0.00    +0.000 A 
ATOM      6  C   UNL     1       3.885   6.366  17.689  0.00  0.00    +0.000 A 
ENDROOT
BRANCH   5   7
ATOM      7  N   UNL     1       2.172   7.376  19.099  0.00  0.00    +0.000 N 
ATOM      8  C   UNL     1       1.750   7.080  20.511  0.00  0.00    +0.000 C 
ATOM      9  C   UNL     1       1.195   8.262  21.263  0.00  0.00    +0.000 C 
ATOM     10  C   UNL     1       0.971   9.395  20.610  0.00  0.00    +0.000 C 
ATOM     11  C   UNL     1       0.414  10.785  20.703  0.00  0.00    +0.000 C 
ATOM     12  C   UNL     1       0.757  10.824  19.199  0.00  0.00    +0.000 C 
ATOM     13  C   UNL     1       1.279   9.585  19.252  0.00  0.00    +0.000 C 
ATOM     14  C   UNL     1       1.912   8.582  18.397  0.00  0.00    +0.000 C 
ATOM     15  O   UNL     1       2.163   8.757  17.206  0.00  0.00    +0.000 OA
ENDBRANCH   5   7
BRANCH   1  16
ATOM     16  C   UNL     1       6.015   5.417  16.498  0.00  0.00    +0.000 C 
ATOM     17  C   UNL     1       7.066   6.058  17.456  0.00  0.00    +0.000 C 
ATOM     18  O   UNL     1       7.901   4.881  17.425  0.00  0.00    +0.000 OA
ATOM     19  C   UNL     1       6.917   4.160  16.659  0.00  0.00    +0.000 C 
BRANCH  16  20
ATOM     20  C   UNL     1       6.037   5.971  15.057  0.00  0.00    +0.000 C 
BRANCH  20  26
ATOM     21  C   UNL     1       8.356   5.654  12.943  0.00  0.00    +0.000 C 
ATOM     22  N   UNL     1       7.191   4.823  13.083  0.00  0.00    +0.000 N 
ATOM     23  C   UNL     1       6.897   3.756  12.285  0.00  0.00    +0.000 A 
ATOM     24  N   UNL     1       5.750   3.235  12.663  0.00  0.00    +0.000 NA
ATOM     25  N   UNL     1       5.279   3.982  13.710  0.00  0.00    +0.000 NA
ATOM     26  C   UNL     1       6.159   4.929  13.986  0.00  0.00    +0.000 A 
ENDBRANCH  20  26
ENDBRANCH  16  20
ENDBRANCH   1  16
TORSDOF 4
ENDMDL
MODEL 6
REMARK VINA RESULT:      -8.4      2.772      4.297
REMARK  Name = 
REMARK  5 active torsions:
REMARK  status: ('A' for Active; 'I' for Inactive)
REMARK    1  A    between atoms: C_1  and  N_2
REMARK    2  A    between atoms: C_6  and  C_7
REMARK    3  A    between atoms: C_7  and  C_8
REMARK    4  A    between atoms: C_8  and  C_9
REMARK    5  A    between atoms: C_13  and  N_14
REMARK                            x       y       z     vdW  Elec       q    Type
REMARK                         _______ _______ _______ _____ _____    ______ ____
ROOT
ATOM      1  C   UNL     1       3.002   5.973  18.587  0.00  0.00    +0.000 A 
ATOM      2  C   UNL     1       3.608   6.561  17.460  0.00  0.00    +0.000 A 
ATOM      3  C   UNL     1       3.419   7.910  17.144  0.00  0.00    +0.000 A 
ATOM      4  C   UNL     1       2.603   8.709  17.943  0.00  0.00    +0.000 A 
ATOM      5  C   UNL     1       2.012   8.176  19.089  0.00  0.00    +0.000 A 
ATOM      6  C   UNL     1       2.245   6.836  19.404  0.00  0.00    +0.000 A 
ENDROOT
BRANCH   5   7
ATOM      7  N   UNL     1       1.102   8.936  19.881  0.00  0.00    +0.000 N 
ATOM      8  C   UNL     1       0.546  10.173  19.235  0.00  0.00    +0.000 C 
ATOM      9  C   UNL     1      -0.375  10.981  20.110  0.00  0.00    +0.000 C 
ATOM     10  C   UNL     1      -0.501  10.654  21.390  0.00  0.00    +0.000 C 
ATOM     11  C   UNL     1      -1.110  11.033  22.707  0.00  0.00    +0.000 C 
ATOM     12  C   UNL     1      -0.307   9.819  23.218  0.00  0.00    +0.000 C 
ATOM     13  C   UNL     1       0.134   9.547  21.976  0.00  0.00    +0.000 C 
ATOM     14  C   UNL     1       0.983   8.599  21.255  0.00  0.00    +0.000 C 
ATOM     15  O   UNL     1       1.545   7.642  21.784  0.00  0.00    +0.000 OA
ENDBRANCH   5   7
BRANCH   1  16
ATOM     16  C   UNL     1       3.057   4.396  18.907  0.00  0.00    +0.000 C 
ATOM     17  C   UNL     1       2.723   3.965  20.369  0.00  0.00    +0.000 C 
ATOM     18  O   UNL     1       1.620   3.140  19.936  0.00  0.00    +0.000 OA
ATOM     19  C   UNL     1       1.764   3.598  18.578  0.00  0.00    +0.000 C 
BRANCH  16  20
ATOM     20  C   UNL     1       4.319   3.733  18.314  0.00  0.00    +0.000 C 
BRANCH  20  26
ATOM     21  C   UNL     1       6.701   4.406  16.359  0.00  0.00    +0.000 C 
ATOM     22  N   UNL     1       6.623   4.703  17.763  0.00  0.00    +0.000 N 
ATOM     23  C   UNL     1       7.604   5.317  18.484  0.00  0.00    +0.000 A 
ATOM     24  N   UNL     1       7.227   5.411  19.740  0.00  0.00    +0.000 NA
ATOM     25  N   UNL     1       5.990   4.832  19.847  0.00  0.00    +0.000 NA
ATOM     26  C   UNL     1       5.607   4.425  18.649  0.00  0.00    +0.000 A 
ENDBRANCH  20  26
ENDBRANCH  16  20
ENDBRANCH   1  16
TORSDOF 4
ENDMDL
MODEL 7
REMARK VINA RESULT:      -8.4      2.863      4.548
REMARK  Name = 
REMARK  5 active torsions:
REMARK  status: ('A' for Active; 'I' for Inactive)
REMARK    1  A    between atoms: C_1  and  N_2
REMARK    2  A    between atoms: C_6  and  C_7
REMARK    3  A    between atoms: C_7  and  C_8
REMARK    4  A    between atoms: C_8  and  C_9
REMARK    5  A    between atoms: C_13  and  N_14
REMARK                            x       y       z     vdW  Elec       q    Type
REMARK                         _______ _______ _______ _____ _____    ______ ____
ROOT
ATOM      1  C   UNL     1       2.339   6.244  19.240  0.00  0.00    +0.000 A 
ATOM      2  C   UNL     1       2.779   6.795  18.021  0.00  0.00    +0.000 A 
ATOM      3  C   UNL     1       2.620   8.153  17.729  0.00  0.00    +0.000 A 
ATOM      4  C   UNL     1       2.001   9.000  18.648  0.00  0.00    +0.000 A 
ATOM      5  C   UNL     1       1.584   8.502  19.882  0.00  0.00    +0.000 A 
ATOM      6  C   UNL     1       1.786   7.150  20.166  0.00  0.00    +0.000 A 
ENDROOT
BRANCH   5   7
ATOM      7  N   UNL     1       0.869   9.315  20.811  0.00  0.00    +0.000 N 
ATOM      8  C   UNL     1       0.825   8.809  22.225  0.00  0.00    +0.000 C 
ATOM      9  C   UNL     1       0.025   9.662  23.174  0.00  0.00    +0.000 C 
ATOM     10  C   UNL     1      -0.693  10.667  22.691  0.00  0.00    +0.000 C 
ATOM     11  C   UNL     1      -1.680  11.749  23.015  0.00  0.00    +0.000 C 
ATOM     12  C   UNL     1      -1.633  11.994  21.492  0.00  0.00    +0.000 C 
ATOM     13  C   UNL     1      -0.707  11.031  21.333  0.00  0.00    +0.000 C 
ATOM     14  C   UNL     1       0.085  10.378  20.291  0.00  0.00    +0.000 C 
ATOM     15  O   UNL     1       0.052  10.698  19.104  0.00  0.00    +0.000 OA
ENDBRANCH   5   7
BRANCH   1  16
ATOM     16  C   UNL     1       2.353   4.666  19.561  0.00  0.00    +0.000 C 
ATOM     17  C   UNL     1       1.360   4.163  20.654  0.00  0.00    +0.000 C 
ATOM     18  O   UNL     1       0.701   3.272  19.729  0.00  0.00    +0.000 OA
ATOM     19  C   UNL     1       1.477   3.783  18.628  0.00  0.00    +0.000 C 
BRANCH  16  20
ATOM     20  C   UNL     1       3.791   4.121  19.699  0.00  0.00    +0.000 C 
BRANCH  20  26
ATOM     21  C   UNL     1       6.567   5.519  19.164  0.00  0.00    +0.000 C 
ATOM     22  N   UNL     1       5.797   4.738  18.235  0.00  0.00    +0.000 N 
ATOM     23  C   UNL     1       6.152   4.496  16.940  0.00  0.00    +0.000 A 
ATOM     24  N   UNL     1       5.218   3.776  16.361  0.00  0.00    +0.000 NA
ATOM     25  N   UNL     1       4.228   3.558  17.283  0.00  0.00    +0.000 NA
ATOM     26  C   UNL     1       4.585   4.116  18.428  0.00  0.00    +0.000 A 
ENDBRANCH  20  26
ENDBRANCH  16  20
ENDBRANCH   1  16
TORSDOF 4
ENDMDL
MODEL 8
REMARK VINA RESULT:      -8.3      2.112      3.221
REMARK  Name = 
REMARK  5 active torsions:
REMARK  status: ('A' for Active; 'I' for Inactive)
REMARK    1  A    between atoms: C_1  and  N_2
REMARK    2  A    between atoms: C_6  and  C_7
REMARK    3  A    between atoms: C_7  and  C_8
REMARK    4  A    between atoms: C_8  and  C_9
REMARK    5  A    between atoms: C_13  and  N_14
REMARK                            x       y       z     vdW  Elec       q    Type
REMARK                         _______ _______ _______ _____ _____    ______ ____
ROOT
ATOM      1  C   UNL     1       4.132   4.820  16.864  0.00  0.00    +0.000 A 
ATOM      2  C   UNL     1       3.464   3.607  17.114  0.00  0.00    +0.000 A 
ATOM      3  C   UNL     1       2.367   3.537  17.979  0.00  0.00    +0.000 A 
ATOM      4  C   UNL     1       1.914   4.683  18.631  0.00  0.00    +0.000 A 
ATOM      5  C   UNL     1       2.525   5.913  18.383  0.00  0.00    +0.000 A 
ATOM      6  C   UNL     1       3.595   5.964  17.488  0.00  0.00    +0.000 A 
ENDROOT
BRANCH   5   7
ATOM      7  N   UNL     1       2.149   7.089  19.096  0.00  0.00    +0.000 N 
ATOM      8  C   UNL     1       1.694   6.879  20.513  0.00  0.00    +0.000 C 
ATOM      9  C   UNL     1       1.259   8.132  21.226  0.00  0.00    +0.000 C 
ATOM     10  C   UNL     1       1.152   9.262  20.540  0.00  0.00    +0.000 C 
ATOM     11  C   UNL     1       0.738  10.703  20.589  0.00  0.00    +0.000 C 
ATOM     12  C   UNL     1       1.089  10.664  19.087  0.00  0.00    +0.000 C 
ATOM     13  C   UNL     1       1.483   9.380  19.179  0.00  0.00    +0.000 C 
ATOM     14  C   UNL     1       2.015   8.293  18.357  0.00  0.00    +0.000 C 
ATOM     15  O   UNL     1       2.287   8.408  17.163  0.00  0.00    +0.000 OA
ENDBRANCH   5   7
BRANCH   1  16
ATOM     16  C   UNL     1       5.491   4.929  16.007  0.00  0.00    +0.000 C 
ATOM     17  C   UNL     1       6.306   3.612  15.814  0.00  0.00    +0.000 C 
ATOM     18  O   UNL     1       6.202   3.689  14.375  0.00  0.00    +0.000 OA
ATOM     19  C   UNL     1       5.321   4.826  14.464  0.00  0.00    +0.000 C 
BRANCH  16  20
ATOM     20  C   UNL     1       6.336   6.153  16.420  0.00  0.00    +0.000 C 
BRANCH  20  26
ATOM     21  C   UNL     1       8.076   8.319  17.912  0.00  0.00    +0.000 C 
ATOM     22  N   UNL     1       7.829   6.967  18.333  0.00  0.00    +0.000 N 
ATOM     23  C   UNL     1       8.342   6.396  19.461  0.00  0.00    +0.000 A 
ATOM     24  N   UNL     1       7.945   5.145  19.534  0.00  0.00    +0.000 NA
ATOM     25  N   UNL     1       7.177   4.887  18.429  0.00  0.00    +0.000 NA
ATOM     26  C   UNL     1       7.080   5.993  17.712  0.00  0.00    +0.000 A 
ENDBRANCH  20  26
ENDBRANCH  16  20
ENDBRANCH   1  16
TORSDOF 4
ENDMDL
MODEL 9
REMARK VINA RESULT:      -8.3      2.334      3.554
REMARK  Name = 
REMARK  5 active torsions:
REMARK  status: ('A' for Active; 'I' for Inactive)
REMARK    1  A    between atoms: C_1  and  N_2
REMARK    2  A    between atoms: C_6  and  C_7
REMARK    3  A    between atoms: C_7  and  C_8
REMARK    4  A    between atoms: C_8  and  C_9
REMARK    5  A    between atoms: C_13  and  N_14
REMARK                            x       y       z     vdW  Elec       q    Type
REMARK                         _______ _______ _______ _____ _____    ______ ____
ROOT
ATOM      1  C   UNL     1       4.369   4.590  16.781  0.00  0.00    +0.000 A 
ATOM      2  C   UNL     1       3.947   3.329  17.244  0.00  0.00    +0.000 A 
ATOM      3  C   UNL     1       2.924   3.198  18.189  0.00  0.00    +0.000 A 
ATOM      4  C   UNL     1       2.301   4.331  18.709  0.00  0.00    +0.000 A 
ATOM      5  C   UNL     1       2.664   5.598  18.251  0.00  0.00    +0.000 A 
ATOM      6  C   UNL     1       3.662   5.702  17.281  0.00  0.00    +0.000 A 
ENDROOT
BRANCH   5   7
ATOM      7  N   UNL     1       2.113   6.783  18.822  0.00  0.00    +0.000 N 
ATOM      8  C   UNL     1       2.109   7.996  17.935  0.00  0.00    +0.000 C 
ATOM      9  C   UNL     1       1.565   9.245  18.579  0.00  0.00    +0.000 C 
ATOM     10  C   UNL     1       1.292   9.236  19.876  0.00  0.00    +0.000 C 
ATOM     11  C   UNL     1       0.855  10.058  21.053  0.00  0.00    +0.000 C 
ATOM     12  C   UNL     1       1.099   8.745  21.826  0.00  0.00    +0.000 C 
ATOM     13  C   UNL     1       1.423   8.098  20.691  0.00  0.00    +0.000 C 
ATOM     14  C   UNL     1       1.841   6.780  20.215  0.00  0.00    +0.000 C 
ATOM     15  O   UNL     1       1.964   5.796  20.943  0.00  0.00    +0.000 OA
ENDBRANCH   5   7
BRANCH   1  16
ATOM     16  C   UNL     1       5.641   4.806  15.819  0.00  0.00    +0.000 C 
ATOM     17  C   UNL     1       6.478   3.537  15.467  0.00  0.00    +0.000 C 
ATOM     18  O   UNL     1       6.244   3.702  14.052  0.00  0.00    +0.000 OA
ATOM     19  C   UNL     1       5.338   4.796  14.293  0.00  0.00    +0.000 C 
BRANCH  16  20
ATOM     20  C   UNL     1       6.479   6.032  16.239  0.00  0.00    +0.000 C 
BRANCH  20  26
ATOM     21  C   UNL     1       7.965   8.290  17.865  0.00  0.00    +0.000 C 
ATOM     22  N   UNL     1       7.794   6.915  18.249  0.00  0.00    +0.000 N 
ATOM     23  C   UNL     1       8.282   6.362  19.397  0.00  0.00    +0.000 A 
ATOM     24  N   UNL     1       7.976   5.084  19.427  0.00  0.00    +0.000 NA
ATOM     25  N   UNL     1       7.294   4.792  18.274  0.00  0.00    +0.000 NA
ATOM     26  C   UNL     1       7.157   5.902  17.570  0.00  0.00    +0.000 A 
ENDBRANCH  20  26
ENDBRANCH  16  20
ENDBRANCH   1  16
TORSDOF 4
ENDMDL
