MODEL 1
REMARK VINA RESULT:     -10.2      0.000      0.000
REMARK  Name = 
REMARK  4 active torsions:
REMARK  status: ('A' for Active; 'I' for Inactive)
REMARK    1  A    between atoms: N_3  and  C_4
REMARK    2  A    between atoms: C_8  and  C_9
REMARK    3  A    between atoms: C_16  and  C_17
REMARK    4  A    between atoms: N_27  and  C_28
REMARK                            x       y       z     vdW  Elec       q    Type
REMARK                         _______ _______ _______ _____ _____    ______ ____
ROOT
ATOM      1  C   UNL     1       4.763   3.495  19.388  0.00  0.00    +0.000 C 
ATOM      2  O   UNL     1       5.242   2.489  19.908  0.00  0.00    +0.000 OA
ATOM      3  N   UNL     1       3.436   3.907  19.605  0.00  0.00    +0.000 N 
ATOM      4  C   UNL     1       2.662   3.263  20.673  0.00  0.00    +0.000 C 
ATOM      5  C   UNL     1       1.421   2.546  20.139  0.00  0.00    +0.000 C 
ATOM      6  C   UNL     1       0.578   3.448  19.244  0.00  0.00    +0.000 C 
ATOM      7  C   UNL     1       1.437   4.039  18.134  0.00  0.00    +0.000 C 
ATOM      8  C   UNL     1       2.664   4.775  18.684  0.00  0.00    +0.000 C 
ENDROOT
BRANCH   8   9
ATOM      9  C   UNL     1       2.272   6.101  19.298  0.00  0.00    +0.000 A 
ATOM     10  N   UNL     1       1.888   6.413  20.526  0.00  0.00    +0.000 NA
ATOM     11  C   UNL     1       1.548   7.745  20.439  0.00  0.00    +0.000 A 
ATOM     12  C   UNL     1       1.024   8.641  21.383  0.00  0.00    +0.000 A 
ATOM     13  C   UNL     1       0.712   9.945  20.960  0.00  0.00    +0.000 A 
ATOM     14  C   UNL     1       0.944  10.355  19.640  0.00  0.00    +0.000 A 
ATOM     15  C   UNL     1       1.501   9.484  18.697  0.00  0.00    +0.000 A 
ATOM     16  C   UNL     1       1.767   8.197  19.148  0.00  0.00    +0.000 A 
ATOM     17  O   UNL     1       2.251   7.155  18.417  0.00  0.00    +0.000 OA
ENDBRANCH   8   9
BRANCH   1  22
ATOM     18  C   UNL     1       7.414   5.955  18.177  0.00  0.00    +0.000 A 
ATOM     19  C   UNL     1       7.441   5.624  16.821  0.00  0.00    +0.000 A 
ATOM     20  C   UNL     1       6.507   4.748  16.281  0.00  0.00    +0.000 A 
ATOM     21  C   UNL     1       5.567   4.155  17.108  0.00  0.00    +0.000 A 
ATOM     22  C   UNL     1       5.658   4.294  18.495  0.00  0.00    +0.000 A 
ATOM     23  C   UNL     1       6.559   5.238  19.029  0.00  0.00    +0.000 A 
BRANCH  18  26
ATOM     24  O   UNL     1       7.485   8.758  17.338  0.00  0.00    +0.000 OA
ATOM     25  C   UNL     1       8.174   8.324  18.254  0.00  0.00    +0.000 C 
ATOM     26  N   UNL     1       8.208   7.009  18.704  0.00  0.00    +0.000 N 
ATOM     27  N   UNL     1       9.023   9.153  18.963  0.00  0.00    +0.000 N 
ATOM     28  H   UNL     1       8.640   6.845  19.600  0.00  0.00    +0.000 HD
ATOM     29  H   UNL     1       9.546   8.785  19.743  0.00  0.00    +0.000 HD
BRANCH  27  30
ATOM     30  C   UNL     1       9.082  10.558  18.689  0.00  0.00    +0.000 C 
ATOM     31  C   UNL     1      10.301  11.194  18.077  0.00  0.00    +0.000 C 
ATOM     32  C   UNL     1       9.967  11.450  19.519  0.00  0.00    +0.000 C 
ENDBRANCH  27  30
ENDBRANCH  18  26
ENDBRANCH   1  22
TORSDOF 4
ENDMDL
MODEL 2
REMARK VINA RESULT:      -9.6      2.524      4.458
REMARK  Name = 
REMARK  4 active torsions:
REMARK  status: ('A' for Active; 'I' for Inactive)
REMARK    1  A    between atoms: N_3  and  C_4
REMARK    2  A    between atoms: C_8  and  C_9
REMARK    3  A    between atoms: C_16  and  C_17
REMARK    4  A    between atoms: N_27  and  C_28
REMARK                            x       y       z     vdW  Elec       q    Type
REMARK                         _______ _______ _______ _____ _____    ______ ____
ROOT
ATOM      1  C   UNL     1       4.750   3.597  19.601  0.00  0.00    +0.000 C 
ATOM      2  O   UNL     1       5.185   2.599  20.172  0.00  0.00    +0.000 OA
ATOM      3  N   UNL     1       3.419   4.031  19.732  0.00  0.00    +0.000 N 
ATOM      4  C   UNL     1       2.578   3.425  20.771  0.00  0.00    +0.000 C 
ATOM      5  C   UNL     1       1.358   2.710  20.187  0.00  0.00    +0.000 C 
ATOM      6  C   UNL     1       0.579   3.599  19.223  0.00  0.00    +0.000 C 
ATOM      7  C   UNL     1       1.507   4.150  18.149  0.00  0.00    +0.000 C 
ATOM      8  C   UNL     1       2.711   4.885  18.747  0.00  0.00    +0.000 C 
ENDROOT
BRANCH   8   9
ATOM      9  C   UNL     1       2.305   6.231  19.305  0.00  0.00    +0.000 A 
ATOM     10  N   UNL     1       1.939   6.595  20.524  0.00  0.00    +0.000 NA
ATOM     11  C   UNL     1       1.570   7.914  20.380  0.00  0.00    +0.000 A 
ATOM     12  C   UNL     1       1.047   8.844  21.290  0.00  0.00    +0.000 A 
ATOM     13  C   UNL     1       0.700  10.120  20.812  0.00  0.00    +0.000 A 
ATOM     14  C   UNL     1       0.896  10.469  19.469  0.00  0.00    +0.000 A 
ATOM     15  C   UNL     1       1.452   9.564  18.557  0.00  0.00    +0.000 A 
ATOM     16  C   UNL     1       1.753   8.307  19.065  0.00  0.00    +0.000 A 
ATOM     17  O   UNL     1       2.244   7.241  18.375  0.00  0.00    +0.000 OA
ENDBRANCH   8   9
BRANCH   1  22
ATOM     18  C   UNL     1       6.823   4.725  16.604  0.00  0.00    +0.000 A 
ATOM     19  C   UNL     1       7.341   5.918  17.112  0.00  0.00    +0.000 A 
ATOM     20  C   UNL     1       7.163   6.264  18.445  0.00  0.00    +0.000 A 
ATOM     21  C   UNL     1       6.418   5.439  19.272  0.00  0.00    +0.000 A 
ATOM     22  C   UNL     1       5.705   4.362  18.739  0.00  0.00    +0.000 A 
ATOM     23  C   UNL     1       5.948   3.975  17.406  0.00  0.00    +0.000 A 
BRANCH  18  26
ATOM     24  O   UNL     1       5.098   4.384  14.265  0.00  0.00    +0.000 OA
ATOM     25  C   UNL     1       6.296   4.123  14.247  0.00  0.00    +0.000 C 
ATOM     26  N   UNL     1       7.178   4.245  15.315  0.00  0.00    +0.000 N 
ATOM     27  N   UNL     1       6.909   3.662  13.098  0.00  0.00    +0.000 N 
ATOM     28  H   UNL     1       8.162   4.216  15.098  0.00  0.00    +0.000 HD
ATOM     29  H   UNL     1       7.904   3.497  13.093  0.00  0.00    +0.000 HD
BRANCH  27  30
ATOM     30  C   UNL     1       6.178   3.529  11.872  0.00  0.00    +0.000 C 
ATOM     31  C   UNL     1       4.773   2.991  11.844  0.00  0.00    +0.000 C 
ATOM     32  C   UNL     1       5.903   2.162  11.304  0.00  0.00    +0.000 C 
ENDBRANCH  27  30
ENDBRANCH  18  26
ENDBRANCH   1  22
TORSDOF 4
ENDMDL
MODEL 3
REMARK VINA RESULT:      -9.3      0.661      1.105
REMARK  Name = 
REMARK  4 active torsions:
REMARK  status: ('A' for Active; 'I' for Inactive)
REMARK    1  A    between atoms: N_3  and  C_4
REMARK    2  A    between atoms: C_8  and  C_9
REMARK    3  A    between atoms: C_16  and  C_17
REMARK    4  A    between atoms: N_27  and  C_28
REMARK                            x       y       z     vdW  Elec       q    Type
REMARK                         _______ _______ _______ _____ _____    ______ ____
ROOT
ATOM      1  C   UNL     1       4.749   3.673  19.402  0.00  0.00    +0.000 C 
ATOM      2  O   UNL     1       5.198   2.748  20.076  0.00  0.00    +0.000 OA
ATOM      3  N   UNL     1       3.395   4.050  19.430  0.00  0.00    +0.000 N 
ATOM      4  C   UNL     1       2.527   3.489  20.473  0.00  0.00    +0.000 C 
ATOM      5  C   UNL     1       1.375   2.668  19.890  0.00  0.00    +0.000 C 
ATOM      6  C   UNL     1       0.609   3.436  18.818  0.00  0.00    +0.000 C 
ATOM      7  C   UNL     1       1.568   3.945  17.749  0.00  0.00    +0.000 C 
ATOM      8  C   UNL     1       2.703   4.785  18.344  0.00  0.00    +0.000 C 
ENDROOT
BRANCH   8   9
ATOM      9  C   UNL     1       2.206   6.149  18.766  0.00  0.00    +0.000 A 
ATOM     10  N   UNL     1       2.085   7.280  18.090  0.00  0.00    +0.000 NA
ATOM     11  C   UNL     1       1.702   8.197  19.043  0.00  0.00    +0.000 A 
ATOM     12  C   UNL     1       1.461   9.578  18.971  0.00  0.00    +0.000 A 
ATOM     13  C   UNL     1       1.145  10.261  20.158  0.00  0.00    +0.000 A 
ATOM     14  C   UNL     1       1.043   9.583  21.380  0.00  0.00    +0.000 A 
ATOM     15  C   UNL     1       1.244   8.200  21.462  0.00  0.00    +0.000 A 
ATOM     16  C   UNL     1       1.582   7.569  20.271  0.00  0.00    +0.000 A 
ATOM     17  O   UNL     1       1.883   6.253  20.098  0.00  0.00    +0.000 OA
ENDBRANCH   8   9
BRANCH   1  22
ATOM     18  C   UNL     1       7.512   6.032  18.239  0.00  0.00    +0.000 A 
ATOM     19  C   UNL     1       7.622   5.627  16.907  0.00  0.00    +0.000 A 
ATOM     20  C   UNL     1       6.713   4.735  16.354  0.00  0.00    +0.000 A 
ATOM     21  C   UNL     1       5.711   4.199  17.148  0.00  0.00    +0.000 A 
ATOM     22  C   UNL     1       5.714   4.412  18.529  0.00  0.00    +0.000 A 
ATOM     23  C   UNL     1       6.592   5.373  19.070  0.00  0.00    +0.000 A 
BRANCH  18  26
ATOM     24  O   UNL     1       7.567   8.821  17.351  0.00  0.00    +0.000 OA
ATOM     25  C   UNL     1       8.245   8.410  18.287  0.00  0.00    +0.000 C 
ATOM     26  N   UNL     1       8.285   7.104  18.760  0.00  0.00    +0.000 N 
ATOM     27  N   UNL     1       9.073   9.261  18.995  0.00  0.00    +0.000 N 
ATOM     28  H   UNL     1       8.704   6.960  19.666  0.00  0.00    +0.000 HD
ATOM     29  H   UNL     1       9.587   8.912  19.790  0.00  0.00    +0.000 HD
BRANCH  27  30
ATOM     30  C   UNL     1       9.122  10.662  18.697  0.00  0.00    +0.000 C 
ATOM     31  C   UNL     1      10.248  11.262  17.899  0.00  0.00    +0.000 C 
ATOM     32  C   UNL     1      10.143  11.540  19.371  0.00  0.00    +0.000 C 
ENDBRANCH  27  30
ENDBRANCH  18  26
ENDBRANCH   1  22
TORSDOF 4
ENDMDL
MODEL 4
REMARK VINA RESULT:      -8.9      2.622      4.620
REMARK  Name = 
REMARK  4 active torsions:
REMARK  status: ('A' for Active; 'I' for Inactive)
REMARK    1  A    between atoms: N_3  and  C_4
REMARK    2  A    between atoms: C_8  and  C_9
REMARK    3  A    between atoms: C_16  and  C_17
REMARK    4  A    between atoms: N_27  and  C_28
REMARK                            x       y       z     vdW  Elec       q    Type
REMARK                         _______ _______ _______ _____ _____    ______ ____
ROOT
ATOM      1  C   UNL     1       4.740   3.759  19.627  0.00  0.00    +0.000 C 
ATOM      2  O   UNL     1       5.194   2.866  20.340  0.00  0.00    +0.000 OA
ATOM      3  N   UNL     1       3.384   4.131  19.643  0.00  0.00    +0.000 N 
ATOM      4  C   UNL     1       2.522   3.615  20.712  0.00  0.00    +0.000 C 
ATOM      5  C   UNL     1       1.371   2.764  20.171  0.00  0.00    +0.000 C 
ATOM      6  C   UNL     1       0.598   3.481  19.068  0.00  0.00    +0.000 C 
ATOM      7  C   UNL     1       1.552   3.944  17.974  0.00  0.00    +0.000 C 
ATOM      8  C   UNL     1       2.686   4.814  18.526  0.00  0.00    +0.000 C 
ENDROOT
BRANCH   8   9
ATOM      9  C   UNL     1       2.185   6.194  18.889  0.00  0.00    +0.000 A 
ATOM     10  N   UNL     1       2.037   7.287  18.157  0.00  0.00    +0.000 NA
ATOM     11  C   UNL     1       1.667   8.250  19.071  0.00  0.00    +0.000 A 
ATOM     12  C   UNL     1       1.411   9.622  18.932  0.00  0.00    +0.000 A 
ATOM     13  C   UNL     1       1.115  10.364  20.090  0.00  0.00    +0.000 A 
ATOM     14  C   UNL     1       1.047   9.749  21.347  0.00  0.00    +0.000 A 
ATOM     15  C   UNL     1       1.264   8.375  21.496  0.00  0.00    +0.000 A 
ATOM     16  C   UNL     1       1.581   7.686  20.332  0.00  0.00    +0.000 A 
ATOM     17  O   UNL     1       1.891   6.364  20.221  0.00  0.00    +0.000 OA
ENDBRANCH   8   9
BRANCH   1  22
ATOM     18  C   UNL     1       6.784   4.707  16.549  0.00  0.00    +0.000 A 
ATOM     19  C   UNL     1       7.344   5.905  16.998  0.00  0.00    +0.000 A 
ATOM     20  C   UNL     1       7.201   6.309  18.320  0.00  0.00    +0.000 A 
ATOM     21  C   UNL     1       6.450   5.539  19.193  0.00  0.00    +0.000 A 
ATOM     22  C   UNL     1       5.698   4.461  18.718  0.00  0.00    +0.000 A 
ATOM     23  C   UNL     1       5.905   4.015  17.397  0.00  0.00    +0.000 A 
BRANCH  18  26
ATOM     24  O   UNL     1       5.047   4.463  14.207  0.00  0.00    +0.000 OA
ATOM     25  C   UNL     1       6.217   4.097  14.204  0.00  0.00    +0.000 C 
ATOM     26  N   UNL     1       7.101   4.166  15.275  0.00  0.00    +0.000 N 
ATOM     27  N   UNL     1       6.792   3.554  13.070  0.00  0.00    +0.000 N 
ATOM     28  H   UNL     1       8.079   4.044  15.066  0.00  0.00    +0.000 HD
ATOM     29  H   UNL     1       7.768   3.302  13.077  0.00  0.00    +0.000 HD
BRANCH  27  30
ATOM     30  C   UNL     1       6.057   3.457  11.844  0.00  0.00    +0.000 C 
ATOM     31  C   UNL     1       4.595   3.105  11.824  0.00  0.00    +0.000 C 
ATOM     32  C   UNL     1       5.611   2.111  11.339  0.00  0.00    +0.000 C 
ENDBRANCH  27  30
ENDBRANCH  18  26
ENDBRANCH   1  22
TORSDOF 4
ENDMDL
MODEL 5
REMARK VINA RESULT:      -7.6      4.646     10.082
REMARK  Name = 
REMARK  4 active torsions:
REMARK  status: ('A' for Active; 'I' for Inactive)
REMARK    1  A    between atoms: N_3  and  C_4
REMARK    2  A    between atoms: C_8  and  C_9
REMARK    3  A    between atoms: C_16  and  C_17
REMARK    4  A    between atoms: N_27  and  C_28
REMARK                            x       y       z     vdW  Elec       q    Type
REMARK                         _______ _______ _______ _____ _____    ______ ____
ROOT
ATOM      1  C   UNL     1      10.769  14.025  17.868  0.00  0.00    +0.000 C 
ATOM      2  O   UNL     1      11.713  13.922  17.087  0.00  0.00    +0.000 OA
ATOM      3  N   UNL     1      10.156  15.254  18.167  0.00  0.00    +0.000 N 
ATOM      4  C   UNL     1      10.484  16.425  17.344  0.00  0.00    +0.000 C 
ATOM      5  C   UNL     1      11.123  17.549  18.161  0.00  0.00    +0.000 C 
ATOM      6  C   UNL     1      10.302  17.894  19.400  0.00  0.00    +0.000 C 
ATOM      7  C   UNL     1      10.044  16.640  20.226  0.00  0.00    +0.000 C 
ATOM      8  C   UNL     1       9.383  15.532  19.401  0.00  0.00    +0.000 C 
ENDROOT
BRANCH   8   9
ATOM      9  C   UNL     1       7.927  15.845  19.137  0.00  0.00    +0.000 A 
ATOM     10  N   UNL     1       7.143  16.805  19.603  0.00  0.00    +0.000 NA
ATOM     11  C   UNL     1       5.900  16.490  19.101  0.00  0.00    +0.000 A 
ATOM     12  C   UNL     1       4.643  17.090  19.272  0.00  0.00    +0.000 A 
ATOM     13  C   UNL     1       3.528  16.479  18.672  0.00  0.00    +0.000 A 
ATOM     14  C   UNL     1       3.665  15.320  17.897  0.00  0.00    +0.000 A 
ATOM     15  C   UNL     1       4.917  14.731  17.687  0.00  0.00    +0.000 A 
ATOM     16  C   UNL     1       5.987  15.349  18.321  0.00  0.00    +0.000 A 
ATOM     17  O   UNL     1       7.286  14.942  18.322  0.00  0.00    +0.000 OA
ENDBRANCH   8   9
BRANCH   1  22
ATOM     18  C   UNL     1       9.057  10.656  18.392  0.00  0.00    +0.000 A 
ATOM     19  C   UNL     1       9.527  10.349  19.671  0.00  0.00    +0.000 A 
ATOM     20  C   UNL     1      10.240  11.283  20.413  0.00  0.00    +0.000 A 
ATOM     21  C   UNL     1      10.534  12.518  19.857  0.00  0.00    +0.000 A 
ATOM     22  C   UNL     1      10.272  12.766  18.508  0.00  0.00    +0.000 A 
ATOM     23  C   UNL     1       9.486  11.846  17.784  0.00  0.00    +0.000 A 
BRANCH  18  26
ATOM     24  O   UNL     1       8.620   7.788  18.775  0.00  0.00    +0.000 OA
ATOM     25  C   UNL     1       7.988   8.451  17.960  0.00  0.00    +0.000 C 
ATOM     26  N   UNL     1       8.144   9.809  17.709  0.00  0.00    +0.000 N 
ATOM     27  N   UNL     1       7.007   7.872  17.177  0.00  0.00    +0.000 N 
ATOM     28  H   UNL     1       7.411  10.263  17.186  0.00  0.00    +0.000 HD
ATOM     29  H   UNL     1       6.468   8.445  16.546  0.00  0.00    +0.000 HD
BRANCH  27  30
ATOM     30  C   UNL     1       6.656   6.492  17.333  0.00  0.00    +0.000 C 
ATOM     31  C   UNL     1       6.093   5.685  16.194  0.00  0.00    +0.000 C 
ATOM     32  C   UNL     1       5.207   6.080  17.341  0.00  0.00    +0.000 C 
ENDBRANCH  27  30
ENDBRANCH  18  26
ENDBRANCH   1  22
TORSDOF 4
ENDMDL
MODEL 6
REMARK VINA RESULT:      -7.5      4.515      9.446
REMARK  Name = 
REMARK  4 active torsions:
REMARK  status: ('A' for Active; 'I' for Inactive)
REMARK    1  A    between atoms: N_3  and  C_4
REMARK    2  A    between atoms: C_8  and  C_9
REMARK    3  A    between atoms: C_16  and  C_17
REMARK    4  A    between atoms: N_27  and  C_28
REMARK                            x       y       z     vdW  Elec       q    Type
REMARK                         _______ _______ _______ _____ _____    ______ ____
ROOT
ATOM      1  C   UNL     1       9.954  13.625  17.919  0.00  0.00    +0.000 C 
ATOM      2  O   UNL     1      10.946  13.680  17.194  0.00  0.00    +0.000 OA
ATOM      3  N   UNL     1       9.177  14.753  18.235  0.00  0.00    +0.000 N 
ATOM      4  C   UNL     1       9.402  15.997  17.490  0.00  0.00    +0.000 C 
ATOM      5  C   UNL     1       9.849  17.145  18.396  0.00  0.00    +0.000 C 
ATOM      6  C   UNL     1       8.924  17.321  19.597  0.00  0.00    +0.000 C 
ATOM      7  C   UNL     1       8.779  16.002  20.346  0.00  0.00    +0.000 C 
ATOM      8  C   UNL     1       8.308  14.867  19.431  0.00  0.00    +0.000 C 
ENDROOT
BRANCH   8   9
ATOM      9  C   UNL     1       6.841  15.014  19.092  0.00  0.00    +0.000 A 
ATOM     10  N   UNL     1       6.193  14.876  17.947  0.00  0.00    +0.000 NA
ATOM     11  C   UNL     1       4.905  15.262  18.246  0.00  0.00    +0.000 A 
ATOM     12  C   UNL     1       3.756  15.384  17.450  0.00  0.00    +0.000 A 
ATOM     13  C   UNL     1       2.583  15.878  18.047  0.00  0.00    +0.000 A 
ATOM     14  C   UNL     1       2.547  16.214  19.407  0.00  0.00    +0.000 A 
ATOM     15  C   UNL     1       3.675  16.063  20.222  0.00  0.00    +0.000 A 
ATOM     16  C   UNL     1       4.819  15.599  19.586  0.00  0.00    +0.000 A 
ATOM     17  O   UNL     1       6.050  15.423  20.140  0.00  0.00    +0.000 OA
ENDBRANCH   8   9
BRANCH   1  22
ATOM     18  C   UNL     1       8.586  10.075  18.198  0.00  0.00    +0.000 A 
ATOM     19  C   UNL     1       9.080   9.730  19.458  0.00  0.00    +0.000 A 
ATOM     20  C   UNL     1       9.693  10.678  20.268  0.00  0.00    +0.000 A 
ATOM     21  C   UNL     1       9.863  11.971  19.800  0.00  0.00    +0.000 A 
ATOM     22  C   UNL     1       9.583  12.283  18.467  0.00  0.00    +0.000 A 
ATOM     23  C   UNL     1       8.896  11.340  17.675  0.00  0.00    +0.000 A 
BRANCH  18  26
ATOM     24  O   UNL     1       8.220   7.196  18.575  0.00  0.00    +0.000 OA
ATOM     25  C   UNL     1       7.636   7.828  17.702  0.00  0.00    +0.000 C 
ATOM     26  N   UNL     1       7.764   9.190  17.450  0.00  0.00    +0.000 N 
ATOM     27  N   UNL     1       6.746   7.208  16.846  0.00  0.00    +0.000 N 
ATOM     28  H   UNL     1       7.063   9.611  16.862  0.00  0.00    +0.000 HD
ATOM     29  H   UNL     1       6.243   7.755  16.165  0.00  0.00    +0.000 HD
BRANCH  27  30
ATOM     30  C   UNL     1       6.432   5.817  16.988  0.00  0.00    +0.000 C 
ATOM     31  C   UNL     1       7.080   4.768  16.126  0.00  0.00    +0.000 C 
ATOM     32  C   UNL     1       5.633   5.113  15.923  0.00  0.00    +0.000 C 
ENDBRANCH  27  30
ENDBRANCH  18  26
ENDBRANCH   1  22
TORSDOF 4
ENDMDL
MODEL 7
REMARK VINA RESULT:      -7.5      6.296      8.312
REMARK  Name = 
REMARK  4 active torsions:
REMARK  status: ('A' for Active; 'I' for Inactive)
REMARK    1  A    between atoms: N_3  and  C_4
REMARK    2  A    between atoms: C_8  and  C_9
REMARK    3  A    between atoms: C_16  and  C_17
REMARK    4  A    between atoms: N_27  and  C_28
REMARK                            x       y       z     vdW  Elec       q    Type
REMARK                         _______ _______ _______ _____ _____    ______ ____
ROOT
ATOM      1  C   UNL     1      -0.033  13.277  21.798  0.00  0.00    +0.000 C 
ATOM      2  O   UNL     1      -0.189  13.708  22.939  0.00  0.00    +0.000 OA
ATOM      3  N   UNL     1      -0.369  11.964  21.426  0.00  0.00    +0.000 N 
ATOM      4  C   UNL     1      -1.158  11.147  22.356  0.00  0.00    +0.000 C 
ATOM      5  C   UNL     1      -0.410   9.889  22.801  0.00  0.00    +0.000 C 
ATOM      6  C   UNL     1       0.136   9.097  21.617  0.00  0.00    +0.000 C 
ATOM      7  C   UNL     1       0.980   9.998  20.726  0.00  0.00    +0.000 C 
ATOM      8  C   UNL     1       0.211  11.242  20.268  0.00  0.00    +0.000 C 
ENDROOT
BRANCH   8   9
ATOM      9  C   UNL     1      -0.809  10.891  19.209  0.00  0.00    +0.000 A 
ATOM     10  N   UNL     1      -0.731  10.098  18.152  0.00  0.00    +0.000 NA
ATOM     11  C   UNL     1      -1.933  10.287  17.506  0.00  0.00    +0.000 A 
ATOM     12  C   UNL     1      -2.440   9.771  16.304  0.00  0.00    +0.000 A 
ATOM     13  C   UNL     1      -3.700  10.218  15.868  0.00  0.00    +0.000 A 
ATOM     14  C   UNL     1      -4.448  11.131  16.624  0.00  0.00    +0.000 A 
ATOM     15  C   UNL     1      -3.971  11.626  17.843  0.00  0.00    +0.000 A 
ATOM     16  C   UNL     1      -2.710  11.181  18.222  0.00  0.00    +0.000 A 
ATOM     17  O   UNL     1      -2.006  11.556  19.325  0.00  0.00    +0.000 OA
ENDBRANCH   8   9
BRANCH   1  22
ATOM     18  C   UNL     1       2.447  15.222  19.648  0.00  0.00    +0.000 A 
ATOM     19  C   UNL     1       1.560  15.836  18.762  0.00  0.00    +0.000 A 
ATOM     20  C   UNL     1       0.187  15.760  18.959  0.00  0.00    +0.000 A 
ATOM     21  C   UNL     1      -0.312  15.022  20.021  0.00  0.00    +0.000 A 
ATOM     22  C   UNL     1       0.538  14.219  20.785  0.00  0.00    +0.000 A 
ATOM     23  C   UNL     1       1.932  14.357  20.627  0.00  0.00    +0.000 A 
BRANCH  18  26
ATOM     24  O   UNL     1       4.421  14.064  17.825  0.00  0.00    +0.000 OA
ATOM     25  C   UNL     1       4.718  14.883  18.687  0.00  0.00    +0.000 C 
ATOM     26  N   UNL     1       3.845  15.469  19.598  0.00  0.00    +0.000 N 
ATOM     27  N   UNL     1       6.020  15.324  18.836  0.00  0.00    +0.000 N 
ATOM     28  H   UNL     1       4.179  16.283  20.089  0.00  0.00    +0.000 HD
ATOM     29  H   UNL     1       6.233  16.032  19.521  0.00  0.00    +0.000 HD
BRANCH  27  30
ATOM     30  C   UNL     1       7.055  14.882  17.949  0.00  0.00    +0.000 C 
ATOM     31  C   UNL     1       8.348  14.313  18.465  0.00  0.00    +0.000 C 
ATOM     32  C   UNL     1       8.330  15.673  17.828  0.00  0.00    +0.000 C 
ENDBRANCH  27  30
ENDBRANCH  18  26
ENDBRANCH   1  22
TORSDOF 4
ENDMDL
MODEL 8
REMARK VINA RESULT:      -7.5      4.597      8.855
REMARK  Name = 
REMARK  4 active torsions:
REMARK  status: ('A' for Active; 'I' for Inactive)
REMARK    1  A    between atoms: N_3  and  C_4
REMARK    2  A    between atoms: C_8  and  C_9
REMARK    3  A    between atoms: C_16  and  C_17
REMARK    4  A    between atoms: N_27  and  C_28
REMARK                            x       y       z     vdW  Elec       q    Type
REMARK                         _______ _______ _______ _____ _____    ______ ____
ROOT
ATOM      1  C   UNL     1       0.869  12.565  21.122  0.00  0.00    +0.000 C 
ATOM      2  O   UNL     1       1.841  13.263  21.405  0.00  0.00    +0.000 OA
ATOM      3  N   UNL     1      -0.445  12.902  21.493  0.00  0.00    +0.000 N 
ATOM      4  C   UNL     1      -0.707  14.247  22.020  0.00  0.00    +0.000 C 
ATOM      5  C   UNL     1      -1.253  14.213  23.449  0.00  0.00    +0.000 C 
ATOM      6  C   UNL     1      -2.444  13.270  23.585  0.00  0.00    +0.000 C 
ATOM      7  C   UNL     1      -2.081  11.886  23.063  0.00  0.00    +0.000 C 
ATOM      8  C   UNL     1      -1.558  11.931  21.623  0.00  0.00    +0.000 C 
ENDROOT
BRANCH   8   9
ATOM      9  C   UNL     1      -2.683  12.176  20.643  0.00  0.00    +0.000 A 
ATOM     10  N   UNL     1      -3.883  12.711  20.809  0.00  0.00    +0.000 NA
ATOM     11  C   UNL     1      -4.493  12.542  19.585  0.00  0.00    +0.000 A 
ATOM     12  C   UNL     1      -5.784  12.852  19.133  0.00  0.00    +0.000 A 
ATOM     13  C   UNL     1      -6.135  12.486  17.822  0.00  0.00    +0.000 A 
ATOM     14  C   UNL     1      -5.215  11.855  16.974  0.00  0.00    +0.000 A 
ATOM     15  C   UNL     1      -3.912  11.573  17.398  0.00  0.00    +0.000 A 
ATOM     16  C   UNL     1      -3.616  11.925  18.709  0.00  0.00    +0.000 A 
ATOM     17  O   UNL     1      -2.448  11.706  19.373  0.00  0.00    +0.000 OA
ENDBRANCH   8   9
BRANCH   1  22
ATOM     18  C   UNL     1       1.353   8.888  20.231  0.00  0.00    +0.000 A 
ATOM     19  C   UNL     1       1.430   8.991  18.840  0.00  0.00    +0.000 A 
ATOM     20  C   UNL     1       1.494  10.231  18.218  0.00  0.00    +0.000 A 
ATOM     21  C   UNL     1       1.430  11.384  18.984  0.00  0.00    +0.000 A 
ATOM     22  C   UNL     1       1.130  11.313  20.347  0.00  0.00    +0.000 A 
ATOM     23  C   UNL     1       1.139  10.055  20.982  0.00  0.00    +0.000 A 
BRANCH  18  26
ATOM     24  O   UNL     1       2.205   6.327  19.099  0.00  0.00    +0.000 OA
ATOM     25  C   UNL     1       1.934   6.469  20.286  0.00  0.00    +0.000 C 
ATOM     26  N   UNL     1       1.511   7.644  20.898  0.00  0.00    +0.000 N 
ATOM     27  N   UNL     1       2.033   5.412  21.172  0.00  0.00    +0.000 N 
ATOM     28  H   UNL     1       1.545   7.671  21.904  0.00  0.00    +0.000 HD
ATOM     29  H   UNL     1       1.849   5.562  22.152  0.00  0.00    +0.000 HD
BRANCH  27  30
ATOM     30  C   UNL     1       2.513   4.131  20.743  0.00  0.00    +0.000 C 
ATOM     31  C   UNL     1       1.574   3.044  20.295  0.00  0.00    +0.000 C 
ATOM     32  C   UNL     1       2.294   2.918  21.607  0.00  0.00    +0.000 C 
ENDBRANCH  27  30
ENDBRANCH  18  26
ENDBRANCH   1  22
TORSDOF 4
ENDMDL
MODEL 9
REMARK VINA RESULT:      -7.4      8.420     11.137
REMARK  Name = 
REMARK  4 active torsions:
REMARK  status: ('A' for Active; 'I' for Inactive)
REMARK    1  A    between atoms: N_3  and  C_4
REMARK    2  A    between atoms: C_8  and  C_9
REMARK    3  A    between atoms: C_16  and  C_17
REMARK    4  A    between atoms: N_27  and  C_28
REMARK                            x       y       z     vdW  Elec       q    Type
REMARK                         _______ _______ _______ _____ _____    ______ ____
ROOT
ATOM      1  C   UNL     1      -1.009  14.901  22.140  0.00  0.00    +0.000 C 
ATOM      2  O   UNL     1      -0.442  15.878  22.625  0.00  0.00    +0.000 OA
ATOM      3  N   UNL     1      -2.266  14.452  22.580  0.00  0.00    +0.000 N 
ATOM      4  C   UNL     1      -3.048  15.311  23.478  0.00  0.00    +0.000 C 
ATOM      5  C   UNL     1      -3.320  14.644  24.828  0.00  0.00    +0.000 C 
ATOM      6  C   UNL     1      -3.908  13.245  24.668  0.00  0.00    +0.000 C 
ATOM      7  C   UNL     1      -3.019  12.401  23.764  0.00  0.00    +0.000 C 
ATOM      8  C   UNL     1      -2.775  13.070  22.407  0.00  0.00    +0.000 C 
ENDROOT
BRANCH   8   9
ATOM      9  C   UNL     1      -4.005  12.989  21.532  0.00  0.00    +0.000 A 
ATOM     10  N   UNL     1      -5.282  13.207  21.802  0.00  0.00    +0.000 NA
ATOM     11  C   UNL     1      -5.932  12.851  20.640  0.00  0.00    +0.000 A 
ATOM     12  C   UNL     1      -7.294  12.808  20.305  0.00  0.00    +0.000 A 
ATOM     13  C   UNL     1      -7.651  12.323  19.034  0.00  0.00    +0.000 A 
ATOM     14  C   UNL     1      -6.676  11.920  18.111  0.00  0.00    +0.000 A 
ATOM     15  C   UNL     1      -5.313  11.992  18.418  0.00  0.00    +0.000 A 
ATOM     16  C   UNL     1      -5.005  12.449  19.693  0.00  0.00    +0.000 A 
ATOM     17  O   UNL     1      -3.767  12.556  20.249  0.00  0.00    +0.000 OA
ENDBRANCH   8   9
BRANCH   1  22
ATOM     18  C   UNL     1      -0.257  13.295  18.762  0.00  0.00    +0.000 A 
ATOM     19  C   UNL     1       1.101  13.017  18.931  0.00  0.00    +0.000 A 
ATOM     20  C   UNL     1       1.718  13.188  20.163  0.00  0.00    +0.000 A 
ATOM     21  C   UNL     1       0.988  13.690  21.229  0.00  0.00    +0.000 A 
ATOM     22  C   UNL     1      -0.304  14.183  21.032  0.00  0.00    +0.000 A 
ATOM     23  C   UNL     1      -0.947  13.940  19.801  0.00  0.00    +0.000 A 
BRANCH  18  26
ATOM     24  O   UNL     1      -1.828  10.871  18.288  0.00  0.00    +0.000 OA
ATOM     25  C   UNL     1      -1.693  11.749  17.443  0.00  0.00    +0.000 C 
ATOM     26  N   UNL     1      -0.956  12.919  17.584  0.00  0.00    +0.000 N 
ATOM     27  N   UNL     1      -2.300  11.646  16.205  0.00  0.00    +0.000 N 
ATOM     28  H   UNL     1      -1.119  13.645  16.904  0.00  0.00    +0.000 HD
ATOM     29  H   UNL     1      -2.213  12.401  15.541  0.00  0.00    +0.000 HD
BRANCH  27  30
ATOM     30  C   UNL     1      -3.154  10.539  15.890  0.00  0.00    +0.000 C 
ATOM     31  C   UNL     1      -2.642   9.329  15.158  0.00  0.00    +0.000 C 
ATOM     32  C   UNL     1      -3.566  10.288  14.464  0.00  0.00    +0.000 C 
ENDBRANCH  27  30
ENDBRANCH  18  26
ENDBRANCH   1  22
TORSDOF 4
ENDMDL
