MODEL 1
REMARK VINA RESULT:      -9.1      0.000      0.000
REMARK  Name = 
REMARK  6 active torsions:
REMARK  status: ('A' for Active; 'I' for Inactive)
REMARK    1  A    between atoms: C_1  and  N_2
REMARK    2  A    between atoms: C_6  and  C_7
REMARK    3  A    between atoms: C_7  and  C_8
REMARK    4  A    between atoms: C_8  and  C_9
REMARK    5  A    between atoms: C_13  and  N_14
REMARK    6  A    between atoms: C_21  and  C_22
REMARK                            x       y       z     vdW  Elec       q    Type
REMARK                         _______ _______ _______ _____ _____    ______ ____
ROOT
ATOM      1  C   UNL     1       1.494   9.105  19.157  0.00  0.00    +0.000 A 
ATOM      2  C   UNL     1       2.238   9.327  17.977  0.00  0.00    +0.000 A 
ATOM      3  C   UNL     1       2.888   8.299  17.299  0.00  0.00    +0.000 A 
ATOM      4  C   UNL     1       2.905   7.027  17.844  0.00  0.00    +0.000 A 
ATOM      5  C   UNL     1       2.406   6.834  19.140  0.00  0.00    +0.000 A 
ATOM      6  C   UNL     1       1.608   7.820  19.724  0.00  0.00    +0.000 A 
ENDROOT
BRANCH   5   7
ATOM      7  N   UNL     1       3.153   6.000  20.053  0.00  0.00    +0.000 N 
ATOM      8  C   UNL     1       4.433   5.606  19.396  0.00  0.00    +0.000 C 
ATOM      9  C   UNL     1       4.134   4.236  18.871  0.00  0.00    +0.000 A 
ATOM     10  C   UNL     1       3.088   3.712  19.642  0.00  0.00    +0.000 A 
ATOM     11  C   UNL     1       2.439   2.532  19.339  0.00  0.00    +0.000 A 
ATOM     12  C   UNL     1       2.838   1.876  18.182  0.00  0.00    +0.000 A 
ATOM     13  C   UNL     1       3.855   2.416  17.367  0.00  0.00    +0.000 A 
ATOM     14  C   UNL     1       4.537   3.605  17.698  0.00  0.00    +0.000 A 
ATOM     15  C   UNL     1       2.522   4.806  20.455  0.00  0.00    +0.000 C 
ATOM     16  O   UNL     1       1.565   4.675  21.199  0.00  0.00    +0.000 OA
BRANCH  14  17
ATOM     17  C   UNL     1       5.516   4.173  16.764  0.00  0.00    +0.000 C 
ATOM     18  C   UNL     1       6.788   4.505  17.014  0.00  0.00    +0.000 C 
ATOM     19  N   UNL     1       7.465   4.932  15.894  0.00  0.00    +0.000 N 
ATOM     20  C   UNL     1       6.568   4.937  14.741  0.00  0.00    +0.000 C 
ATOM     21  C   UNL     1       5.209   4.482  15.315  0.00  0.00    +0.000 C 
ATOM     22  H   UNL     1       8.001   5.785  16.059  0.00  0.00    +0.000 HD
ENDBRANCH  14  17
ENDBRANCH   5   7
BRANCH   1  23
ATOM     23  C   UNL     1       0.572  10.242  19.820  0.00  0.00    +0.000 C 
ATOM     24  C   UNL     1      -0.362   9.866  20.990  0.00  0.00    +0.000 C 
ATOM     25  O   UNL     1       0.304  10.765  21.899  0.00  0.00    +0.000 OA
ATOM     26  C   UNL     1       1.320  11.050  20.915  0.00  0.00    +0.000 C 
BRANCH  23  27
ATOM     27  C   UNL     1      -0.101  11.189  18.803  0.00  0.00    +0.000 C 
BRANCH  27  33
ATOM     28  C   UNL     1      -2.975  12.253  19.559  0.00  0.00    +0.000 C 
ATOM     29  N   UNL     1      -2.649  11.242  18.587  0.00  0.00    +0.000 N 
ATOM     30  C   UNL     1      -3.550  10.634  17.766  0.00  0.00    +0.000 A 
ATOM     31  N   UNL     1      -2.931   9.765  17.006  0.00  0.00    +0.000 NA
ATOM     32  N   UNL     1      -1.592   9.833  17.309  0.00  0.00    +0.000 NA
ATOM     33  C   UNL     1      -1.419  10.726  18.264  0.00  0.00    +0.000 A 
ENDBRANCH  27  33
ENDBRANCH  23  27
ENDBRANCH   1  23
TORSDOF 5
ENDMDL
MODEL 2
REMARK VINA RESULT:      -8.8      0.584      1.117
REMARK  Name = 
REMARK  6 active torsions:
REMARK  status: ('A' for Active; 'I' for Inactive)
REMARK    1  A    between atoms: C_1  and  N_2
REMARK    2  A    between atoms: C_6  and  C_7
REMARK    3  A    between atoms: C_7  and  C_8
REMARK    4  A    between atoms: C_8  and  C_9
REMARK    5  A    between atoms: C_13  and  N_14
REMARK    6  A    between atoms: C_21  and  C_22
REMARK                            x       y       z     vdW  Elec       q    Type
REMARK                         _______ _______ _______ _____ _____    ______ ____
ROOT
ATOM      1  C   UNL     1       1.467   9.005  19.224  0.00  0.00    +0.000 A 
ATOM      2  C   UNL     1       2.205   9.269  18.049  0.00  0.00    +0.000 A 
ATOM      3  C   UNL     1       2.887   8.273  17.354  0.00  0.00    +0.000 A 
ATOM      4  C   UNL     1       2.944   6.994  17.878  0.00  0.00    +0.000 A 
ATOM      5  C   UNL     1       2.450   6.764  19.170  0.00  0.00    +0.000 A 
ATOM      6  C   UNL     1       1.621   7.714  19.770  0.00  0.00    +0.000 A 
ENDROOT
BRANCH   5   7
ATOM      7  N   UNL     1       3.223   5.940  20.071  0.00  0.00    +0.000 N 
ATOM      8  C   UNL     1       4.497   5.562  19.393  0.00  0.00    +0.000 C 
ATOM      9  C   UNL     1       4.207   4.189  18.871  0.00  0.00    +0.000 A 
ATOM     10  C   UNL     1       3.181   3.651  19.659  0.00  0.00    +0.000 A 
ATOM     11  C   UNL     1       2.541   2.463  19.366  0.00  0.00    +0.000 A 
ATOM     12  C   UNL     1       2.931   1.813  18.202  0.00  0.00    +0.000 A 
ATOM     13  C   UNL     1       3.927   2.366  17.371  0.00  0.00    +0.000 A 
ATOM     14  C   UNL     1       4.599   3.564  17.692  0.00  0.00    +0.000 A 
ATOM     15  C   UNL     1       2.613   4.737  20.482  0.00  0.00    +0.000 C 
ATOM     16  O   UNL     1       1.670   4.593  21.241  0.00  0.00    +0.000 OA
BRANCH  14  17
ATOM     17  C   UNL     1       5.555   4.145  16.743  0.00  0.00    +0.000 C 
ATOM     18  C   UNL     1       6.844   4.436  16.955  0.00  0.00    +0.000 C 
ATOM     19  N   UNL     1       7.488   4.891  15.826  0.00  0.00    +0.000 N 
ATOM     20  C   UNL     1       6.548   4.963  14.711  0.00  0.00    +0.000 C 
ATOM     21  C   UNL     1       5.201   4.518  15.320  0.00  0.00    +0.000 C 
ATOM     22  H   UNL     1       8.052   5.723  16.003  0.00  0.00    +0.000 HD
ENDBRANCH  14  17
ENDBRANCH   5   7
BRANCH   1  23
ATOM     23  C   UNL     1       0.509  10.101  19.904  0.00  0.00    +0.000 C 
ATOM     24  C   UNL     1      -0.652   9.630  20.804  0.00  0.00    +0.000 C 
ATOM     25  O   UNL     1      -0.117  10.301  21.962  0.00  0.00    +0.000 OA
ATOM     26  C   UNL     1       1.084  10.645  21.241  0.00  0.00    +0.000 C 
BRANCH  23  27
ATOM     27  C   UNL     1       0.105  11.261  18.969  0.00  0.00    +0.000 C 
BRANCH  27  33
ATOM     28  C   UNL     1      -1.937   9.897  16.985  0.00  0.00    +0.000 C 
ATOM     29  N   UNL     1      -2.231  10.870  18.005  0.00  0.00    +0.000 N 
ATOM     30  C   UNL     1      -3.482  11.301  18.330  0.00  0.00    +0.000 A 
ATOM     31  N   UNL     1      -3.402  12.186  19.293  0.00  0.00    +0.000 NA
ATOM     32  N   UNL     1      -2.076  12.309  19.631  0.00  0.00    +0.000 NA
ATOM     33  C   UNL     1      -1.366  11.514  18.853  0.00  0.00    +0.000 A 
ENDBRANCH  27  33
ENDBRANCH  23  27
ENDBRANCH   1  23
TORSDOF 5
ENDMDL
MODEL 3
REMARK VINA RESULT:      -8.8      1.344      1.587
REMARK  Name = 
REMARK  6 active torsions:
REMARK  status: ('A' for Active; 'I' for Inactive)
REMARK    1  A    between atoms: C_1  and  N_2
REMARK    2  A    between atoms: C_6  and  C_7
REMARK    3  A    between atoms: C_7  and  C_8
REMARK    4  A    between atoms: C_8  and  C_9
REMARK    5  A    between atoms: C_13  and  N_14
REMARK    6  A    between atoms: C_21  and  C_22
REMARK                            x       y       z     vdW  Elec       q    Type
REMARK                         _______ _______ _______ _____ _____    ______ ____
ROOT
ATOM      1  C   UNL     1       1.358   8.801  19.526  0.00  0.00    +0.000 A 
ATOM      2  C   UNL     1       2.077   9.198  18.377  0.00  0.00    +0.000 A 
ATOM      3  C   UNL     1       2.822   8.302  17.614  0.00  0.00    +0.000 A 
ATOM      4  C   UNL     1       2.961   6.994  18.043  0.00  0.00    +0.000 A 
ATOM      5  C   UNL     1       2.483   6.638  19.312  0.00  0.00    +0.000 A 
ATOM      6  C   UNL     1       1.595   7.486  19.976  0.00  0.00    +0.000 A 
ENDROOT
BRANCH   5   7
ATOM      7  N   UNL     1       3.307   5.800  20.153  0.00  0.00    +0.000 N 
ATOM      8  C   UNL     1       4.557   5.467  19.411  0.00  0.00    +0.000 C 
ATOM      9  C   UNL     1       4.269   4.105  18.859  0.00  0.00    +0.000 A 
ATOM     10  C   UNL     1       3.286   3.525  19.671  0.00  0.00    +0.000 A 
ATOM     11  C   UNL     1       2.655   2.335  19.368  0.00  0.00    +0.000 A 
ATOM     12  C   UNL     1       3.005   1.728  18.169  0.00  0.00    +0.000 A 
ATOM     13  C   UNL     1       3.955   2.325  17.315  0.00  0.00    +0.000 A 
ATOM     14  C   UNL     1       4.621   3.524  17.645  0.00  0.00    +0.000 A 
ATOM     15  C   UNL     1       2.736   4.574  20.551  0.00  0.00    +0.000 C 
ATOM     16  O   UNL     1       1.828   4.390  21.344  0.00  0.00    +0.000 OA
BRANCH  14  17
ATOM     17  C   UNL     1       5.526   4.151  16.676  0.00  0.00    +0.000 C 
ATOM     18  C   UNL     1       6.793   4.535  16.869  0.00  0.00    +0.000 C 
ATOM     19  N   UNL     1       7.394   5.011  15.726  0.00  0.00    +0.000 N 
ATOM     20  C   UNL     1       6.442   4.996  14.618  0.00  0.00    +0.000 C 
ATOM     21  C   UNL     1       5.133   4.471  15.250  0.00  0.00    +0.000 C 
ATOM     22  H   UNL     1       7.901   5.883  15.881  0.00  0.00    +0.000 HD
ENDBRANCH  14  17
ENDBRANCH   5   7
BRANCH   1  23
ATOM     23  C   UNL     1       0.332   9.780  20.280  0.00  0.00    +0.000 C 
ATOM     24  C   UNL     1      -0.264   9.346  21.636  0.00  0.00    +0.000 C 
ATOM     25  O   UNL     1       0.328  10.462  22.330  0.00  0.00    +0.000 OA
ATOM     26  C   UNL     1       1.057  10.847  21.147  0.00  0.00    +0.000 C 
BRANCH  23  27
ATOM     27  C   UNL     1      -0.712  10.443  19.356  0.00  0.00    +0.000 C 
BRANCH  27  33
ATOM     28  C   UNL     1      -2.402  12.657  20.841  0.00  0.00    +0.000 C 
ATOM     29  N   UNL     1      -1.324  12.863  19.909  0.00  0.00    +0.000 N 
ATOM     30  C   UNL     1      -0.804  14.078  19.580  0.00  0.00    +0.000 A 
ATOM     31  N   UNL     1       0.160  13.918  18.707  0.00  0.00    +0.000 NA
ATOM     32  N   UNL     1       0.297  12.568  18.488  0.00  0.00    +0.000 NA
ATOM     33  C   UNL     1      -0.599  11.929  19.214  0.00  0.00    +0.000 A 
ENDBRANCH  27  33
ENDBRANCH  23  27
ENDBRANCH   1  23
TORSDOF 5
ENDMDL
MODEL 4
REMARK VINA RESULT:      -8.8      2.218      8.413
REMARK  Name = 
REMARK  6 active torsions:
REMARK  status: ('A' for Active; 'I' for Inactive)
REMARK    1  A    between atoms: C_1  and  N_2
REMARK    2  A    between atoms: C_6  and  C_7
REMARK    3  A    between atoms: C_7  and  C_8
REMARK    4  A    between atoms: C_8  and  C_9
REMARK    5  A    between atoms: C_13  and  N_14
REMARK    6  A    between atoms: C_21  and  C_22
REMARK                            x       y       z     vdW  Elec       q    Type
REMARK                         _______ _______ _______ _____ _____    ______ ____
ROOT
ATOM      1  C   UNL     1       2.321   7.540  18.669  0.00  0.00    +0.000 A 
ATOM      2  C   UNL     1       2.144   8.544  17.692  0.00  0.00    +0.000 A 
ATOM      3  C   UNL     1       1.715   9.830  18.011  0.00  0.00    +0.000 A 
ATOM      4  C   UNL     1       1.342  10.121  19.311  0.00  0.00    +0.000 A 
ATOM      5  C   UNL     1       1.253   9.078  20.244  0.00  0.00    +0.000 A 
ATOM      6  C   UNL     1       1.849   7.848  19.961  0.00  0.00    +0.000 A 
ENDROOT
BRANCH   5   7
ATOM      7  N   UNL     1       0.115   9.040  21.135  0.00  0.00    +0.000 N 
ATOM      8  C   UNL     1      -1.106   9.402  20.359  0.00  0.00    +0.000 C 
ATOM      9  C   UNL     1      -1.290  10.853  20.677  0.00  0.00    +0.000 A 
ATOM     10  C   UNL     1      -0.656  11.096  21.902  0.00  0.00    +0.000 A 
ATOM     11  C   UNL     1      -0.480  12.360  22.430  0.00  0.00    +0.000 A 
ATOM     12  C   UNL     1      -0.930  13.426  21.663  0.00  0.00    +0.000 A 
ATOM     13  C   UNL     1      -1.525  13.203  20.404  0.00  0.00    +0.000 A 
ATOM     14  C   UNL     1      -1.732  11.908  19.884  0.00  0.00    +0.000 A 
ATOM     15  C   UNL     1       0.166   9.917  22.238  0.00  0.00    +0.000 C 
ATOM     16  O   UNL     1       0.877   9.842  23.225  0.00  0.00    +0.000 OA
BRANCH  14  17
ATOM     17  C   UNL     1      -2.264  11.739  18.528  0.00  0.00    +0.000 C 
ATOM     18  C   UNL     1      -1.589  11.775  17.373  0.00  0.00    +0.000 C 
ATOM     19  N   UNL     1      -2.374  11.490  16.278  0.00  0.00    +0.000 N 
ATOM     20  C   UNL     1      -3.754  11.265  16.700  0.00  0.00    +0.000 C 
ATOM     21  C   UNL     1      -3.726  11.488  18.228  0.00  0.00    +0.000 C 
ATOM     22  H   UNL     1      -2.232  12.148  15.510  0.00  0.00    +0.000 HD
ENDBRANCH  14  17
ENDBRANCH   5   7
BRANCH   1  23
ATOM     23  C   UNL     1       3.015   6.129  18.338  0.00  0.00    +0.000 C 
ATOM     24  C   UNL     1       4.283   6.103  17.458  0.00  0.00    +0.000 C 
ATOM     25  O   UNL     1       5.085   5.534  18.512  0.00  0.00    +0.000 OA
ATOM     26  C   UNL     1       4.000   5.675  19.451  0.00  0.00    +0.000 C 
BRANCH  23  27
ATOM     27  C   UNL     1       2.024   4.998  17.988  0.00  0.00    +0.000 C 
BRANCH  27  33
ATOM     28  C   UNL     1       3.173   2.078  18.328  0.00  0.00    +0.000 C 
ATOM     29  N   UNL     1       2.291   2.776  19.226  0.00  0.00    +0.000 N 
ATOM     30  C   UNL     1       1.872   2.300  20.431  0.00  0.00    +0.000 A 
ATOM     31  N   UNL     1       1.079   3.176  20.996  0.00  0.00    +0.000 NA
ATOM     32  N   UNL     1       1.007   4.265  20.160  0.00  0.00    +0.000 NA
ATOM     33  C   UNL     1       1.740   4.025  19.090  0.00  0.00    +0.000 A 
ENDBRANCH  27  33
ENDBRANCH  23  27
ENDBRANCH   1  23
TORSDOF 5
ENDMDL
MODEL 5
REMARK VINA RESULT:      -8.7      1.018      1.192
REMARK  Name = 
REMARK  6 active torsions:
REMARK  status: ('A' for Active; 'I' for Inactive)
REMARK    1  A    between atoms: C_1  and  N_2
REMARK    2  A    between atoms: C_6  and  C_7
REMARK    3  A    between atoms: C_7  and  C_8
REMARK    4  A    between atoms: C_8  and  C_9
REMARK    5  A    between atoms: C_13  and  N_14
REMARK    6  A    between atoms: C_21  and  C_22
REMARK                            x       y       z     vdW  Elec       q    Type
REMARK                         _______ _______ _______ _____ _____    ______ ____
ROOT
ATOM      1  C   UNL     1       1.374   8.707  19.970  0.00  0.00    +0.000 A 
ATOM      2  C   UNL     1       1.865   9.116  18.711  0.00  0.00    +0.000 A 
ATOM      3  C   UNL     1       2.444   8.226  17.810  0.00  0.00    +0.000 A 
ATOM      4  C   UNL     1       2.652   6.912  18.188  0.00  0.00    +0.000 A 
ATOM      5  C   UNL     1       2.420   6.541  19.521  0.00  0.00    +0.000 A 
ATOM      6  C   UNL     1       1.681   7.386  20.351  0.00  0.00    +0.000 A 
ENDROOT
BRANCH   5   7
ATOM      7  N   UNL     1       3.381   5.688  20.180  0.00  0.00    +0.000 N 
ATOM      8  C   UNL     1       4.522   5.451  19.249  0.00  0.00    +0.000 C 
ATOM      9  C   UNL     1       4.200   4.115  18.654  0.00  0.00    +0.000 A 
ATOM     10  C   UNL     1       3.362   3.447  19.557  0.00  0.00    +0.000 A 
ATOM     11  C   UNL     1       2.732   2.253  19.268  0.00  0.00    +0.000 A 
ATOM     12  C   UNL     1       2.925   1.735  17.994  0.00  0.00    +0.000 A 
ATOM     13  C   UNL     1       3.725   2.421  17.056  0.00  0.00    +0.000 A 
ATOM     14  C   UNL     1       4.393   3.623  17.367  0.00  0.00    +0.000 A 
ATOM     15  C   UNL     1       2.912   4.418  20.573  0.00  0.00    +0.000 C 
ATOM     16  O   UNL     1       2.133   4.150  21.473  0.00  0.00    +0.000 OA
BRANCH  14  17
ATOM     17  C   UNL     1       5.129   4.344  16.323  0.00  0.00    +0.000 C 
ATOM     18  C   UNL     1       5.102   5.656  16.060  0.00  0.00    +0.000 C 
ATOM     19  N   UNL     1       5.981   6.026  15.067  0.00  0.00    +0.000 N 
ATOM     20  C   UNL     1       6.674   4.849  14.550  0.00  0.00    +0.000 C 
ATOM     21  C   UNL     1       6.068   3.672  15.346  0.00  0.00    +0.000 C 
ATOM     22  H   UNL     1       5.556   6.647  14.377  0.00  0.00    +0.000 HD
ENDBRANCH  14  17
ENDBRANCH   5   7
BRANCH   1  23
ATOM     23  C   UNL     1       0.517   9.683  20.917  0.00  0.00    +0.000 C 
ATOM     24  C   UNL     1      -0.696   9.113  21.683  0.00  0.00    +0.000 C 
ATOM     25  O   UNL     1      -0.114   9.414  22.966  0.00  0.00    +0.000 OA
ATOM     26  C   UNL     1       1.124   9.812  22.342  0.00  0.00    +0.000 C 
BRANCH  23  27
ATOM     27  C   UNL     1       0.238  11.075  20.312  0.00  0.00    +0.000 C 
BRANCH  27  33
ATOM     28  C   UNL     1      -2.240  12.803  21.227  0.00  0.00    +0.000 C 
ATOM     29  N   UNL     1      -2.121  12.019  20.025  0.00  0.00    +0.000 N 
ATOM     30  C   UNL     1      -3.056  11.969  19.035  0.00  0.00    +0.000 A 
ATOM     31  N   UNL     1      -2.643  11.164  18.087  0.00  0.00    +0.000 NA
ATOM     32  N   UNL     1      -1.397  10.709  18.446  0.00  0.00    +0.000 NA
ATOM     33  C   UNL     1      -1.080  11.225  19.617  0.00  0.00    +0.000 A 
ENDBRANCH  27  33
ENDBRANCH  23  27
ENDBRANCH   1  23
TORSDOF 5
ENDMDL
MODEL 6
REMARK VINA RESULT:      -8.7      2.173      2.699
REMARK  Name = 
REMARK  6 active torsions:
REMARK  status: ('A' for Active; 'I' for Inactive)
REMARK    1  A    between atoms: C_1  and  N_2
REMARK    2  A    between atoms: C_6  and  C_7
REMARK    3  A    between atoms: C_7  and  C_8
REMARK    4  A    between atoms: C_8  and  C_9
REMARK    5  A    between atoms: C_13  and  N_14
REMARK    6  A    between atoms: C_21  and  C_22
REMARK                            x       y       z     vdW  Elec       q    Type
REMARK                         _______ _______ _______ _____ _____    ______ ____
ROOT
ATOM      1  C   UNL     1       1.284   8.624  20.110  0.00  0.00    +0.000 A 
ATOM      2  C   UNL     1       1.764   9.067  18.858  0.00  0.00    +0.000 A 
ATOM      3  C   UNL     1       2.350   8.205  17.934  0.00  0.00    +0.000 A 
ATOM      4  C   UNL     1       2.577   6.886  18.283  0.00  0.00    +0.000 A 
ATOM      5  C   UNL     1       2.357   6.483  19.608  0.00  0.00    +0.000 A 
ATOM      6  C   UNL     1       1.611   7.299  20.460  0.00  0.00    +0.000 A 
ENDROOT
BRANCH   5   7
ATOM      7  N   UNL     1       3.333   5.628  20.243  0.00  0.00    +0.000 N 
ATOM      8  C   UNL     1       4.468   5.419  19.298  0.00  0.00    +0.000 C 
ATOM      9  C   UNL     1       4.154   4.091  18.682  0.00  0.00    +0.000 A 
ATOM     10  C   UNL     1       3.331   3.398  19.581  0.00  0.00    +0.000 A 
ATOM     11  C   UNL     1       2.710   2.203  19.276  0.00  0.00    +0.000 A 
ATOM     12  C   UNL     1       2.897   1.710  17.992  0.00  0.00    +0.000 A 
ATOM     13  C   UNL     1       3.681   2.420  17.059  0.00  0.00    +0.000 A 
ATOM     14  C   UNL     1       4.340   3.624  17.385  0.00  0.00    +0.000 A 
ATOM     15  C   UNL     1       2.880   4.347  20.618  0.00  0.00    +0.000 C 
ATOM     16  O   UNL     1       2.112   4.054  21.519  0.00  0.00    +0.000 OA
BRANCH  14  17
ATOM     17  C   UNL     1       5.059   4.370  16.348  0.00  0.00    +0.000 C 
ATOM     18  C   UNL     1       5.015   5.686  16.107  0.00  0.00    +0.000 C 
ATOM     19  N   UNL     1       5.881   6.083  15.113  0.00  0.00    +0.000 N 
ATOM     20  C   UNL     1       6.584   4.922  14.571  0.00  0.00    +0.000 C 
ATOM     21  C   UNL     1       5.999   3.725  15.352  0.00  0.00    +0.000 C 
ATOM     22  H   UNL     1       5.444   6.709  14.436  0.00  0.00    +0.000 HD
ENDBRANCH  14  17
ENDBRANCH   5   7
BRANCH   1  23
ATOM     23  C   UNL     1       0.420   9.567  21.083  0.00  0.00    +0.000 C 
ATOM     24  C   UNL     1      -0.616   8.923  22.029  0.00  0.00    +0.000 C 
ATOM     25  O   UNL     1       0.063   9.401  23.207  0.00  0.00    +0.000 OA
ATOM     26  C   UNL     1       1.161   9.890  22.409  0.00  0.00    +0.000 C 
BRANCH  23  27
ATOM     27  C   UNL     1      -0.104  10.858  20.418  0.00  0.00    +0.000 C 
BRANCH  27  33
ATOM     28  C   UNL     1       2.147  12.715  19.216  0.00  0.00    +0.000 C 
ATOM     29  N   UNL     1       1.380  12.941  20.413  0.00  0.00    +0.000 N 
ATOM     30  C   UNL     1       1.455  14.061  21.185  0.00  0.00    +0.000 A 
ATOM     31  N   UNL     1       0.631  13.949  22.198  0.00  0.00    +0.000 NA
ATOM     32  N   UNL     1      -0.024  12.748  22.065  0.00  0.00    +0.000 NA
ATOM     33  C   UNL     1       0.427  12.137  20.986  0.00  0.00    +0.000 A 
ENDBRANCH  27  33
ENDBRANCH  23  27
ENDBRANCH   1  23
TORSDOF 5
ENDMDL
MODEL 7
REMARK VINA RESULT:      -8.6      1.902      2.462
REMARK  Name = 
REMARK  6 active torsions:
REMARK  status: ('A' for Active; 'I' for Inactive)
REMARK    1  A    between atoms: C_1  and  N_2
REMARK    2  A    between atoms: C_6  and  C_7
REMARK    3  A    between atoms: C_7  and  C_8
REMARK    4  A    between atoms: C_8  and  C_9
REMARK    5  A    between atoms: C_13  and  N_14
REMARK    6  A    between atoms: C_21  and  C_22
REMARK                            x       y       z     vdW  Elec       q    Type
REMARK                         _______ _______ _______ _____ _____    ______ ____
ROOT
ATOM      1  C   UNL     1       1.616   9.067  19.167  0.00  0.00    +0.000 A 
ATOM      2  C   UNL     1       2.302   9.224  17.943  0.00  0.00    +0.000 A 
ATOM      3  C   UNL     1       2.883   8.153  17.269  0.00  0.00    +0.000 A 
ATOM      4  C   UNL     1       2.892   6.901  17.858  0.00  0.00    +0.000 A 
ATOM      5  C   UNL     1       2.457   6.769  19.184  0.00  0.00    +0.000 A 
ATOM      6  C   UNL     1       1.722   7.799  19.774  0.00  0.00    +0.000 A 
ENDROOT
BRANCH   5   7
ATOM      7  N   UNL     1       3.227   5.945  20.087  0.00  0.00    +0.000 N 
ATOM      8  C   UNL     1       4.504   5.569  19.414  0.00  0.00    +0.000 C 
ATOM      9  C   UNL     1       4.218   4.196  18.889  0.00  0.00    +0.000 A 
ATOM     10  C   UNL     1       3.189   3.656  19.672  0.00  0.00    +0.000 A 
ATOM     11  C   UNL     1       2.552   2.468  19.376  0.00  0.00    +0.000 A 
ATOM     12  C   UNL     1       2.946   1.819  18.213  0.00  0.00    +0.000 A 
ATOM     13  C   UNL     1       3.945   2.375  17.386  0.00  0.00    +0.000 A 
ATOM     14  C   UNL     1       4.615   3.573  17.710  0.00  0.00    +0.000 A 
ATOM     15  C   UNL     1       2.618   4.741  20.495  0.00  0.00    +0.000 C 
ATOM     16  O   UNL     1       1.672   4.595  21.250  0.00  0.00    +0.000 OA
BRANCH  14  17
ATOM     17  C   UNL     1       5.574   4.155  16.766  0.00  0.00    +0.000 C 
ATOM     18  C   UNL     1       6.859   4.458  16.986  0.00  0.00    +0.000 C 
ATOM     19  N   UNL     1       7.508   4.911  15.860  0.00  0.00    +0.000 N 
ATOM     20  C   UNL     1       6.576   4.970  14.737  0.00  0.00    +0.000 C 
ATOM     21  C   UNL     1       5.227   4.518  15.338  0.00  0.00    +0.000 C 
ATOM     22  H   UNL     1       8.064   5.749  16.037  0.00  0.00    +0.000 HD
ENDBRANCH  14  17
ENDBRANCH   5   7
BRANCH   1  23
ATOM     23  C   UNL     1       0.765  10.255  19.836  0.00  0.00    +0.000 C 
ATOM     24  C   UNL     1      -0.740  10.043  20.105  0.00  0.00    +0.000 C 
ATOM     25  O   UNL     1      -0.578  10.209  21.527  0.00  0.00    +0.000 OA
ATOM     26  C   UNL     1       0.857  10.252  21.387  0.00  0.00    +0.000 C 
BRANCH  23  27
ATOM     27  C   UNL     1       1.077  11.658  19.271  0.00  0.00    +0.000 C 
BRANCH  27  33
ATOM     28  C   UNL     1      -1.224  13.591  20.236  0.00  0.00    +0.000 C 
ATOM     29  N   UNL     1       0.136  13.551  20.710  0.00  0.00    +0.000 N 
ATOM     30  C   UNL     1       0.625  14.307  21.731  0.00  0.00    +0.000 A 
ATOM     31  N   UNL     1       1.894  14.032  21.908  0.00  0.00    +0.000 NA
ATOM     32  N   UNL     1       2.232  13.048  21.009  0.00  0.00    +0.000 NA
ATOM     33  C   UNL     1       1.170  12.756  20.284  0.00  0.00    +0.000 A 
ENDBRANCH  27  33
ENDBRANCH  23  27
ENDBRANCH   1  23
TORSDOF 5
ENDMDL
MODEL 8
REMARK VINA RESULT:      -8.5      1.471      2.024
REMARK  Name = 
REMARK  6 active torsions:
REMARK  status: ('A' for Active; 'I' for Inactive)
REMARK    1  A    between atoms: C_1  and  N_2
REMARK    2  A    between atoms: C_6  and  C_7
REMARK    3  A    between atoms: C_7  and  C_8
REMARK    4  A    between atoms: C_8  and  C_9
REMARK    5  A    between atoms: C_13  and  N_14
REMARK    6  A    between atoms: C_21  and  C_22
REMARK                            x       y       z     vdW  Elec       q    Type
REMARK                         _______ _______ _______ _____ _____    ______ ____
ROOT
ATOM      1  C   UNL     1       1.458   8.981  19.309  0.00  0.00    +0.000 A 
ATOM      2  C   UNL     1       2.191   9.271  18.137  0.00  0.00    +0.000 A 
ATOM      3  C   UNL     1       2.878   8.292  17.424  0.00  0.00    +0.000 A 
ATOM      4  C   UNL     1       2.945   7.004  17.926  0.00  0.00    +0.000 A 
ATOM      5  C   UNL     1       2.455   6.749  19.215  0.00  0.00    +0.000 A 
ATOM      6  C   UNL     1       1.622   7.683  19.833  0.00  0.00    +0.000 A 
ENDROOT
BRANCH   5   7
ATOM      7  N   UNL     1       3.236   5.914  20.100  0.00  0.00    +0.000 N 
ATOM      8  C   UNL     1       4.505   5.545  19.407  0.00  0.00    +0.000 C 
ATOM      9  C   UNL     1       4.211   4.178  18.871  0.00  0.00    +0.000 A 
ATOM     10  C   UNL     1       3.191   3.630  19.660  0.00  0.00    +0.000 A 
ATOM     11  C   UNL     1       2.550   2.445  19.359  0.00  0.00    +0.000 A 
ATOM     12  C   UNL     1       2.930   1.809  18.184  0.00  0.00    +0.000 A 
ATOM     13  C   UNL     1       3.919   2.373  17.352  0.00  0.00    +0.000 A 
ATOM     14  C   UNL     1       4.594   3.567  17.681  0.00  0.00    +0.000 A 
ATOM     15  C   UNL     1       2.630   4.706  20.501  0.00  0.00    +0.000 C 
ATOM     16  O   UNL     1       1.693   4.553  21.266  0.00  0.00    +0.000 OA
BRANCH  14  17
ATOM     17  C   UNL     1       5.542   4.159  16.732  0.00  0.00    +0.000 C 
ATOM     18  C   UNL     1       6.825   4.475  16.946  0.00  0.00    +0.000 C 
ATOM     19  N   UNL     1       7.464   4.935  15.816  0.00  0.00    +0.000 N 
ATOM     20  C   UNL     1       6.526   4.983  14.698  0.00  0.00    +0.000 C 
ATOM     21  C   UNL     1       5.185   4.518  15.306  0.00  0.00    +0.000 C 
ATOM     22  H   UNL     1       8.012   5.778  15.990  0.00  0.00    +0.000 HD
ENDBRANCH  14  17
ENDBRANCH   5   7
BRANCH   1  23
ATOM     23  C   UNL     1       0.495  10.059  20.010  0.00  0.00    +0.000 C 
ATOM     24  C   UNL     1      -0.334   9.639  21.242  0.00  0.00    +0.000 C 
ATOM     25  O   UNL     1       0.316  10.603  22.094  0.00  0.00    +0.000 OA
ATOM     26  C   UNL     1       1.245  10.943  21.044  0.00  0.00    +0.000 C 
BRANCH  23  27
ATOM     27  C   UNL     1      -0.308  10.933  19.022  0.00  0.00    +0.000 C 
BRANCH  27  33
ATOM     28  C   UNL     1       1.912  12.993  18.134  0.00  0.00    +0.000 C 
ATOM     29  N   UNL     1       0.694  13.279  18.847  0.00  0.00    +0.000 N 
ATOM     30  C   UNL     1       0.266  14.528  19.183  0.00  0.00    +0.000 A 
ATOM     31  N   UNL     1      -0.873  14.440  19.825  0.00  0.00    +0.000 NA
ATOM     32  N   UNL     1      -1.215  13.110  19.877  0.00  0.00    +0.000 NA
ATOM     33  C   UNL     1      -0.269  12.407  19.285  0.00  0.00    +0.000 A 
ENDBRANCH  27  33
ENDBRANCH  23  27
ENDBRANCH   1  23
TORSDOF 5
ENDMDL
MODEL 9
REMARK VINA RESULT:      -8.5      2.158      8.444
REMARK  Name = 
REMARK  6 active torsions:
REMARK  status: ('A' for Active; 'I' for Inactive)
REMARK    1  A    between atoms: C_1  and  N_2
REMARK    2  A    between atoms: C_6  and  C_7
REMARK    3  A    between atoms: C_7  and  C_8
REMARK    4  A    between atoms: C_8  and  C_9
REMARK    5  A    between atoms: C_13  and  N_14
REMARK    6  A    between atoms: C_21  and  C_22
REMARK                            x       y       z     vdW  Elec       q    Type
REMARK                         _______ _______ _______ _____ _____    ______ ____
ROOT
ATOM      1  C   UNL     1       2.354   7.634  18.674  0.00  0.00    +0.000 A 
ATOM      2  C   UNL     1       2.164   8.643  17.704  0.00  0.00    +0.000 A 
ATOM      3  C   UNL     1       1.707   9.917  18.031  0.00  0.00    +0.000 A 
ATOM      4  C   UNL     1       1.317  10.189  19.330  0.00  0.00    +0.000 A 
ATOM      5  C   UNL     1       1.242   9.136  20.254  0.00  0.00    +0.000 A 
ATOM      6  C   UNL     1       1.866   7.921  19.965  0.00  0.00    +0.000 A 
ENDROOT
BRANCH   5   7
ATOM      7  N   UNL     1       0.099   9.067  21.134  0.00  0.00    +0.000 N 
ATOM      8  C   UNL     1      -1.123   9.418  20.354  0.00  0.00    +0.000 C 
ATOM      9  C   UNL     1      -1.334  10.862  20.690  0.00  0.00    +0.000 A 
ATOM     10  C   UNL     1      -0.713  11.098  21.924  0.00  0.00    +0.000 A 
ATOM     11  C   UNL     1      -0.563  12.357  22.470  0.00  0.00    +0.000 A 
ATOM     12  C   UNL     1      -1.024  13.427  21.714  0.00  0.00    +0.000 A 
ATOM     13  C   UNL     1      -1.606  13.211  20.448  0.00  0.00    +0.000 A 
ATOM     14  C   UNL     1      -1.786  11.920  19.908  0.00  0.00    +0.000 A 
ATOM     15  C   UNL     1       0.126   9.929  22.250  0.00  0.00    +0.000 C 
ATOM     16  O   UNL     1       0.830   9.852  23.242  0.00  0.00    +0.000 OA
BRANCH  14  17
ATOM     17  C   UNL     1      -2.306  11.761  18.546  0.00  0.00    +0.000 C 
ATOM     18  C   UNL     1      -1.619  11.808  17.398  0.00  0.00    +0.000 C 
ATOM     19  N   UNL     1      -2.393  11.530  16.294  0.00  0.00    +0.000 N 
ATOM     20  C   UNL     1      -3.777  11.300  16.700  0.00  0.00    +0.000 C 
ATOM     21  C   UNL     1      -3.764  11.511  18.230  0.00  0.00    +0.000 C 
ATOM     22  H   UNL     1      -2.245  12.194  15.533  0.00  0.00    +0.000 HD
ENDBRANCH  14  17
ENDBRANCH   5   7
BRANCH   1  23
ATOM     23  C   UNL     1       3.080   6.241  18.336  0.00  0.00    +0.000 C 
ATOM     24  C   UNL     1       4.447   6.259  17.620  0.00  0.00    +0.000 C 
ATOM     25  O   UNL     1       5.110   5.611  18.724  0.00  0.00    +0.000 OA
ATOM     26  C   UNL     1       3.916   5.701  19.529  0.00  0.00    +0.000 C 
BRANCH  23  27
ATOM     27  C   UNL     1       2.136   5.147  17.789  0.00  0.00    +0.000 C 
BRANCH  27  33
ATOM     28  C   UNL     1       0.929   3.580  20.248  0.00  0.00    +0.000 C 
ATOM     29  N   UNL     1       1.871   3.085  19.278  0.00  0.00    +0.000 N 
ATOM     30  C   UNL     1       2.333   1.805  19.227  0.00  0.00    +0.000 A 
ATOM     31  N   UNL     1       3.176   1.685  18.230  0.00  0.00    +0.000 NA
ATOM     32  N   UNL     1       3.236   2.902  17.593  0.00  0.00    +0.000 NA
ATOM     33  C   UNL     1       2.448   3.749  18.225  0.00  0.00    +0.000 A 
ENDBRANCH  27  33
ENDBRANCH  23  27
ENDBRANCH   1  23
TORSDOF 5
ENDMDL
