MODEL 1
REMARK VINA RESULT:      -8.3      0.000      0.000
REMARK  Name = 
REMARK  9 active torsions:
REMARK  status: ('A' for Active; 'I' for Inactive)
REMARK    1  A    between atoms: C_1  and  C_2
REMARK    2  A    between atoms: C_2  and  S_3
REMARK    3  A    between atoms: C_2  and  C_10
REMARK    4  A    between atoms: S_3  and  C_4
REMARK    5  A    between atoms: N_8  and  C_9
REMARK    6  A    between atoms: C_14  and  N_15
REMARK    7  A    between atoms: N_15  and  C_16
REMARK    8  A    between atoms: C_16  and  C_17
REMARK    9  A    between atoms: C_17  and  C_18
REMARK                            x       y       z     vdW  Elec       q    Type
REMARK                         _______ _______ _______ _____ _____    ______ ____
ROOT
ATOM      1  C   UNL     1       4.735   5.258  17.251  0.00  0.00    +0.000 A 
ATOM      2  C   UNL     1       3.860   4.164  17.318  0.00  0.00    +0.000 A 
ATOM      3  C   UNL     1       2.562   4.319  17.802  0.00  0.00    +0.000 A 
ATOM      4  C   UNL     1       2.113   5.567  18.241  0.00  0.00    +0.000 A 
ATOM      5  C   UNL     1       2.957   6.675  18.251  0.00  0.00    +0.000 A 
ATOM      6  C   UNL     1       4.262   6.506  17.729  0.00  0.00    +0.000 A 
ENDROOT
BRANCH   1   8
ATOM      7  C   UNL     1       7.168   4.621  17.755  0.00  0.00    +0.000 C 
ATOM      8  C   UNL     1       6.144   5.030  16.693  0.00  0.00    +0.000 C 
BRANCH   8   9
ATOM      9  S   UNL     1       6.075   3.780  15.348  0.00  0.00    +0.000 S 
BRANCH   9  10
ATOM     10  C   UNL     1       6.937   4.535  14.051  0.00  0.00    +0.000 A 
ATOM     11  N   UNL     1       7.808   5.509  14.111  0.00  0.00    +0.000 NA
ATOM     12  N   UNL     1       8.230   5.784  12.827  0.00  0.00    +0.000 NA
ATOM     13  C   UNL     1       7.597   4.967  12.017  0.00  0.00    +0.000 A 
ATOM     14  N   UNL     1       6.775   4.164  12.745  0.00  0.00    +0.000 N 
ATOM     15  C   UNL     1       5.931   3.123  12.219  0.00  0.00    +0.000 C 
ENDBRANCH   9  10
ENDBRANCH   8   9
ENDBRANCH   1   8
BRANCH   5  16
ATOM     16  N   UNL     1       2.536   7.950  18.648  0.00  0.00    +0.000 N 
ATOM     17  H   UNL     1       2.384   7.992  19.654  0.00  0.00    +0.000 HD
BRANCH  16  18
ATOM     18  C   UNL     1       1.566   8.727  17.858  0.00  0.00    +0.000 C 
BRANCH  18  19
ATOM     19  C   UNL     1       1.279  10.038  18.583  0.00  0.00    +0.000 C 
BRANCH  19  20
ATOM     20  C   UNL     1      -0.196  10.296  18.944  0.00  0.00    +0.000 C 
ATOM     21  C   UNL     1      -0.857  11.680  19.366  0.00  0.00    +0.000 C 
ATOM     22  C   UNL     1      -0.841  11.162  20.777  0.00  0.00    +0.000 A 
ATOM     23  C   UNL     1      -1.079  11.477  22.095  0.00  0.00    +0.000 A 
ATOM     24  C   UNL     1      -0.774  10.505  23.055  0.00  0.00    +0.000 A 
ATOM     25  C   UNL     1      -0.271   9.248  22.671  0.00  0.00    +0.000 A 
ATOM     26  C   UNL     1      -0.084   8.942  21.323  0.00  0.00    +0.000 A 
ATOM     27  C   UNL     1      -0.379   9.926  20.406  0.00  0.00    +0.000 A 
ENDBRANCH  19  20
ENDBRANCH  18  19
ENDBRANCH  16  18
ENDBRANCH   5  16
TORSDOF 7
ENDMDL
MODEL 2
REMARK VINA RESULT:      -8.3      5.197      8.261
REMARK  Name = 
REMARK  9 active torsions:
REMARK  status: ('A' for Active; 'I' for Inactive)
REMARK    1  A    between atoms: C_1  and  C_2
REMARK    2  A    between atoms: C_2  and  S_3
REMARK    3  A    between atoms: C_2  and  C_10
REMARK    4  A    between atoms: S_3  and  C_4
REMARK    5  A    between atoms: N_8  and  C_9
REMARK    6  A    between atoms: C_14  and  N_15
REMARK    7  A    between atoms: N_15  and  C_16
REMARK    8  A    between atoms: C_16  and  C_17
REMARK    9  A    between atoms: C_17  and  C_18
REMARK                            x       y       z     vdW  Elec       q    Type
REMARK                         _______ _______ _______ _____ _____    ______ ____
ROOT
ATOM      1  C   UNL     1       4.500   5.465  17.147  0.00  0.00    +0.000 A 
ATOM      2  C   UNL     1       4.732   4.402  16.262  0.00  0.00    +0.000 A 
ATOM      3  C   UNL     1       5.953   4.279  15.600  0.00  0.00    +0.000 A 
ATOM      4  C   UNL     1       6.964   5.223  15.798  0.00  0.00    +0.000 A 
ATOM      5  C   UNL     1       6.768   6.330  16.621  0.00  0.00    +0.000 A 
ATOM      6  C   UNL     1       5.533   6.423  17.307  0.00  0.00    +0.000 A 
ENDROOT
BRANCH   1   8
ATOM      7  C   UNL     1       2.205   4.379  17.513  0.00  0.00    +0.000 C 
ATOM      8  C   UNL     1       3.144   5.537  17.859  0.00  0.00    +0.000 C 
BRANCH   8   9
ATOM      9  S   UNL     1       3.412   5.632  19.674  0.00  0.00    +0.000 S 
BRANCH   9  10
ATOM     10  C   UNL     1       2.522   4.279  20.285  0.00  0.00    +0.000 A 
ATOM     11  N   UNL     1       1.304   4.254  20.759  0.00  0.00    +0.000 NA
ATOM     12  N   UNL     1       1.016   2.958  21.131  0.00  0.00    +0.000 NA
ATOM     13  C   UNL     1       2.078   2.227  20.875  0.00  0.00    +0.000 A 
ATOM     14  N   UNL     1       3.047   3.018  20.342  0.00  0.00    +0.000 N 
ATOM     15  C   UNL     1       4.348   2.581  19.910  0.00  0.00    +0.000 C 
ENDBRANCH   9  10
ENDBRANCH   8   9
ENDBRANCH   1   8
BRANCH   5  16
ATOM     16  N   UNL     1       7.767   7.278  16.874  0.00  0.00    +0.000 N 
ATOM     17  H   UNL     1       8.620   7.061  16.362  0.00  0.00    +0.000 HD
BRANCH  16  18
ATOM     18  C   UNL     1       7.994   7.823  18.223  0.00  0.00    +0.000 C 
BRANCH  18  19
ATOM     19  C   UNL     1       8.375   9.294  18.101  0.00  0.00    +0.000 C 
BRANCH  19  20
ATOM     20  C   UNL     1       9.406   9.809  19.123  0.00  0.00    +0.000 C 
ATOM     21  C   UNL     1       9.118  10.652  20.441  0.00  0.00    +0.000 C 
ATOM     22  C   UNL     1       9.615  11.850  19.683  0.00  0.00    +0.000 A 
ATOM     23  C   UNL     1       9.781  13.216  19.717  0.00  0.00    +0.000 A 
ATOM     24  C   UNL     1      10.274  13.834  18.562  0.00  0.00    +0.000 A 
ATOM     25  C   UNL     1      10.610  13.073  17.426  0.00  0.00    +0.000 A 
ATOM     26  C   UNL     1      10.474  11.686  17.439  0.00  0.00    +0.000 A 
ATOM     27  C   UNL     1       9.972  11.111  18.585  0.00  0.00    +0.000 A 
ENDBRANCH  19  20
ENDBRANCH  18  19
ENDBRANCH  16  18
ENDBRANCH   5  16
TORSDOF 7
ENDMDL
MODEL 3
REMARK VINA RESULT:      -8.2      4.918      8.319
REMARK  Name = 
REMARK  9 active torsions:
REMARK  status: ('A' for Active; 'I' for Inactive)
REMARK    1  A    between atoms: C_1  and  C_2
REMARK    2  A    between atoms: C_2  and  S_3
REMARK    3  A    between atoms: C_2  and  C_10
REMARK    4  A    between atoms: S_3  and  C_4
REMARK    5  A    between atoms: N_8  and  C_9
REMARK    6  A    between atoms: C_14  and  N_15
REMARK    7  A    between atoms: N_15  and  C_16
REMARK    8  A    between atoms: C_16  and  C_17
REMARK    9  A    between atoms: C_17  and  C_18
REMARK                            x       y       z     vdW  Elec       q    Type
REMARK                         _______ _______ _______ _____ _____    ______ ____
ROOT
ATOM      1  C   UNL     1       4.399   5.399  17.239  0.00  0.00    +0.000 A 
ATOM      2  C   UNL     1       4.889   4.199  16.705  0.00  0.00    +0.000 A 
ATOM      3  C   UNL     1       6.205   4.103  16.256  0.00  0.00    +0.000 A 
ATOM      4  C   UNL     1       7.058   5.208  16.321  0.00  0.00    +0.000 A 
ATOM      5  C   UNL     1       6.609   6.440  16.790  0.00  0.00    +0.000 A 
ATOM      6  C   UNL     1       5.278   6.511  17.267  0.00  0.00    +0.000 A 
ENDROOT
BRANCH   1   8
ATOM      7  C   UNL     1       2.297   4.058  17.843  0.00  0.00    +0.000 C 
ATOM      8  C   UNL     1       2.948   5.439  17.732  0.00  0.00    +0.000 C 
BRANCH   8   9
ATOM      9  S   UNL     1       2.874   6.319  19.344  0.00  0.00    +0.000 S 
BRANCH   9  10
ATOM     10  C   UNL     1       2.162   7.843  18.939  0.00  0.00    +0.000 A 
ATOM     11  N   UNL     1       2.153   8.456  17.784  0.00  0.00    +0.000 NA
ATOM     12  N   UNL     1       1.472   9.645  17.936  0.00  0.00    +0.000 NA
ATOM     13  C   UNL     1       1.087   9.725  19.190  0.00  0.00    +0.000 A 
ATOM     14  N   UNL     1       1.500   8.613  19.855  0.00  0.00    +0.000 N 
ATOM     15  C   UNL     1       1.252   8.320  21.242  0.00  0.00    +0.000 C 
ENDBRANCH   9  10
ENDBRANCH   8   9
ENDBRANCH   1   8
BRANCH   5  16
ATOM     16  N   UNL     1       7.441   7.561  16.905  0.00  0.00    +0.000 N 
ATOM     17  H   UNL     1       8.104   7.609  16.134  0.00  0.00    +0.000 HD
BRANCH  16  18
ATOM     18  C   UNL     1       7.990   7.989  18.203  0.00  0.00    +0.000 C 
BRANCH  18  19
ATOM     19  C   UNL     1       8.475   9.429  18.080  0.00  0.00    +0.000 C 
BRANCH  19  20
ATOM     20  C   UNL     1       9.463   9.899  19.164  0.00  0.00    +0.000 C 
ATOM     21  C   UNL     1       9.125  10.705  20.493  0.00  0.00    +0.000 C 
ATOM     22  C   UNL     1       9.669  11.920  19.796  0.00  0.00    +0.000 A 
ATOM     23  C   UNL     1       9.848  13.282  19.880  0.00  0.00    +0.000 A 
ATOM     24  C   UNL     1      10.401  13.929  18.769  0.00  0.00    +0.000 A 
ATOM     25  C   UNL     1      10.781  13.199  17.626  0.00  0.00    +0.000 A 
ATOM     26  C   UNL     1      10.629  11.813  17.589  0.00  0.00    +0.000 A 
ATOM     27  C   UNL     1      10.068  11.210  18.693  0.00  0.00    +0.000 A 
ENDBRANCH  19  20
ENDBRANCH  18  19
ENDBRANCH  16  18
ENDBRANCH   5  16
TORSDOF 7
ENDMDL
MODEL 4
REMARK VINA RESULT:      -8.0      5.415      8.209
REMARK  Name = 
REMARK  9 active torsions:
REMARK  status: ('A' for Active; 'I' for Inactive)
REMARK    1  A    between atoms: C_1  and  C_2
REMARK    2  A    between atoms: C_2  and  S_3
REMARK    3  A    between atoms: C_2  and  C_10
REMARK    4  A    between atoms: S_3  and  C_4
REMARK    5  A    between atoms: N_8  and  C_9
REMARK    6  A    between atoms: C_14  and  N_15
REMARK    7  A    between atoms: N_15  and  C_16
REMARK    8  A    between atoms: C_16  and  C_17
REMARK    9  A    between atoms: C_17  and  C_18
REMARK                            x       y       z     vdW  Elec       q    Type
REMARK                         _______ _______ _______ _____ _____    ______ ____
ROOT
ATOM      1  C   UNL     1       4.504   5.824  17.486  0.00  0.00    +0.000 A 
ATOM      2  C   UNL     1       4.608   4.809  16.526  0.00  0.00    +0.000 A 
ATOM      3  C   UNL     1       5.741   4.702  15.720  0.00  0.00    +0.000 A 
ATOM      4  C   UNL     1       6.790   5.616  15.849  0.00  0.00    +0.000 A 
ATOM      5  C   UNL     1       6.716   6.678  16.747  0.00  0.00    +0.000 A 
ATOM      6  C   UNL     1       5.571   6.754  17.576  0.00  0.00    +0.000 A 
ENDROOT
BRANCH   1   8
ATOM      7  C   UNL     1       2.300   7.034  17.998  0.00  0.00    +0.000 C 
ATOM      8  C   UNL     1       3.242   5.881  18.354  0.00  0.00    +0.000 C 
BRANCH   8   9
ATOM      9  S   UNL     1       2.359   4.272  18.253  0.00  0.00    +0.000 S 
BRANCH   9  10
ATOM     10  C   UNL     1       3.189   3.283  19.406  0.00  0.00    +0.000 A 
ATOM     11  N   UNL     1       4.406   2.809  19.346  0.00  0.00    +0.000 NA
ATOM     12  N   UNL     1       4.635   2.072  20.488  0.00  0.00    +0.000 NA
ATOM     13  C   UNL     1       3.542   2.115  21.215  0.00  0.00    +0.000 A 
ATOM     14  N   UNL     1       2.608   2.867  20.572  0.00  0.00    +0.000 N 
ATOM     15  C   UNL     1       1.288   3.168  21.059  0.00  0.00    +0.000 C 
ENDBRANCH   9  10
ENDBRANCH   8   9
ENDBRANCH   1   8
BRANCH   5  16
ATOM     16  N   UNL     1       7.760   7.593  16.932  0.00  0.00    +0.000 N 
ATOM     17  H   UNL     1       8.529   7.412  16.290  0.00  0.00    +0.000 HD
BRANCH  16  18
ATOM     18  C   UNL     1       8.184   8.024  18.275  0.00  0.00    +0.000 C 
BRANCH  18  19
ATOM     19  C   UNL     1       8.466   9.523  18.244  0.00  0.00    +0.000 C 
BRANCH  19  20
ATOM     20  C   UNL     1       9.495  10.034  19.270  0.00  0.00    +0.000 C 
ATOM     21  C   UNL     1       9.221  10.973  20.524  0.00  0.00    +0.000 C 
ATOM     22  C   UNL     1       9.817  12.089  19.714  0.00  0.00    +0.000 A 
ATOM     23  C   UNL     1      10.069  13.441  19.673  0.00  0.00    +0.000 A 
ATOM     24  C   UNL     1      10.637  13.955  18.502  0.00  0.00    +0.000 A 
ATOM     25  C   UNL     1      10.960  13.106  17.426  0.00  0.00    +0.000 A 
ATOM     26  C   UNL     1      10.735  11.733  17.516  0.00  0.00    +0.000 A 
ATOM     27  C   UNL     1      10.161  11.263  18.675  0.00  0.00    +0.000 A 
ENDBRANCH  19  20
ENDBRANCH  18  19
ENDBRANCH  16  18
ENDBRANCH   5  16
TORSDOF 7
ENDMDL
MODEL 5
REMARK VINA RESULT:      -8.0      5.250      8.425
REMARK  Name = 
REMARK  9 active torsions:
REMARK  status: ('A' for Active; 'I' for Inactive)
REMARK    1  A    between atoms: C_1  and  C_2
REMARK    2  A    between atoms: C_2  and  S_3
REMARK    3  A    between atoms: C_2  and  C_10
REMARK    4  A    between atoms: S_3  and  C_4
REMARK    5  A    between atoms: N_8  and  C_9
REMARK    6  A    between atoms: C_14  and  N_15
REMARK    7  A    between atoms: N_15  and  C_16
REMARK    8  A    between atoms: C_16  and  C_17
REMARK    9  A    between atoms: C_17  and  C_18
REMARK                            x       y       z     vdW  Elec       q    Type
REMARK                         _______ _______ _______ _____ _____    ______ ____
ROOT
ATOM      1  C   UNL     1       4.567   5.427  17.204  0.00  0.00    +0.000 A 
ATOM      2  C   UNL     1       4.865   4.385  16.315  0.00  0.00    +0.000 A 
ATOM      3  C   UNL     1       6.136   4.270  15.752  0.00  0.00    +0.000 A 
ATOM      4  C   UNL     1       7.132   5.201  16.055  0.00  0.00    +0.000 A 
ATOM      5  C   UNL     1       6.874   6.290  16.887  0.00  0.00    +0.000 A 
ATOM      6  C   UNL     1       5.588   6.374  17.471  0.00  0.00    +0.000 A 
ENDROOT
BRANCH   1   8
ATOM      7  C   UNL     1       2.295   4.268  17.484  0.00  0.00    +0.000 C 
ATOM      8  C   UNL     1       3.158   5.491  17.804  0.00  0.00    +0.000 C 
BRANCH   8   9
ATOM      9  S   UNL     1       3.279   5.739  19.621  0.00  0.00    +0.000 S 
BRANCH   9  10
ATOM     10  C   UNL     1       2.454   4.364  20.272  0.00  0.00    +0.000 A 
ATOM     11  N   UNL     1       1.222   4.283  20.702  0.00  0.00    +0.000 NA
ATOM     12  N   UNL     1       1.004   2.991  21.134  0.00  0.00    +0.000 NA
ATOM     13  C   UNL     1       2.119   2.319  20.955  0.00  0.00    +0.000 A 
ATOM     14  N   UNL     1       3.056   3.144  20.416  0.00  0.00    +0.000 N 
ATOM     15  C   UNL     1       4.398   2.773  20.054  0.00  0.00    +0.000 C 
ENDBRANCH   9  10
ENDBRANCH   8   9
ENDBRANCH   1   8
BRANCH   5  16
ATOM     16  N   UNL     1       7.854   7.224  17.244  0.00  0.00    +0.000 N 
ATOM     17  H   UNL     1       8.500   6.838  17.930  0.00  0.00    +0.000 HD
BRANCH  16  18
ATOM     18  C   UNL     1       7.530   8.645  17.452  0.00  0.00    +0.000 C 
BRANCH  18  19
ATOM     19  C   UNL     1       8.629   9.281  18.298  0.00  0.00    +0.000 C 
BRANCH  19  20
ATOM     20  C   UNL     1       8.467  10.785  18.589  0.00  0.00    +0.000 C 
ATOM     21  C   UNL     1       8.283  11.958  17.530  0.00  0.00    +0.000 C 
ATOM     22  C   UNL     1       9.724  12.299  17.783  0.00  0.00    +0.000 A 
ATOM     23  C   UNL     1      10.779  13.092  17.393  0.00  0.00    +0.000 A 
ATOM     24  C   UNL     1      12.015  12.870  18.011  0.00  0.00    +0.000 A 
ATOM     25  C   UNL     1      12.153  11.889  19.012  0.00  0.00    +0.000 A 
ATOM     26  C   UNL     1      11.054  11.133  19.417  0.00  0.00    +0.000 A 
ATOM     27  C   UNL     1       9.857  11.366  18.778  0.00  0.00    +0.000 A 
ENDBRANCH  19  20
ENDBRANCH  18  19
ENDBRANCH  16  18
ENDBRANCH   5  16
TORSDOF 7
ENDMDL
MODEL 6
REMARK VINA RESULT:      -7.9      3.791      8.867
REMARK  Name = 
REMARK  9 active torsions:
REMARK  status: ('A' for Active; 'I' for Inactive)
REMARK    1  A    between atoms: C_1  and  C_2
REMARK    2  A    between atoms: C_2  and  S_3
REMARK    3  A    between atoms: C_2  and  C_10
REMARK    4  A    between atoms: S_3  and  C_4
REMARK    5  A    between atoms: N_8  and  C_9
REMARK    6  A    between atoms: C_14  and  N_15
REMARK    7  A    between atoms: N_15  and  C_16
REMARK    8  A    between atoms: C_16  and  C_17
REMARK    9  A    between atoms: C_17  and  C_18
REMARK                            x       y       z     vdW  Elec       q    Type
REMARK                         _______ _______ _______ _____ _____    ______ ____
ROOT
ATOM      1  C   UNL     1       1.150   9.407  18.983  0.00  0.00    +0.000 A 
ATOM      2  C   UNL     1       0.921   8.958  20.291  0.00  0.00    +0.000 A 
ATOM      3  C   UNL     1       1.550   7.810  20.770  0.00  0.00    +0.000 A 
ATOM      4  C   UNL     1       2.411   7.078  19.949  0.00  0.00    +0.000 A 
ATOM      5  C   UNL     1       2.630   7.445  18.623  0.00  0.00    +0.000 A 
ATOM      6  C   UNL     1       2.005   8.629  18.162  0.00  0.00    +0.000 A 
ENDROOT
BRANCH   1   8
ATOM      7  C   UNL     1      -0.820  11.017  19.316  0.00  0.00    +0.000 C 
ATOM      8  C   UNL     1       0.443  10.685  18.517  0.00  0.00    +0.000 C 
BRANCH   8   9
ATOM      9  S   UNL     1       1.627  12.090  18.569  0.00  0.00    +0.000 S 
BRANCH   9  10
ATOM     10  C   UNL     1       1.190  12.934  20.015  0.00  0.00    +0.000 A 
ATOM     11  N   UNL     1       1.467  12.623  21.254  0.00  0.00    +0.000 NA
ATOM     12  N   UNL     1       0.910  13.583  22.072  0.00  0.00    +0.000 NA
ATOM     13  C   UNL     1       0.301  14.456  21.301  0.00  0.00    +0.000 A 
ATOM     14  N   UNL     1       0.452  14.086  20.001  0.00  0.00    +0.000 N 
ATOM     15  C   UNL     1      -0.053  14.799  18.858  0.00  0.00    +0.000 C 
ENDBRANCH   9  10
ENDBRANCH   8   9
ENDBRANCH   1   8
BRANCH   5  16
ATOM     16  N   UNL     1       3.512   6.761  17.778  0.00  0.00    +0.000 N 
ATOM     17  H   UNL     1       3.153   6.716  16.827  0.00  0.00    +0.000 HD
BRANCH  16  18
ATOM     18  C   UNL     1       4.218   5.544  18.216  0.00  0.00    +0.000 C 
BRANCH  18  19
ATOM     19  C   UNL     1       4.001   4.450  17.176  0.00  0.00    +0.000 C 
BRANCH  19  20
ATOM     20  C   UNL     1       2.728   3.601  17.349  0.00  0.00    +0.000 C 
ATOM     21  C   UNL     1       1.246   4.125  17.596  0.00  0.00    +0.000 C 
ATOM     22  C   UNL     1       1.432   3.724  19.032  0.00  0.00    +0.000 A 
ATOM     23  C   UNL     1       0.874   3.748  20.289  0.00  0.00    +0.000 A 
ATOM     24  C   UNL     1       1.637   3.233  21.343  0.00  0.00    +0.000 A 
ATOM     25  C   UNL     1       2.914   2.690  21.107  0.00  0.00    +0.000 A 
ATOM     26  C   UNL     1       3.434   2.638  19.814  0.00  0.00    +0.000 A 
ATOM     27  C   UNL     1       2.663   3.166  18.803  0.00  0.00    +0.000 A 
ENDBRANCH  19  20
ENDBRANCH  18  19
ENDBRANCH  16  18
ENDBRANCH   5  16
TORSDOF 7
ENDMDL
MODEL 7
REMARK VINA RESULT:      -7.9      5.456      8.528
REMARK  Name = 
REMARK  9 active torsions:
REMARK  status: ('A' for Active; 'I' for Inactive)
REMARK    1  A    between atoms: C_1  and  C_2
REMARK    2  A    between atoms: C_2  and  S_3
REMARK    3  A    between atoms: C_2  and  C_10
REMARK    4  A    between atoms: S_3  and  C_4
REMARK    5  A    between atoms: N_8  and  C_9
REMARK    6  A    between atoms: C_14  and  N_15
REMARK    7  A    between atoms: N_15  and  C_16
REMARK    8  A    between atoms: C_16  and  C_17
REMARK    9  A    between atoms: C_17  and  C_18
REMARK                            x       y       z     vdW  Elec       q    Type
REMARK                         _______ _______ _______ _____ _____    ______ ____
ROOT
ATOM      1  C   UNL     1       4.447   6.090  17.621  0.00  0.00    +0.000 A 
ATOM      2  C   UNL     1       4.623   4.976  16.789  0.00  0.00    +0.000 A 
ATOM      3  C   UNL     1       5.819   4.785  16.098  0.00  0.00    +0.000 A 
ATOM      4  C   UNL     1       6.860   5.709  16.213  0.00  0.00    +0.000 A 
ATOM      5  C   UNL     1       6.718   6.864  16.981  0.00  0.00    +0.000 A 
ATOM      6  C   UNL     1       5.508   7.027  17.698  0.00  0.00    +0.000 A 
ENDROOT
BRANCH   1   8
ATOM      7  C   UNL     1       2.329   7.492  17.983  0.00  0.00    +0.000 C 
ATOM      8  C   UNL     1       3.116   6.238  18.369  0.00  0.00    +0.000 C 
BRANCH   8   9
ATOM      9  S   UNL     1       2.098   4.730  18.107  0.00  0.00    +0.000 S 
BRANCH   9  10
ATOM     10  C   UNL     1       1.995   4.034  19.688  0.00  0.00    +0.000 A 
ATOM     11  N   UNL     1       2.448   4.510  20.819  0.00  0.00    +0.000 NA
ATOM     12  N   UNL     1       2.139   3.610  21.817  0.00  0.00    +0.000 NA
ATOM     13  C   UNL     1       1.506   2.602  21.260  0.00  0.00    +0.000 A 
ATOM     14  N   UNL     1       1.394   2.828  19.924  0.00  0.00    +0.000 N 
ATOM     15  C   UNL     1       0.745   1.963  18.975  0.00  0.00    +0.000 C 
ENDBRANCH   9  10
ENDBRANCH   8   9
ENDBRANCH   1   8
BRANCH   5  16
ATOM     16  N   UNL     1       7.749   7.796  17.152  0.00  0.00    +0.000 N 
ATOM     17  H   UNL     1       8.658   7.339  17.189  0.00  0.00    +0.000 HD
BRANCH  16  18
ATOM     18  C   UNL     1       7.612   8.944  18.063  0.00  0.00    +0.000 C 
BRANCH  18  19
ATOM     19  C   UNL     1       8.840   9.836  17.918  0.00  0.00    +0.000 C 
BRANCH  19  20
ATOM     20  C   UNL     1       9.654  10.074  19.204  0.00  0.00    +0.000 C 
ATOM     21  C   UNL     1       9.215  10.915  20.481  0.00  0.00    +0.000 C 
ATOM     22  C   UNL     1      10.127  11.998  19.979  0.00  0.00    +0.000 A 
ATOM     23  C   UNL     1      10.556  13.291  20.175  0.00  0.00    +0.000 A 
ATOM     24  C   UNL     1      11.448  13.823  19.237  0.00  0.00    +0.000 A 
ATOM     25  C   UNL     1      11.903  13.045  18.155  0.00  0.00    +0.000 A 
ATOM     26  C   UNL     1      11.486  11.723  18.010  0.00  0.00    +0.000 A 
ATOM     27  C   UNL     1      10.596  11.235  18.941  0.00  0.00    +0.000 A 
ENDBRANCH  19  20
ENDBRANCH  18  19
ENDBRANCH  16  18
ENDBRANCH   5  16
TORSDOF 7
ENDMDL
MODEL 8
REMARK VINA RESULT:      -7.8      3.563      8.452
REMARK  Name = 
REMARK  9 active torsions:
REMARK  status: ('A' for Active; 'I' for Inactive)
REMARK    1  A    between atoms: C_1  and  C_2
REMARK    2  A    between atoms: C_2  and  S_3
REMARK    3  A    between atoms: C_2  and  C_10
REMARK    4  A    between atoms: S_3  and  C_4
REMARK    5  A    between atoms: N_8  and  C_9
REMARK    6  A    between atoms: C_14  and  N_15
REMARK    7  A    between atoms: N_15  and  C_16
REMARK    8  A    between atoms: C_16  and  C_17
REMARK    9  A    between atoms: C_17  and  C_18
REMARK                            x       y       z     vdW  Elec       q    Type
REMARK                         _______ _______ _______ _____ _____    ______ ____
ROOT
ATOM      1  C   UNL     1       1.942   6.257  19.841  0.00  0.00    +0.000 A 
ATOM      2  C   UNL     1       1.519   5.497  20.940  0.00  0.00    +0.000 A 
ATOM      3  C   UNL     1       1.483   4.105  20.872  0.00  0.00    +0.000 A 
ATOM      4  C   UNL     1       1.857   3.442  19.701  0.00  0.00    +0.000 A 
ATOM      5  C   UNL     1       2.231   4.149  18.560  0.00  0.00    +0.000 A 
ATOM      6  C   UNL     1       2.289   5.560  18.656  0.00  0.00    +0.000 A 
ENDROOT
BRANCH   1   8
ATOM      7  C   UNL     1       2.009   8.524  18.642  0.00  0.00    +0.000 C 
ATOM      8  C   UNL     1       1.976   7.783  19.981  0.00  0.00    +0.000 C 
BRANCH   8   9
ATOM      9  S   UNL     1       0.543   8.337  20.990  0.00  0.00    +0.000 S 
BRANCH   9  10
ATOM     10  C   UNL     1       0.633  10.063  20.906  0.00  0.00    +0.000 A 
ATOM     11  N   UNL     1       1.402  10.871  21.588  0.00  0.00    +0.000 NA
ATOM     12  N   UNL     1       1.125  12.162  21.190  0.00  0.00    +0.000 NA
ATOM     13  C   UNL     1       0.185  12.102  20.273  0.00  0.00    +0.000 A 
ATOM     14  N   UNL     1      -0.152  10.801  20.065  0.00  0.00    +0.000 N 
ATOM     15  C   UNL     1      -1.128  10.325  19.120  0.00  0.00    +0.000 C 
ENDBRANCH   9  10
ENDBRANCH   8   9
ENDBRANCH   1   8
BRANCH   5  16
ATOM     16  N   UNL     1       2.649   3.524  17.379  0.00  0.00    +0.000 N 
ATOM     17  H   UNL     1       1.926   2.907  17.012  0.00  0.00    +0.000 HD
BRANCH  16  18
ATOM     18  C   UNL     1       4.019   3.011  17.215  0.00  0.00    +0.000 C 
BRANCH  18  19
ATOM     19  C   UNL     1       4.803   3.978  16.334  0.00  0.00    +0.000 C 
BRANCH  19  20
ATOM     20  C   UNL     1       4.694   5.468  16.709  0.00  0.00    +0.000 C 
ATOM     21  C   UNL     1       5.336   6.705  15.942  0.00  0.00    +0.000 C 
ATOM     22  C   UNL     1       6.367   6.742  17.034  0.00  0.00    +0.000 A 
ATOM     23  C   UNL     1       7.536   7.329  17.462  0.00  0.00    +0.000 A 
ATOM     24  C   UNL     1       8.111   6.837  18.638  0.00  0.00    +0.000 A 
ATOM     25  C   UNL     1       7.494   5.800  19.363  0.00  0.00    +0.000 A 
ATOM     26  C   UNL     1       6.285   5.257  18.929  0.00  0.00    +0.000 A 
ATOM     27  C   UNL     1       5.753   5.753  17.760  0.00  0.00    +0.000 A 
ENDBRANCH  19  20
ENDBRANCH  18  19
ENDBRANCH  16  18
ENDBRANCH   5  16
TORSDOF 7
ENDMDL
MODEL 9
REMARK VINA RESULT:      -7.8      5.328      8.041
REMARK  Name = 
REMARK  9 active torsions:
REMARK  status: ('A' for Active; 'I' for Inactive)
REMARK    1  A    between atoms: C_1  and  C_2
REMARK    2  A    between atoms: C_2  and  S_3
REMARK    3  A    between atoms: C_2  and  C_10
REMARK    4  A    between atoms: S_3  and  C_4
REMARK    5  A    between atoms: N_8  and  C_9
REMARK    6  A    between atoms: C_14  and  N_15
REMARK    7  A    between atoms: N_15  and  C_16
REMARK    8  A    between atoms: C_16  and  C_17
REMARK    9  A    between atoms: C_17  and  C_18
REMARK                            x       y       z     vdW  Elec       q    Type
REMARK                         _______ _______ _______ _____ _____    ______ ____
ROOT
ATOM      1  C   UNL     1       4.670   5.855  17.858  0.00  0.00    +0.000 A 
ATOM      2  C   UNL     1       5.107   4.626  17.345  0.00  0.00    +0.000 A 
ATOM      3  C   UNL     1       6.369   4.505  16.763  0.00  0.00    +0.000 A 
ATOM      4  C   UNL     1       7.215   5.613  16.670  0.00  0.00    +0.000 A 
ATOM      5  C   UNL     1       6.810   6.871  17.112  0.00  0.00    +0.000 A 
ATOM      6  C   UNL     1       5.538   6.968  17.725  0.00  0.00    +0.000 A 
ENDROOT
BRANCH   1   8
ATOM      7  C   UNL     1       2.484   7.172  18.119  0.00  0.00    +0.000 C 
ATOM      8  C   UNL     1       3.280   5.922  18.502  0.00  0.00    +0.000 C 
BRANCH   8   9
ATOM      9  S   UNL     1       2.338   4.402  18.082  0.00  0.00    +0.000 S 
BRANCH   9  10
ATOM     10  C   UNL     1       2.013   3.689  19.625  0.00  0.00    +0.000 A 
ATOM     11  N   UNL     1       0.966   3.851  20.392  0.00  0.00    +0.000 NA
ATOM     12  N   UNL     1       1.145   3.088  21.527  0.00  0.00    +0.000 NA
ATOM     13  C   UNL     1       2.306   2.482  21.419  0.00  0.00    +0.000 A 
ATOM     14  N   UNL     1       2.884   2.832  20.238  0.00  0.00    +0.000 N 
ATOM     15  C   UNL     1       4.151   2.357  19.747  0.00  0.00    +0.000 C 
ENDBRANCH   9  10
ENDBRANCH   8   9
ENDBRANCH   1   8
BRANCH   5  16
ATOM     16  N   UNL     1       7.641   7.997  17.070  0.00  0.00    +0.000 N 
ATOM     17  H   UNL     1       8.233   7.989  16.242  0.00  0.00    +0.000 HD
BRANCH  16  18
ATOM     18  C   UNL     1       8.300   8.519  18.279  0.00  0.00    +0.000 C 
BRANCH  18  19
ATOM     19  C   UNL     1       8.644   9.988  18.056  0.00  0.00    +0.000 C 
BRANCH  19  20
ATOM     20  C   UNL     1       9.595  10.619  19.090  0.00  0.00    +0.000 C 
ATOM     21  C   UNL     1       9.280  10.948  20.615  0.00  0.00    +0.000 C 
ATOM     22  C   UNL     1       9.155  12.384  20.193  0.00  0.00    +0.000 A 
ATOM     23  C   UNL     1       8.819  13.654  20.604  0.00  0.00    +0.000 A 
ATOM     24  C   UNL     1       8.825  14.667  19.638  0.00  0.00    +0.000 A 
ATOM     25  C   UNL     1       9.190  14.389  18.307  0.00  0.00    +0.000 A 
ATOM     26  C   UNL     1       9.569  13.101  17.931  0.00  0.00    +0.000 A 
ATOM     27  C   UNL     1       9.538  12.125  18.902  0.00  0.00    +0.000 A 
ENDBRANCH  19  20
ENDBRANCH  18  19
ENDBRANCH  16  18
ENDBRANCH   5  16
TORSDOF 7
ENDMDL
