MODEL 1
REMARK VINA RESULT:      -9.5      0.000      0.000
REMARK  Name = 
REMARK  3 active torsions:
REMARK  status: ('A' for Active; 'I' for Inactive)
REMARK    1  A    between atoms: C_2  and  C_3
REMARK    2  A    between atoms: N_12  and  C_13
REMARK    3  A    between atoms: C_15  and  C_16
REMARK                            x       y       z     vdW  Elec       q    Type
REMARK                         _______ _______ _______ _____ _____    ______ ____
ROOT
ATOM      1  C   UNL     1       2.990   5.748  18.231  0.00  0.00    +0.000 A 
ATOM      2  N   UNL     1       4.003   5.808  17.342  0.00  0.00    +0.000 NA
ATOM      3  C   UNL     1       4.332   4.677  16.693  0.00  0.00    +0.000 A 
ATOM      4  N   UNL     1       3.731   3.491  16.875  0.00  0.00    +0.000 NA
ATOM      5  C   UNL     1       2.758   3.418  17.777  0.00  0.00    +0.000 A 
ATOM      6  C   UNL     1       2.161   2.178  17.977  0.00  0.00    +0.000 A 
ATOM      7  C   UNL     1       1.137   1.987  18.905  0.00  0.00    +0.000 A 
ATOM      8  C   UNL     1       0.721   3.051  19.681  0.00  0.00    +0.000 A 
ATOM      9  C   UNL     1       1.332   4.290  19.512  0.00  0.00    +0.000 A 
ATOM     10  C   UNL     1       2.335   4.518  18.523  0.00  0.00    +0.000 A 
ENDROOT
BRANCH   1  16
ATOM     11  O   UNL     1       0.612  10.353  21.795  0.00  0.00    +0.000 OA
ATOM     12  C   UNL     1       0.697  10.254  20.573  0.00  0.00    +0.000 C 
ATOM     13  N   UNL     1       1.225   9.125  19.950  0.00  0.00    +0.000 N 
ATOM     14  C   UNL     1       1.398   7.882  20.745  0.00  0.00    +0.000 C 
ATOM     15  C   UNL     1       2.640   7.043  20.337  0.00  0.00    +0.000 C 
ATOM     16  N   UNL     1       2.645   6.922  18.871  0.00  0.00    +0.000 N 
ATOM     17  C   UNL     1       2.767   8.222  18.215  0.00  0.00    +0.000 C 
ATOM     18  C   UNL     1       1.470   8.988  18.506  0.00  0.00    +0.000 C 
BRANCH  12  19
ATOM     19  C   UNL     1       0.241  11.419  19.762  0.00  0.00    +0.000 A 
ATOM     20  C   UNL     1       1.103  12.509  19.636  0.00  0.00    +0.000 A 
ATOM     21  C   UNL     1       0.687  13.583  18.869  0.00  0.00    +0.000 A 
ATOM     22  N   UNL     1      -0.498  13.630  18.224  0.00  0.00    +0.000 NA
ATOM     23  C   UNL     1      -1.330  12.584  18.396  0.00  0.00    +0.000 A 
ATOM     24  C   UNL     1      -1.025  11.484  19.177  0.00  0.00    +0.000 A 
ENDBRANCH  12  19
ENDBRANCH   1  16
BRANCH   3  25
ATOM     25  C   UNL     1       5.408   4.714  15.691  0.00  0.00    +0.000 A 
ATOM     26  C   UNL     1       5.314   4.018  14.470  0.00  0.00    +0.000 A 
ATOM     27  C   UNL     1       6.336   4.083  13.525  0.00  0.00    +0.000 A 
ATOM     28  C   UNL     1       7.449   4.843  13.820  0.00  0.00    +0.000 A 
ATOM     29  N   UNL     1       7.601   5.524  14.976  0.00  0.00    +0.000 NA
ATOM     30  C   UNL     1       6.581   5.441  15.875  0.00  0.00    +0.000 A 
ENDBRANCH   3  25
TORSDOF 3
ENDMDL
MODEL 2
REMARK VINA RESULT:      -8.1      1.859      2.339
REMARK  Name = 
REMARK  3 active torsions:
REMARK  status: ('A' for Active; 'I' for Inactive)
REMARK    1  A    between atoms: C_2  and  C_3
REMARK    2  A    between atoms: N_12  and  C_13
REMARK    3  A    between atoms: C_15  and  C_16
REMARK                            x       y       z     vdW  Elec       q    Type
REMARK                         _______ _______ _______ _____ _____    ______ ____
ROOT
ATOM      1  C   UNL     1       2.992   6.115  18.605  0.00  0.00    +0.000 A 
ATOM      2  N   UNL     1       3.859   6.086  17.571  0.00  0.00    +0.000 NA
ATOM      3  C   UNL     1       4.606   4.980  17.414  0.00  0.00    +0.000 A 
ATOM      4  N   UNL     1       4.557   3.906  18.216  0.00  0.00    +0.000 NA
ATOM      5  C   UNL     1       3.732   3.944  19.257  0.00  0.00    +0.000 A 
ATOM      6  C   UNL     1       3.710   2.836  20.099  0.00  0.00    +0.000 A 
ATOM      7  C   UNL     1       2.889   2.774  21.225  0.00  0.00    +0.000 A 
ATOM      8  C   UNL     1       2.094   3.858  21.543  0.00  0.00    +0.000 A 
ATOM      9  C   UNL     1       2.131   4.984  20.726  0.00  0.00    +0.000 A 
ATOM     10  C   UNL     1       2.916   5.040  19.535  0.00  0.00    +0.000 A 
ENDROOT
BRANCH   1  16
ATOM     11  O   UNL     1       0.463  11.871  18.775  0.00  0.00    +0.000 OA
ATOM     12  C   UNL     1       0.580  11.026  19.659  0.00  0.00    +0.000 C 
ATOM     13  N   UNL     1       1.215   9.804  19.445  0.00  0.00    +0.000 N 
ATOM     14  C   UNL     1       2.050   9.633  18.228  0.00  0.00    +0.000 C 
ATOM     15  C   UNL     1       2.012   8.197  17.637  0.00  0.00    +0.000 C 
ATOM     16  N   UNL     1       2.211   7.246  18.741  0.00  0.00    +0.000 N 
ATOM     17  C   UNL     1       1.145   7.332  19.737  0.00  0.00    +0.000 C 
ATOM     18  C   UNL     1       1.283   8.701  20.415  0.00  0.00    +0.000 C 
BRANCH  12  19
ATOM     19  C   UNL     1      -0.023  11.341  20.986  0.00  0.00    +0.000 A 
ATOM     20  C   UNL     1      -0.125  12.680  21.361  0.00  0.00    +0.000 A 
ATOM     21  C   UNL     1      -0.700  12.973  22.584  0.00  0.00    +0.000 A 
ATOM     22  N   UNL     1      -1.182  12.036  23.430  0.00  0.00    +0.000 NA
ATOM     23  C   UNL     1      -1.032  10.748  23.064  0.00  0.00    +0.000 A 
ATOM     24  C   UNL     1      -0.432  10.352  21.883  0.00  0.00    +0.000 A 
ENDBRANCH  12  19
ENDBRANCH   1  16
BRANCH   3  25
ATOM     25  C   UNL     1       5.536   4.901  16.277  0.00  0.00    +0.000 A 
ATOM     26  C   UNL     1       5.270   4.099  15.150  0.00  0.00    +0.000 A 
ATOM     27  C   UNL     1       6.155   4.054  14.074  0.00  0.00    +0.000 A 
ATOM     28  C   UNL     1       7.305   4.813  14.145  0.00  0.00    +0.000 A 
ATOM     29  N   UNL     1       7.620   5.593  15.202  0.00  0.00    +0.000 NA
ATOM     30  C   UNL     1       6.731   5.614  16.234  0.00  0.00    +0.000 A 
ENDBRANCH   3  25
TORSDOF 3
ENDMDL
MODEL 3
REMARK VINA RESULT:      -8.1      2.870      8.457
REMARK  Name = 
REMARK  3 active torsions:
REMARK  status: ('A' for Active; 'I' for Inactive)
REMARK    1  A    between atoms: C_2  and  C_3
REMARK    2  A    between atoms: N_12  and  C_13
REMARK    3  A    between atoms: C_15  and  C_16
REMARK                            x       y       z     vdW  Elec       q    Type
REMARK                         _______ _______ _______ _____ _____    ______ ____
ROOT
ATOM      1  C   UNL     1       3.710   5.435  18.606  0.00  0.00    +0.000 A 
ATOM      2  N   UNL     1       3.151   6.663  18.613  0.00  0.00    +0.000 NA
ATOM      3  C   UNL     1       2.283   6.947  19.600  0.00  0.00    +0.000 A 
ATOM      4  N   UNL     1       1.927   6.094  20.572  0.00  0.00    +0.000 NA
ATOM      5  C   UNL     1       2.447   4.871  20.548  0.00  0.00    +0.000 A 
ATOM      6  C   UNL     1       2.050   3.985  21.545  0.00  0.00    +0.000 A 
ATOM      7  C   UNL     1       2.526   2.676  21.609  0.00  0.00    +0.000 A 
ATOM      8  C   UNL     1       3.393   2.223  20.633  0.00  0.00    +0.000 A 
ATOM      9  C   UNL     1       3.774   3.091  19.613  0.00  0.00    +0.000 A 
ATOM     10  C   UNL     1       3.347   4.452  19.569  0.00  0.00    +0.000 A 
ENDROOT
BRANCH   1  16
ATOM     11  O   UNL     1       7.824   5.459  13.847  0.00  0.00    +0.000 OA
ATOM     12  C   UNL     1       6.777   4.832  13.992  0.00  0.00    +0.000 C 
ATOM     13  N   UNL     1       5.963   4.988  15.113  0.00  0.00    +0.000 N 
ATOM     14  C   UNL     1       6.181   6.158  16.001  0.00  0.00    +0.000 C 
ATOM     15  C   UNL     1       5.909   5.866  17.503  0.00  0.00    +0.000 C 
ATOM     16  N   UNL     1       4.620   5.164  17.602  0.00  0.00    +0.000 N 
ATOM     17  C   UNL     1       4.642   3.878  16.909  0.00  0.00    +0.000 C 
ATOM     18  C   UNL     1       4.767   4.186  15.411  0.00  0.00    +0.000 C 
BRANCH  12  19
ATOM     19  C   UNL     1       6.418   3.851  12.929  0.00  0.00    +0.000 A 
ATOM     20  C   UNL     1       7.452   3.184  12.273  0.00  0.00    +0.000 A 
ATOM     21  C   UNL     1       7.118   2.262  11.298  0.00  0.00    +0.000 A 
ATOM     22  N   UNL     1       5.847   1.959  10.955  0.00  0.00    +0.000 NA
ATOM     23  C   UNL     1       4.868   2.648  11.573  0.00  0.00    +0.000 A 
ATOM     24  C   UNL     1       5.101   3.620  12.528  0.00  0.00    +0.000 A 
ENDBRANCH  12  19
ENDBRANCH   1  16
BRANCH   3  25
ATOM     25  C   UNL     1       1.681   8.288  19.659  0.00  0.00    +0.000 A 
ATOM     26  C   UNL     1       1.608   9.123  18.527  0.00  0.00    +0.000 A 
ATOM     27  C   UNL     1       1.014  10.382  18.599  0.00  0.00    +0.000 A 
ATOM     28  C   UNL     1       0.503  10.792  19.813  0.00  0.00    +0.000 A 
ATOM     29  N   UNL     1       0.551  10.041  20.934  0.00  0.00    +0.000 NA
ATOM     30  C   UNL     1       1.136   8.816  20.827  0.00  0.00    +0.000 A 
ENDBRANCH   3  25
TORSDOF 3
ENDMDL
MODEL 4
REMARK VINA RESULT:      -8.0      3.072      9.592
REMARK  Name = 
REMARK  3 active torsions:
REMARK  status: ('A' for Active; 'I' for Inactive)
REMARK    1  A    between atoms: C_2  and  C_3
REMARK    2  A    between atoms: N_12  and  C_13
REMARK    3  A    between atoms: C_15  and  C_16
REMARK                            x       y       z     vdW  Elec       q    Type
REMARK                         _______ _______ _______ _____ _____    ______ ____
ROOT
ATOM      1  C   UNL     1      -0.344  10.615  19.359  0.00  0.00    +0.000 A 
ATOM      2  N   UNL     1      -0.296  11.430  20.434  0.00  0.00    +0.000 NA
ATOM      3  C   UNL     1      -1.373  12.195  20.685  0.00  0.00    +0.000 A 
ATOM      4  N   UNL     1      -2.488  12.211  19.940  0.00  0.00    +0.000 NA
ATOM      5  C   UNL     1      -2.525  11.438  18.859  0.00  0.00    +0.000 A 
ATOM      6  C   UNL     1      -3.675  11.484  18.077  0.00  0.00    +0.000 A 
ATOM      7  C   UNL     1      -3.818  10.721  16.918  0.00  0.00    +0.000 A 
ATOM      8  C   UNL     1      -2.773   9.918  16.506  0.00  0.00    +0.000 A 
ATOM      9  C   UNL     1      -1.605   9.887  17.263  0.00  0.00    +0.000 A 
ATOM     10  C   UNL     1      -1.467  10.611  18.485  0.00  0.00    +0.000 A 
ENDROOT
BRANCH   1  16
ATOM     11  O   UNL     1       4.416   7.198  17.073  0.00  0.00    +0.000 OA
ATOM     12  C   UNL     1       3.515   6.890  17.850  0.00  0.00    +0.000 C 
ATOM     13  N   UNL     1       2.509   7.781  18.217  0.00  0.00    +0.000 N 
ATOM     14  C   UNL     1       2.324   9.022  17.422  0.00  0.00    +0.000 C 
ATOM     15  C   UNL     1       1.869  10.246  18.264  0.00  0.00    +0.000 C 
ATOM     16  N   UNL     1       0.758   9.816  19.126  0.00  0.00    +0.000 N 
ATOM     17  C   UNL     1       1.166   8.773  20.065  0.00  0.00    +0.000 C 
ATOM     18  C   UNL     1       1.474   7.523  19.230  0.00  0.00    +0.000 C 
BRANCH  12  19
ATOM     19  C   UNL     1       3.554   5.516  18.427  0.00  0.00    +0.000 A 
ATOM     20  C   UNL     1       4.620   5.183  19.263  0.00  0.00    +0.000 A 
ATOM     21  C   UNL     1       4.647   3.914  19.812  0.00  0.00    +0.000 A 
ATOM     22  N   UNL     1       3.692   2.984  19.598  0.00  0.00    +0.000 NA
ATOM     23  C   UNL     1       2.696   3.314  18.753  0.00  0.00    +0.000 A 
ATOM     24  C   UNL     1       2.603   4.541  18.120  0.00  0.00    +0.000 A 
ENDBRANCH  12  19
ENDBRANCH   1  16
BRANCH   3  25
ATOM     25  C   UNL     1      -1.369  13.069  21.868  0.00  0.00    +0.000 A 
ATOM     26  C   UNL     1      -2.448  13.105  22.773  0.00  0.00    +0.000 A 
ATOM     27  C   UNL     1      -2.415  13.926  23.899  0.00  0.00    +0.000 A 
ATOM     28  C   UNL     1      -1.298  14.709  24.101  0.00  0.00    +0.000 A 
ATOM     29  N   UNL     1      -0.237  14.725  23.266  0.00  0.00    +0.000 NA
ATOM     30  C   UNL     1      -0.302  13.909  22.177  0.00  0.00    +0.000 A 
ENDBRANCH   3  25
TORSDOF 3
ENDMDL
MODEL 5
REMARK VINA RESULT:      -7.8      3.148      9.812
REMARK  Name = 
REMARK  3 active torsions:
REMARK  status: ('A' for Active; 'I' for Inactive)
REMARK    1  A    between atoms: C_2  and  C_3
REMARK    2  A    between atoms: N_12  and  C_13
REMARK    3  A    between atoms: C_15  and  C_16
REMARK                            x       y       z     vdW  Elec       q    Type
REMARK                         _______ _______ _______ _____ _____    ______ ____
ROOT
ATOM      1  C   UNL     1      -0.550  10.981  19.706  0.00  0.00    +0.000 A 
ATOM      2  N   UNL     1      -0.425  11.820  20.756  0.00  0.00    +0.000 NA
ATOM      3  C   UNL     1      -1.471  12.610  21.051  0.00  0.00    +0.000 A 
ATOM      4  N   UNL     1      -2.628  12.629  20.371  0.00  0.00    +0.000 NA
ATOM      5  C   UNL     1      -2.742  11.832  19.314  0.00  0.00    +0.000 A 
ATOM      6  C   UNL     1      -3.935  11.881  18.600  0.00  0.00    +0.000 A 
ATOM      7  C   UNL     1      -4.158  11.094  17.470  0.00  0.00    +0.000 A 
ATOM      8  C   UNL     1      -3.153  10.262  17.017  0.00  0.00    +0.000 A 
ATOM      9  C   UNL     1      -1.944  10.227  17.705  0.00  0.00    +0.000 A 
ATOM     10  C   UNL     1      -1.722  10.977  18.899  0.00  0.00    +0.000 A 
ENDROOT
BRANCH   1  16
ATOM     11  O   UNL     1       4.076   7.510  17.232  0.00  0.00    +0.000 OA
ATOM     12  C   UNL     1       3.170   7.198  18.002  0.00  0.00    +0.000 C 
ATOM     13  N   UNL     1       2.197   8.106  18.417  0.00  0.00    +0.000 N 
ATOM     14  C   UNL     1       2.050   9.386  17.678  0.00  0.00    +0.000 C 
ATOM     15  C   UNL     1       1.642  10.586  18.578  0.00  0.00    +0.000 C 
ATOM     16  N   UNL     1       0.523  10.156  19.429  0.00  0.00    +0.000 N 
ATOM     17  C   UNL     1       0.901   9.059  20.318  0.00  0.00    +0.000 C 
ATOM     18  C   UNL     1       1.162   7.838  19.426  0.00  0.00    +0.000 C 
BRANCH  12  19
ATOM     19  C   UNL     1       3.166   5.799  18.518  0.00  0.00    +0.000 A 
ATOM     20  C   UNL     1       2.279   4.889  17.943  0.00  0.00    +0.000 A 
ATOM     21  C   UNL     1       2.287   3.587  18.410  0.00  0.00    +0.000 A 
ATOM     22  N   UNL     1       3.115   3.143  19.380  0.00  0.00    +0.000 NA
ATOM     23  C   UNL     1       3.931   4.052  19.950  0.00  0.00    +0.000 A 
ATOM     24  C   UNL     1       3.967   5.385  19.584  0.00  0.00    +0.000 A 
ENDBRANCH  12  19
ENDBRANCH   1  16
BRANCH   3  25
ATOM     25  C   UNL     1      -1.383  13.512  22.210  0.00  0.00    +0.000 A 
ATOM     26  C   UNL     1      -2.411  13.597  23.169  0.00  0.00    +0.000 A 
ATOM     27  C   UNL     1      -2.299  14.442  24.271  0.00  0.00    +0.000 A 
ATOM     28  C   UNL     1      -1.153  15.201  24.395  0.00  0.00    +0.000 A 
ATOM     29  N   UNL     1      -0.138  15.170  23.505  0.00  0.00    +0.000 NA
ATOM     30  C   UNL     1      -0.281  14.331  22.442  0.00  0.00    +0.000 A 
ENDBRANCH   3  25
TORSDOF 3
ENDMDL
MODEL 6
REMARK VINA RESULT:      -7.7      2.572      9.872
REMARK  Name = 
REMARK  3 active torsions:
REMARK  status: ('A' for Active; 'I' for Inactive)
REMARK    1  A    between atoms: C_2  and  C_3
REMARK    2  A    between atoms: N_12  and  C_13
REMARK    3  A    between atoms: C_15  and  C_16
REMARK                            x       y       z     vdW  Elec       q    Type
REMARK                         _______ _______ _______ _____ _____    ______ ____
ROOT
ATOM      1  C   UNL     1       0.066  11.060  19.488  0.00  0.00    +0.000 A 
ATOM      2  N   UNL     1      -1.174  11.166  20.011  0.00  0.00    +0.000 NA
ATOM      3  C   UNL     1      -1.704  12.397  20.114  0.00  0.00    +0.000 A 
ATOM      4  N   UNL     1      -1.085  13.528  19.743  0.00  0.00    +0.000 NA
ATOM      5  C   UNL     1       0.150  13.432  19.262  0.00  0.00    +0.000 A 
ATOM      6  C   UNL     1       0.793  14.614  18.907  0.00  0.00    +0.000 A 
ATOM      7  C   UNL     1       2.093  14.629  18.401  0.00  0.00    +0.000 A 
ATOM      8  C   UNL     1       2.786  13.441  18.279  0.00  0.00    +0.000 A 
ATOM      9  C   UNL     1       2.164  12.255  18.661  0.00  0.00    +0.000 A 
ATOM     10  C   UNL     1       0.813  12.214  19.119  0.00  0.00    +0.000 A 
ENDROOT
BRANCH   1  16
ATOM     11  O   UNL     1       2.984   5.516  20.047  0.00  0.00    +0.000 OA
ATOM     12  C   UNL     1       3.024   6.350  19.145  0.00  0.00    +0.000 C 
ATOM     13  N   UNL     1       2.331   7.558  19.215  0.00  0.00    +0.000 N 
ATOM     14  C   UNL     1       1.791   8.000  20.525  0.00  0.00    +0.000 C 
ATOM     15  C   UNL     1       0.448   8.776  20.421  0.00  0.00    +0.000 C 
ATOM     16  N   UNL     1       0.590   9.788  19.364  0.00  0.00    +0.000 N 
ATOM     17  C   UNL     1       0.841   9.183  18.057  0.00  0.00    +0.000 C 
ATOM     18  C   UNL     1       2.234   8.544  18.128  0.00  0.00    +0.000 C 
BRANCH  12  19
ATOM     19  C   UNL     1       3.823   6.006  17.934  0.00  0.00    +0.000 A 
ATOM     20  C   UNL     1       3.796   4.687  17.482  0.00  0.00    +0.000 A 
ATOM     21  C   UNL     1       4.523   4.372  16.348  0.00  0.00    +0.000 A 
ATOM     22  N   UNL     1       5.246   5.272  15.647  0.00  0.00    +0.000 NA
ATOM     23  C   UNL     1       5.291   6.529  16.129  0.00  0.00    +0.000 A 
ATOM     24  C   UNL     1       4.634   6.932  17.277  0.00  0.00    +0.000 A 
ENDBRANCH  12  19
ENDBRANCH   1  16
BRANCH   3  25
ATOM     25  C   UNL     1      -3.067  12.546  20.647  0.00  0.00    +0.000 A 
ATOM     26  C   UNL     1      -4.192  12.628  19.804  0.00  0.00    +0.000 A 
ATOM     27  C   UNL     1      -5.478  12.748  20.329  0.00  0.00    +0.000 A 
ATOM     28  C   UNL     1      -5.618  12.792  21.701  0.00  0.00    +0.000 A 
ATOM     29  N   UNL     1      -4.579  12.728  22.560  0.00  0.00    +0.000 NA
ATOM     30  C   UNL     1      -3.337  12.608  22.011  0.00  0.00    +0.000 A 
ENDBRANCH   3  25
TORSDOF 3
ENDMDL
MODEL 7
REMARK VINA RESULT:      -7.7      3.081      9.676
REMARK  Name = 
REMARK  3 active torsions:
REMARK  status: ('A' for Active; 'I' for Inactive)
REMARK    1  A    between atoms: C_2  and  C_3
REMARK    2  A    between atoms: N_12  and  C_13
REMARK    3  A    between atoms: C_15  and  C_16
REMARK                            x       y       z     vdW  Elec       q    Type
REMARK                         _______ _______ _______ _____ _____    ______ ____
ROOT
ATOM      1  C   UNL     1      -0.359  10.681  19.404  0.00  0.00    +0.000 A 
ATOM      2  N   UNL     1      -0.302  11.507  20.470  0.00  0.00    +0.000 NA
ATOM      3  C   UNL     1      -1.378  12.271  20.725  0.00  0.00    +0.000 A 
ATOM      4  N   UNL     1      -2.501  12.278  19.990  0.00  0.00    +0.000 NA
ATOM      5  C   UNL     1      -2.547  11.493  18.918  0.00  0.00    +0.000 A 
ATOM      6  C   UNL     1      -3.705  11.529  18.147  0.00  0.00    +0.000 A 
ATOM      7  C   UNL     1      -3.857  10.753  16.997  0.00  0.00    +0.000 A 
ATOM      8  C   UNL     1      -2.815   9.948  16.582  0.00  0.00    +0.000 A 
ATOM      9  C   UNL     1      -1.639   9.928  17.328  0.00  0.00    +0.000 A 
ATOM     10  C   UNL     1      -1.491  10.665  18.541  0.00  0.00    +0.000 A 
ENDROOT
BRANCH   1  16
ATOM     11  O   UNL     1       4.388   7.254  17.106  0.00  0.00    +0.000 OA
ATOM     12  C   UNL     1       3.494   6.950  17.892  0.00  0.00    +0.000 C 
ATOM     13  N   UNL     1       2.489   7.843  18.261  0.00  0.00    +0.000 N 
ATOM     14  C   UNL     1       2.296   9.077  17.457  0.00  0.00    +0.000 C 
ATOM     15  C   UNL     1       1.846  10.307  18.294  0.00  0.00    +0.000 C 
ATOM     16  N   UNL     1       0.743   9.881  19.168  0.00  0.00    +0.000 N 
ATOM     17  C   UNL     1       1.160   8.846  20.112  0.00  0.00    +0.000 C 
ATOM     18  C   UNL     1       1.464   7.591  19.285  0.00  0.00    +0.000 C 
BRANCH  12  19
ATOM     19  C   UNL     1       3.540   5.581  18.480  0.00  0.00    +0.000 A 
ATOM     20  C   UNL     1       2.489   4.709  18.198  0.00  0.00    +0.000 A 
ATOM     21  C   UNL     1       2.540   3.433  18.730  0.00  0.00    +0.000 A 
ATOM     22  N   UNL     1       3.557   2.978  19.493  0.00  0.00    +0.000 NA
ATOM     23  C   UNL     1       4.539   3.853  19.786  0.00  0.00    +0.000 A 
ATOM     24  C   UNL     1       4.557   5.162  19.340  0.00  0.00    +0.000 A 
ENDBRANCH  12  19
ENDBRANCH   1  16
BRANCH   3  25
ATOM     25  C   UNL     1      -1.364  13.158  21.898  0.00  0.00    +0.000 A 
ATOM     26  C   UNL     1      -0.377  14.147  22.074  0.00  0.00    +0.000 A 
ATOM     27  C   UNL     1      -0.394  14.991  23.182  0.00  0.00    +0.000 A 
ATOM     28  C   UNL     1      -1.402  14.828  24.109  0.00  0.00    +0.000 A 
ATOM     29  N   UNL     1      -2.371  13.894  24.001  0.00  0.00    +0.000 NA
ATOM     30  C   UNL     1      -2.325  13.088  22.904  0.00  0.00    +0.000 A 
ENDBRANCH   3  25
TORSDOF 3
ENDMDL
MODEL 8
REMARK VINA RESULT:      -7.3      3.269      9.509
REMARK  Name = 
REMARK  3 active torsions:
REMARK  status: ('A' for Active; 'I' for Inactive)
REMARK    1  A    between atoms: C_2  and  C_3
REMARK    2  A    between atoms: N_12  and  C_13
REMARK    3  A    between atoms: C_15  and  C_16
REMARK                            x       y       z     vdW  Elec       q    Type
REMARK                         _______ _______ _______ _____ _____    ______ ____
ROOT
ATOM      1  C   UNL     1       0.083  10.729  19.490  0.00  0.00    +0.000 A 
ATOM      2  N   UNL     1       0.356  11.754  20.325  0.00  0.00    +0.000 NA
ATOM      3  C   UNL     1      -0.569  12.720  20.451  0.00  0.00    +0.000 A 
ATOM      4  N   UNL     1      -1.742  12.743  19.798  0.00  0.00    +0.000 NA
ATOM      5  C   UNL     1      -1.999  11.757  18.946  0.00  0.00    +0.000 A 
ATOM      6  C   UNL     1      -3.205  11.805  18.254  0.00  0.00    +0.000 A 
ATOM      7  C   UNL     1      -3.572  10.827  17.330  0.00  0.00    +0.000 A 
ATOM      8  C   UNL     1      -2.700   9.790  17.061  0.00  0.00    +0.000 A 
ATOM      9  C   UNL     1      -1.477   9.747  17.725  0.00  0.00    +0.000 A 
ATOM     10  C   UNL     1      -1.113  10.704  18.719  0.00  0.00    +0.000 A 
ENDROOT
BRANCH   1  16
ATOM     11  O   UNL     1       4.080   6.176  17.802  0.00  0.00    +0.000 OA
ATOM     12  C   UNL     1       3.207   6.189  18.667  0.00  0.00    +0.000 C 
ATOM     13  N   UNL     1       2.378   7.291  18.873  0.00  0.00    +0.000 N 
ATOM     14  C   UNL     1       2.321   8.350  17.834  0.00  0.00    +0.000 C 
ATOM     15  C   UNL     1       2.123   9.781  18.406  0.00  0.00    +0.000 C 
ATOM     16  N   UNL     1       1.030   9.729  19.390  0.00  0.00    +0.000 N 
ATOM     17  C   UNL     1       1.349   8.854  20.516  0.00  0.00    +0.000 C 
ATOM     18  C   UNL     1       1.399   7.423  19.963  0.00  0.00    +0.000 C 
BRANCH  12  19
ATOM     19  C   UNL     1       3.083   4.979  19.529  0.00  0.00    +0.000 A 
ATOM     20  C   UNL     1       3.948   3.911  19.290  0.00  0.00    +0.000 A 
ATOM     21  C   UNL     1       3.845   2.796  20.102  0.00  0.00    +0.000 A 
ATOM     22  N   UNL     1       2.965   2.687  21.120  0.00  0.00    +0.000 NA
ATOM     23  C   UNL     1       2.112   3.715  21.303  0.00  0.00    +0.000 A 
ATOM     24  C   UNL     1       2.107   4.854  20.518  0.00  0.00    +0.000 A 
ENDBRANCH  12  19
ENDBRANCH   1  16
BRANCH   3  25
ATOM     25  C   UNL     1      -0.320  13.834  21.379  0.00  0.00    +0.000 A 
ATOM     26  C   UNL     1       0.399  14.982  20.990  0.00  0.00    +0.000 A 
ATOM     27  C   UNL     1       0.606  16.035  21.878  0.00  0.00    +0.000 A 
ATOM     28  C   UNL     1       0.093  15.922  23.154  0.00  0.00    +0.000 A 
ATOM     29  N   UNL     1      -0.595  14.844  23.588  0.00  0.00    +0.000 NA
ATOM     30  C   UNL     1      -0.781  13.835  22.693  0.00  0.00    +0.000 A 
ENDBRANCH   3  25
TORSDOF 3
ENDMDL
MODEL 9
REMARK VINA RESULT:      -7.3      2.966      9.336
REMARK  Name = 
REMARK  3 active torsions:
REMARK  status: ('A' for Active; 'I' for Inactive)
REMARK    1  A    between atoms: C_2  and  C_3
REMARK    2  A    between atoms: N_12  and  C_13
REMARK    3  A    between atoms: C_15  and  C_16
REMARK                            x       y       z     vdW  Elec       q    Type
REMARK                         _______ _______ _______ _____ _____    ______ ____
ROOT
ATOM      1  C   UNL     1       0.419  10.676  19.334  0.00  0.00    +0.000 A 
ATOM      2  N   UNL     1       0.903  11.715  20.047  0.00  0.00    +0.000 NA
ATOM      3  C   UNL     1       0.079  12.752  20.276  0.00  0.00    +0.000 A 
ATOM      4  N   UNL     1      -1.187  12.831  19.839  0.00  0.00    +0.000 NA
ATOM      5  C   UNL     1      -1.656  11.828  19.105  0.00  0.00    +0.000 A 
ATOM      6  C   UNL     1      -2.961  11.934  18.633  0.00  0.00    +0.000 A 
ATOM      7  C   UNL     1      -3.550  10.943  17.847  0.00  0.00    +0.000 A 
ATOM      8  C   UNL     1      -2.808   9.835  17.489  0.00  0.00    +0.000 A 
ATOM      9  C   UNL     1      -1.492   9.732  17.929  0.00  0.00    +0.000 A 
ATOM     10  C   UNL     1      -0.895  10.704  18.787  0.00  0.00    +0.000 A 
ENDROOT
BRANCH   1  16
ATOM     11  O   UNL     1       4.030   6.006  17.163  0.00  0.00    +0.000 OA
ATOM     12  C   UNL     1       3.118   5.991  17.987  0.00  0.00    +0.000 C 
ATOM     13  N   UNL     1       2.392   7.134  18.318  0.00  0.00    +0.000 N 
ATOM     14  C   UNL     1       2.494   8.328  17.439  0.00  0.00    +0.000 C 
ATOM     15  C   UNL     1       2.409   9.678  18.203  0.00  0.00    +0.000 C 
ATOM     16  N   UNL     1       1.267   9.606  19.127  0.00  0.00    +0.000 N 
ATOM     17  C   UNL     1       1.438   8.554  20.128  0.00  0.00    +0.000 C 
ATOM     18  C   UNL     1       1.376   7.217  19.378  0.00  0.00    +0.000 C 
BRANCH  12  19
ATOM     19  C   UNL     1       2.831   4.693  18.662  0.00  0.00    +0.000 A 
ATOM     20  C   UNL     1       1.763   3.929  18.191  0.00  0.00    +0.000 A 
ATOM     21  C   UNL     1       1.507   2.717  18.806  0.00  0.00    +0.000 A 
ATOM     22  N   UNL     1       2.241   2.224  19.827  0.00  0.00    +0.000 NA
ATOM     23  C   UNL     1       3.240   3.000  20.292  0.00  0.00    +0.000 A 
ATOM     24  C   UNL     1       3.546   4.245  19.774  0.00  0.00    +0.000 A 
ENDBRANCH  12  19
ENDBRANCH   1  16
BRANCH   3  25
ATOM     25  C   UNL     1       0.562  13.885  21.080  0.00  0.00    +0.000 A 
ATOM     26  C   UNL     1       1.679  14.651  20.693  0.00  0.00    +0.000 A 
ATOM     27  C   UNL     1       2.108  15.735  21.457  0.00  0.00    +0.000 A 
ATOM     28  C   UNL     1       1.411  16.035  22.610  0.00  0.00    +0.000 A 
ATOM     29  N   UNL     1       0.340  15.333  23.037  0.00  0.00    +0.000 NA
ATOM     30  C   UNL     1      -0.053  14.283  22.264  0.00  0.00    +0.000 A 
ENDBRANCH   3  25
TORSDOF 3
ENDMDL
