MODEL 1
REMARK VINA RESULT:      -9.0      0.000      0.000
REMARK  Name = 
REMARK  4 active torsions:
REMARK  status: ('A' for Active; 'I' for Inactive)
REMARK    1  A    between atoms: C_7  and  C_8
REMARK    2  A    between atoms: N_14  and  C_15
REMARK    3  A    between atoms: C_20  and  C_21
REMARK    4  A    between atoms: C_21  and  N_22
REMARK                            x       y       z     vdW  Elec       q    Type
REMARK                         _______ _______ _______ _____ _____    ______ ____
ROOT
ATOM      1  O   UNL     1       2.206  10.021  17.167  0.00  0.00    +0.000 OA
ATOM      2  C   UNL     1       1.824   9.582  18.235  0.00  0.00    +0.000 C 
ATOM      3  C   UNL     1       1.042  10.399  19.167  0.00  0.00    +0.000 A 
ATOM      4  C   UNL     1       0.619  11.706  19.008  0.00  0.00    +0.000 A 
ATOM      5  C   UNL     1      -0.112  12.276  20.048  0.00  0.00    +0.000 A 
ATOM      6  C   UNL     1      -0.393  11.534  21.210  0.00  0.00    +0.000 A 
ATOM      7  C   UNL     1       0.051  10.204  21.358  0.00  0.00    +0.000 A 
ATOM      8  C   UNL     1       0.774   9.648  20.305  0.00  0.00    +0.000 A 
ATOM      9  C   UNL     1       1.374   8.284  20.153  0.00  0.00    +0.000 C 
ATOM     10  N   UNL     1       2.010   8.334  18.842  0.00  0.00    +0.000 N 
ENDROOT
BRANCH  10  11
ATOM     11  C   UNL     1       2.707   7.227  18.280  0.00  0.00    +0.000 A 
ATOM     12  C   UNL     1       3.953   7.390  17.659  0.00  0.00    +0.000 A 
ATOM     13  C   UNL     1       4.631   6.308  17.095  0.00  0.00    +0.000 A 
ATOM     14  C   UNL     1       4.080   5.037  17.165  0.00  0.00    +0.000 A 
ATOM     15  F   UNL     1       4.749   4.013  16.616  0.00  0.00    +0.000 F 
ATOM     16  C   UNL     1       2.855   4.820  17.794  0.00  0.00    +0.000 A 
ATOM     17  C   UNL     1       2.166   5.928  18.328  0.00  0.00    +0.000 A 
BRANCH  16  18
ATOM     18  C   UNL     1       2.285   3.427  17.882  0.00  0.00    +0.000 C 
BRANCH  18  19
ATOM     19  N   UNL     1       2.204   2.977  19.258  0.00  0.00    +0.000 N 
ATOM     20  C   UNL     1       3.231   2.803  20.149  0.00  0.00    +0.000 C 
ATOM     21  C   UNL     1       2.776   2.691  21.401  0.00  0.00    +0.000 C 
ATOM     22  C   UNL     1       1.279   2.857  21.415  0.00  0.00    +0.000 C 
ATOM     23  C   UNL     1       0.906   2.827  19.917  0.00  0.00    +0.000 C 
ENDBRANCH  18  19
ENDBRANCH  16  18
ENDBRANCH  10  11
BRANCH   7  24
ATOM     24  C   UNL     1      -0.240   9.418  22.608  0.00  0.00    +0.000 C 
ATOM     25  F   UNL     1       0.873   9.067  23.307  0.00  0.00    +0.000 F 
ATOM     26  F   UNL     1      -1.032  10.105  23.477  0.00  0.00    +0.000 F 
ATOM     27  F   UNL     1      -0.900   8.257  22.342  0.00  0.00    +0.000 F 
ENDBRANCH   7  24
TORSDOF 4
ENDMDL
MODEL 2
REMARK VINA RESULT:      -8.7      1.930      3.494
REMARK  Name = 
REMARK  4 active torsions:
REMARK  status: ('A' for Active; 'I' for Inactive)
REMARK    1  A    between atoms: C_7  and  C_8
REMARK    2  A    between atoms: N_14  and  C_15
REMARK    3  A    between atoms: C_20  and  C_21
REMARK    4  A    between atoms: C_21  and  N_22
REMARK                            x       y       z     vdW  Elec       q    Type
REMARK                         _______ _______ _______ _____ _____    ______ ____
ROOT
ATOM      1  O   UNL     1       2.524   8.224  17.637  0.00  0.00    +0.000 OA
ATOM      2  C   UNL     1       2.045   8.216  18.755  0.00  0.00    +0.000 C 
ATOM      3  C   UNL     1       1.287   9.357  19.274  0.00  0.00    +0.000 A 
ATOM      4  C   UNL     1       0.992  10.548  18.634  0.00  0.00    +0.000 A 
ATOM      5  C   UNL     1       0.256  11.494  19.345  0.00  0.00    +0.000 A 
ATOM      6  C   UNL     1      -0.155  11.231  20.664  0.00  0.00    +0.000 A 
ATOM      7  C   UNL     1       0.160  10.014  21.304  0.00  0.00    +0.000 A 
ATOM      8  C   UNL     1       0.889   9.076  20.575  0.00  0.00    +0.000 A 
ATOM      9  C   UNL     1       1.373   7.712  20.960  0.00  0.00    +0.000 C 
ATOM     10  N   UNL     1       2.084   7.254  19.772  0.00  0.00    +0.000 N 
ENDROOT
BRANCH  10  11
ATOM     11  C   UNL     1       2.711   5.978  19.692  0.00  0.00    +0.000 A 
ATOM     12  C   UNL     1       2.036   4.811  20.074  0.00  0.00    +0.000 A 
ATOM     13  C   UNL     1       2.654   3.560  20.010  0.00  0.00    +0.000 A 
ATOM     14  C   UNL     1       3.954   3.458  19.539  0.00  0.00    +0.000 A 
ATOM     15  F   UNL     1       4.527   2.247  19.487  0.00  0.00    +0.000 F 
ATOM     16  C   UNL     1       4.658   4.587  19.124  0.00  0.00    +0.000 A 
ATOM     17  C   UNL     1       4.033   5.846  19.228  0.00  0.00    +0.000 A 
BRANCH  16  18
ATOM     18  C   UNL     1       6.062   4.451  18.590  0.00  0.00    +0.000 C 
BRANCH  18  19
ATOM     19  N   UNL     1       6.098   4.630  17.152  0.00  0.00    +0.000 N 
ATOM     20  C   UNL     1       7.030   5.307  16.410  0.00  0.00    +0.000 C 
ATOM     21  C   UNL     1       6.935   5.004  15.112  0.00  0.00    +0.000 C 
ATOM     22  C   UNL     1       5.865   3.962  14.911  0.00  0.00    +0.000 C 
ATOM     23  C   UNL     1       5.170   3.899  16.288  0.00  0.00    +0.000 C 
ENDBRANCH  18  19
ENDBRANCH  16  18
ENDBRANCH  10  11
BRANCH   7  24
ATOM     24  C   UNL     1      -0.270   9.742  22.720  0.00  0.00    +0.000 C 
ATOM     25  F   UNL     1      -1.070   8.649  22.850  0.00  0.00    +0.000 F 
ATOM     26  F   UNL     1       0.788   9.539  23.551  0.00  0.00    +0.000 F 
ATOM     27  F   UNL     1      -0.967  10.785  23.253  0.00  0.00    +0.000 F 
ENDBRANCH   7  24
TORSDOF 4
ENDMDL
MODEL 3
REMARK VINA RESULT:      -8.7      1.904      3.489
REMARK  Name = 
REMARK  4 active torsions:
REMARK  status: ('A' for Active; 'I' for Inactive)
REMARK    1  A    between atoms: C_7  and  C_8
REMARK    2  A    between atoms: N_14  and  C_15
REMARK    3  A    between atoms: C_20  and  C_21
REMARK    4  A    between atoms: C_21  and  N_22
REMARK                            x       y       z     vdW  Elec       q    Type
REMARK                         _______ _______ _______ _____ _____    ______ ____
ROOT
ATOM      1  O   UNL     1       2.310   8.695  17.517  0.00  0.00    +0.000 OA
ATOM      2  C   UNL     1       1.875   8.602  18.649  0.00  0.00    +0.000 C 
ATOM      3  C   UNL     1       1.132   9.697  19.278  0.00  0.00    +0.000 A 
ATOM      4  C   UNL     1       0.805  10.928  18.739  0.00  0.00    +0.000 A 
ATOM      5  C   UNL     1       0.093  11.814  19.545  0.00  0.00    +0.000 A 
ATOM      6  C   UNL     1      -0.264  11.452  20.857  0.00  0.00    +0.000 A 
ATOM      7  C   UNL     1       0.083  10.195  21.393  0.00  0.00    +0.000 A 
ATOM      8  C   UNL     1       0.788   9.319  20.571  0.00  0.00    +0.000 A 
ATOM      9  C   UNL     1       1.294   7.935  20.836  0.00  0.00    +0.000 C 
ATOM     10  N   UNL     1       1.960   7.570  19.591  0.00  0.00    +0.000 N 
ENDROOT
BRANCH  10  11
ATOM     11  C   UNL     1       2.590   6.308  19.394  0.00  0.00    +0.000 A 
ATOM     12  C   UNL     1       2.220   5.185  20.146  0.00  0.00    +0.000 A 
ATOM     13  C   UNL     1       2.847   3.950  19.964  0.00  0.00    +0.000 A 
ATOM     14  C   UNL     1       3.841   3.817  19.007  0.00  0.00    +0.000 A 
ATOM     15  F   UNL     1       4.429   2.622  18.851  0.00  0.00    +0.000 F 
ATOM     16  C   UNL     1       4.227   4.899  18.218  0.00  0.00    +0.000 A 
ATOM     17  C   UNL     1       3.609   6.147  18.437  0.00  0.00    +0.000 A 
BRANCH  16  18
ATOM     18  C   UNL     1       5.293   4.727  17.165  0.00  0.00    +0.000 C 
BRANCH  18  19
ATOM     19  N   UNL     1       6.429   5.591  17.417  0.00  0.00    +0.000 N 
ATOM     20  C   UNL     1       6.680   6.830  16.889  0.00  0.00    +0.000 C 
ATOM     21  C   UNL     1       7.635   7.468  17.573  0.00  0.00    +0.000 C 
ATOM     22  C   UNL     1       8.073   6.624  18.742  0.00  0.00    +0.000 C 
ATOM     23  C   UNL     1       7.391   5.265  18.472  0.00  0.00    +0.000 C 
ENDBRANCH  18  19
ENDBRANCH  16  18
ENDBRANCH  10  11
BRANCH   7  24
ATOM     24  C   UNL     1      -0.289   9.818  22.802  0.00  0.00    +0.000 C 
ATOM     25  F   UNL     1      -1.077   8.712  22.884  0.00  0.00    +0.000 F 
ATOM     26  F   UNL     1       0.802   9.563  23.574  0.00  0.00    +0.000 F 
ATOM     27  F   UNL     1      -0.969  10.813  23.436  0.00  0.00    +0.000 F 
ENDBRANCH   7  24
TORSDOF 4
ENDMDL
MODEL 4
REMARK VINA RESULT:      -8.7      1.819      3.277
REMARK  Name = 
REMARK  4 active torsions:
REMARK  status: ('A' for Active; 'I' for Inactive)
REMARK    1  A    between atoms: C_7  and  C_8
REMARK    2  A    between atoms: N_14  and  C_15
REMARK    3  A    between atoms: C_20  and  C_21
REMARK    4  A    between atoms: C_21  and  N_22
REMARK                            x       y       z     vdW  Elec       q    Type
REMARK                         _______ _______ _______ _____ _____    ______ ____
ROOT
ATOM      1  O   UNL     1       2.196   9.260  17.209  0.00  0.00    +0.000 OA
ATOM      2  C   UNL     1       1.823   8.997  18.336  0.00  0.00    +0.000 C 
ATOM      3  C   UNL     1       1.148   9.993  19.173  0.00  0.00    +0.000 A 
ATOM      4  C   UNL     1       0.827  11.300  18.854  0.00  0.00    +0.000 A 
ATOM      5  C   UNL     1       0.187  12.061  19.830  0.00  0.00    +0.000 A 
ATOM      6  C   UNL     1      -0.106  11.503  21.088  0.00  0.00    +0.000 A 
ATOM      7  C   UNL     1       0.233  10.170  21.399  0.00  0.00    +0.000 A 
ATOM      8  C   UNL     1       0.865   9.421  20.408  0.00  0.00    +0.000 A 
ATOM      9  C   UNL     1       1.345   8.003  20.422  0.00  0.00    +0.000 C 
ATOM     10  N   UNL     1       1.930   7.827  19.097  0.00  0.00    +0.000 N 
ENDROOT
BRANCH  10  11
ATOM     11  C   UNL     1       2.511   6.601  18.667  0.00  0.00    +0.000 A 
ATOM     12  C   UNL     1       1.942   5.366  19.010  0.00  0.00    +0.000 A 
ATOM     13  C   UNL     1       2.519   4.162  18.601  0.00  0.00    +0.000 A 
ATOM     14  C   UNL     1       3.665   4.177  17.821  0.00  0.00    +0.000 A 
ATOM     15  F   UNL     1       4.201   3.008  17.441  0.00  0.00    +0.000 F 
ATOM     16  C   UNL     1       4.254   5.379  17.435  0.00  0.00    +0.000 A 
ATOM     17  C   UNL     1       3.680   6.586  17.884  0.00  0.00    +0.000 A 
BRANCH  16  18
ATOM     18  C   UNL     1       5.486   5.375  16.564  0.00  0.00    +0.000 C 
BRANCH  18  19
ATOM     19  N   UNL     1       6.650   5.832  17.296  0.00  0.00    +0.000 N 
ATOM     20  C   UNL     1       7.177   7.097  17.337  0.00  0.00    +0.000 C 
ATOM     21  C   UNL     1       8.043   7.233  18.346  0.00  0.00    +0.000 C 
ATOM     22  C   UNL     1       8.101   5.955  19.141  0.00  0.00    +0.000 C 
ATOM     23  C   UNL     1       7.311   4.958  18.266  0.00  0.00    +0.000 C 
ENDBRANCH  18  19
ENDBRANCH  16  18
ENDBRANCH  10  11
BRANCH   7  24
ATOM     24  C   UNL     1      -0.071   9.582  22.750  0.00  0.00    +0.000 C 
ATOM     25  F   UNL     1       1.036   9.216  23.451  0.00  0.00    +0.000 F 
ATOM     26  F   UNL     1      -0.755  10.446  23.548  0.00  0.00    +0.000 F 
ATOM     27  F   UNL     1      -0.846   8.465  22.660  0.00  0.00    +0.000 F 
ENDBRANCH   7  24
TORSDOF 4
ENDMDL
MODEL 5
REMARK VINA RESULT:      -8.6      1.834      3.409
REMARK  Name = 
REMARK  4 active torsions:
REMARK  status: ('A' for Active; 'I' for Inactive)
REMARK    1  A    between atoms: C_7  and  C_8
REMARK    2  A    between atoms: N_14  and  C_15
REMARK    3  A    between atoms: C_20  and  C_21
REMARK    4  A    between atoms: C_21  and  N_22
REMARK                            x       y       z     vdW  Elec       q    Type
REMARK                         _______ _______ _______ _____ _____    ______ ____
ROOT
ATOM      1  O   UNL     1       2.468   8.188  17.658  0.00  0.00    +0.000 OA
ATOM      2  C   UNL     1       2.002   8.189  18.782  0.00  0.00    +0.000 C 
ATOM      3  C   UNL     1       1.238   9.327  19.296  0.00  0.00    +0.000 A 
ATOM      4  C   UNL     1       0.921  10.506  18.646  0.00  0.00    +0.000 A 
ATOM      5  C   UNL     1       0.183  11.452  19.354  0.00  0.00    +0.000 A 
ATOM      6  C   UNL     1      -0.209  11.201  20.682  0.00  0.00    +0.000 A 
ATOM      7  C   UNL     1       0.128   9.995  21.332  0.00  0.00    +0.000 A 
ATOM      8  C   UNL     1       0.859   9.058  20.606  0.00  0.00    +0.000 A 
ATOM      9  C   UNL     1       1.364   7.704  21.001  0.00  0.00    +0.000 C 
ATOM     10  N   UNL     1       2.065   7.240  19.809  0.00  0.00    +0.000 N 
ENDROOT
BRANCH  10  11
ATOM     11  C   UNL     1       2.706   5.971  19.737  0.00  0.00    +0.000 A 
ATOM     12  C   UNL     1       2.063   4.805  20.177  0.00  0.00    +0.000 A 
ATOM     13  C   UNL     1       2.696   3.561  20.120  0.00  0.00    +0.000 A 
ATOM     14  C   UNL     1       3.977   3.463  19.599  0.00  0.00    +0.000 A 
ATOM     15  F   UNL     1       4.564   2.258  19.555  0.00  0.00    +0.000 F 
ATOM     16  C   UNL     1       4.648   4.590  19.126  0.00  0.00    +0.000 A 
ATOM     17  C   UNL     1       4.010   5.843  19.222  0.00  0.00    +0.000 A 
BRANCH  16  18
ATOM     18  C   UNL     1       6.030   4.458  18.539  0.00  0.00    +0.000 C 
BRANCH  18  19
ATOM     19  N   UNL     1       6.009   4.621  17.099  0.00  0.00    +0.000 N 
ATOM     20  C   UNL     1       5.639   3.702  16.151  0.00  0.00    +0.000 C 
ATOM     21  C   UNL     1       5.435   4.281  14.964  0.00  0.00    +0.000 C 
ATOM     22  C   UNL     1       5.622   5.771  15.085  0.00  0.00    +0.000 C 
ATOM     23  C   UNL     1       6.229   5.937  16.496  0.00  0.00    +0.000 C 
ENDBRANCH  18  19
ENDBRANCH  16  18
ENDBRANCH  10  11
BRANCH   7  24
ATOM     24  C   UNL     1      -0.281   9.736  22.757  0.00  0.00    +0.000 C 
ATOM     25  F   UNL     1       0.766   9.536  23.601  0.00  0.00    +0.000 F 
ATOM     26  F   UNL     1      -1.000  10.765  23.283  0.00  0.00    +0.000 F 
ATOM     27  F   UNL     1      -1.073   8.633  22.870  0.00  0.00    +0.000 F 
ENDBRANCH   7  24
TORSDOF 4
ENDMDL
MODEL 6
REMARK VINA RESULT:      -8.5      2.037      3.505
REMARK  Name = 
REMARK  4 active torsions:
REMARK  status: ('A' for Active; 'I' for Inactive)
REMARK    1  A    between atoms: C_7  and  C_8
REMARK    2  A    between atoms: N_14  and  C_15
REMARK    3  A    between atoms: C_20  and  C_21
REMARK    4  A    between atoms: C_21  and  N_22
REMARK                            x       y       z     vdW  Elec       q    Type
REMARK                         _______ _______ _______ _____ _____    ______ ____
ROOT
ATOM      1  O   UNL     1       2.439   8.210  17.859  0.00  0.00    +0.000 OA
ATOM      2  C   UNL     1       1.941   8.213  18.968  0.00  0.00    +0.000 C 
ATOM      3  C   UNL     1       1.229   9.383  19.487  0.00  0.00    +0.000 A 
ATOM      4  C   UNL     1       1.001  10.593  18.856  0.00  0.00    +0.000 A 
ATOM      5  C   UNL     1       0.298  11.565  19.564  0.00  0.00    +0.000 A 
ATOM      6  C   UNL     1      -0.148  11.308  20.874  0.00  0.00    +0.000 A 
ATOM      7  C   UNL     1       0.098  10.071  21.505  0.00  0.00    +0.000 A 
ATOM      8  C   UNL     1       0.795   9.108  20.778  0.00  0.00    +0.000 A 
ATOM      9  C   UNL     1       1.208   7.718  21.155  0.00  0.00    +0.000 C 
ATOM     10  N   UNL     1       1.917   7.240  19.974  0.00  0.00    +0.000 N 
ENDROOT
BRANCH  10  11
ATOM     11  C   UNL     1       2.484   5.937  19.891  0.00  0.00    +0.000 A 
ATOM     12  C   UNL     1       1.841   4.826  20.454  0.00  0.00    +0.000 A 
ATOM     13  C   UNL     1       2.403   3.549  20.385  0.00  0.00    +0.000 A 
ATOM     14  C   UNL     1       3.611   3.362  19.730  0.00  0.00    +0.000 A 
ATOM     15  F   UNL     1       4.132   2.128  19.677  0.00  0.00    +0.000 F 
ATOM     16  C   UNL     1       4.277   4.432  19.133  0.00  0.00    +0.000 A 
ATOM     17  C   UNL     1       3.714   5.720  19.241  0.00  0.00    +0.000 A 
BRANCH  16  18
ATOM     18  C   UNL     1       5.576   4.204  18.402  0.00  0.00    +0.000 C 
BRANCH  18  19
ATOM     19  N   UNL     1       6.379   5.410  18.365  0.00  0.00    +0.000 N 
ATOM     20  C   UNL     1       7.409   5.762  19.197  0.00  0.00    +0.000 C 
ATOM     21  C   UNL     1       8.124   6.770  18.688  0.00  0.00    +0.000 C 
ATOM     22  C   UNL     1       7.587   7.140  17.331  0.00  0.00    +0.000 C 
ATOM     23  C   UNL     1       6.266   6.344  17.245  0.00  0.00    +0.000 C 
ENDBRANCH  18  19
ENDBRANCH  16  18
ENDBRANCH  10  11
BRANCH   7  24
ATOM     24  C   UNL     1      -0.369   9.805  22.910  0.00  0.00    +0.000 C 
ATOM     25  F   UNL     1       0.641   9.558  23.787  0.00  0.00    +0.000 F 
ATOM     26  F   UNL     1      -1.073  10.849  23.427  0.00  0.00    +0.000 F 
ATOM     27  F   UNL     1      -1.200   8.727  22.978  0.00  0.00    +0.000 F 
ENDBRANCH   7  24
TORSDOF 4
ENDMDL
MODEL 7
REMARK VINA RESULT:      -8.5      0.240      1.076
REMARK  Name = 
REMARK  4 active torsions:
REMARK  status: ('A' for Active; 'I' for Inactive)
REMARK    1  A    between atoms: C_7  and  C_8
REMARK    2  A    between atoms: N_14  and  C_15
REMARK    3  A    between atoms: C_20  and  C_21
REMARK    4  A    between atoms: C_21  and  N_22
REMARK                            x       y       z     vdW  Elec       q    Type
REMARK                         _______ _______ _______ _____ _____    ______ ____
ROOT
ATOM      1  O   UNL     1       2.163  10.180  17.206  0.00  0.00    +0.000 OA
ATOM      2  C   UNL     1       1.785   9.728  18.270  0.00  0.00    +0.000 C 
ATOM      3  C   UNL     1       0.998  10.530  19.210  0.00  0.00    +0.000 A 
ATOM      4  C   UNL     1       0.566  11.836  19.064  0.00  0.00    +0.000 A 
ATOM      5  C   UNL     1      -0.169  12.391  20.110  0.00  0.00    +0.000 A 
ATOM      6  C   UNL     1      -0.443  11.636  21.265  0.00  0.00    +0.000 A 
ATOM      7  C   UNL     1       0.011  10.308  21.401  0.00  0.00    +0.000 A 
ATOM      8  C   UNL     1       0.737   9.767  20.341  0.00  0.00    +0.000 A 
ATOM      9  C   UNL     1       1.347   8.409  20.177  0.00  0.00    +0.000 C 
ATOM     10  N   UNL     1       1.981   8.476  18.865  0.00  0.00    +0.000 N 
ENDROOT
BRANCH  10  11
ATOM     11  C   UNL     1       2.685   7.379  18.293  0.00  0.00    +0.000 A 
ATOM     12  C   UNL     1       3.842   7.578  17.526  0.00  0.00    +0.000 A 
ATOM     13  C   UNL     1       4.526   6.504  16.952  0.00  0.00    +0.000 A 
ATOM     14  C   UNL     1       4.073   5.209  17.157  0.00  0.00    +0.000 A 
ATOM     15  F   UNL     1       4.746   4.194  16.596  0.00  0.00    +0.000 F 
ATOM     16  C   UNL     1       2.942   4.959  17.932  0.00  0.00    +0.000 A 
ATOM     17  C   UNL     1       2.242   6.056  18.476  0.00  0.00    +0.000 A 
BRANCH  16  18
ATOM     18  C   UNL     1       2.481   3.543  18.165  0.00  0.00    +0.000 C 
BRANCH  18  19
ATOM     19  N   UNL     1       2.253   3.288  19.574  0.00  0.00    +0.000 N 
ATOM     20  C   UNL     1       1.053   3.155  20.223  0.00  0.00    +0.000 C 
ATOM     21  C   UNL     1       1.211   2.614  21.435  0.00  0.00    +0.000 C 
ATOM     22  C   UNL     1       2.662   2.273  21.654  0.00  0.00    +0.000 C 
ATOM     23  C   UNL     1       3.368   2.949  20.459  0.00  0.00    +0.000 C 
ENDBRANCH  18  19
ENDBRANCH  16  18
ENDBRANCH  10  11
BRANCH   7  24
ATOM     24  C   UNL     1      -0.273   9.509  22.644  0.00  0.00    +0.000 C 
ATOM     25  F   UNL     1      -1.072  10.150  23.538  0.00  0.00    +0.000 F 
ATOM     26  F   UNL     1      -0.886   8.325  22.368  0.00  0.00    +0.000 F 
ATOM     27  F   UNL     1       0.867   9.188  23.318  0.00  0.00    +0.000 F 
ENDBRANCH   7  24
TORSDOF 4
ENDMDL
MODEL 8
REMARK VINA RESULT:      -8.5      0.768      1.248
REMARK  Name = 
REMARK  4 active torsions:
REMARK  status: ('A' for Active; 'I' for Inactive)
REMARK    1  A    between atoms: C_7  and  C_8
REMARK    2  A    between atoms: N_14  and  C_15
REMARK    3  A    between atoms: C_20  and  C_21
REMARK    4  A    between atoms: C_21  and  N_22
REMARK                            x       y       z     vdW  Elec       q    Type
REMARK                         _______ _______ _______ _____ _____    ______ ____
ROOT
ATOM      1  O   UNL     1       2.013   9.695  17.145  0.00  0.00    +0.000 OA
ATOM      2  C   UNL     1       1.717   9.342  18.271  0.00  0.00    +0.000 C 
ATOM      3  C   UNL     1       0.797  10.121  19.104  0.00  0.00    +0.000 A 
ATOM      4  C   UNL     1       0.141  11.295  18.782  0.00  0.00    +0.000 A 
ATOM      5  C   UNL     1      -0.684  11.857  19.754  0.00  0.00    +0.000 A 
ATOM      6  C   UNL     1      -0.825  11.241  21.011  0.00  0.00    +0.000 A 
ATOM      7  C   UNL     1      -0.144  10.046  21.324  0.00  0.00    +0.000 A 
ATOM      8  C   UNL     1       0.670   9.494  20.337  0.00  0.00    +0.000 A 
ATOM      9  C   UNL     1       1.510   8.255  20.355  0.00  0.00    +0.000 C 
ATOM     10  N   UNL     1       2.128   8.242  19.033  0.00  0.00    +0.000 N 
ENDROOT
BRANCH  10  11
ATOM     11  C   UNL     1       3.017   7.215  18.608  0.00  0.00    +0.000 A 
ATOM     12  C   UNL     1       3.748   7.333  17.418  0.00  0.00    +0.000 A 
ATOM     13  C   UNL     1       4.610   6.320  16.991  0.00  0.00    +0.000 A 
ATOM     14  C   UNL     1       4.771   5.181  17.765  0.00  0.00    +0.000 A 
ATOM     15  F   UNL     1       5.603   4.221  17.336  0.00  0.00    +0.000 F 
ATOM     16  C   UNL     1       4.084   5.028  18.969  0.00  0.00    +0.000 A 
ATOM     17  C   UNL     1       3.191   6.044  19.368  0.00  0.00    +0.000 A 
BRANCH  16  18
ATOM     18  C   UNL     1       4.292   3.794  19.809  0.00  0.00    +0.000 C 
BRANCH  18  19
ATOM     19  N   UNL     1       3.029   3.180  20.167  0.00  0.00    +0.000 N 
ATOM     20  C   UNL     1       2.445   3.112  21.406  0.00  0.00    +0.000 C 
ATOM     21  C   UNL     1       1.157   2.767  21.320  0.00  0.00    +0.000 C 
ATOM     22  C   UNL     1       0.763   2.629  19.872  0.00  0.00    +0.000 C 
ATOM     23  C   UNL     1       2.115   2.699  19.130  0.00  0.00    +0.000 C 
ENDBRANCH  18  19
ENDBRANCH  16  18
ENDBRANCH  10  11
BRANCH   7  24
ATOM     24  C   UNL     1      -0.288   9.397  22.674  0.00  0.00    +0.000 C 
ATOM     25  F   UNL     1      -0.810   8.142  22.627  0.00  0.00    +0.000 F 
ATOM     26  F   UNL     1       0.903   9.287  23.324  0.00  0.00    +0.000 F 
ATOM     27  F   UNL     1      -1.098  10.112  23.503  0.00  0.00    +0.000 F 
ENDBRANCH   7  24
TORSDOF 4
ENDMDL
MODEL 9
REMARK VINA RESULT:      -8.4      1.806      3.267
REMARK  Name = 
REMARK  4 active torsions:
REMARK  status: ('A' for Active; 'I' for Inactive)
REMARK    1  A    between atoms: C_7  and  C_8
REMARK    2  A    between atoms: N_14  and  C_15
REMARK    3  A    between atoms: C_20  and  C_21
REMARK    4  A    between atoms: C_21  and  N_22
REMARK                            x       y       z     vdW  Elec       q    Type
REMARK                         _______ _______ _______ _____ _____    ______ ____
ROOT
ATOM      1  O   UNL     1       2.490   8.242  17.679  0.00  0.00    +0.000 OA
ATOM      2  C   UNL     1       1.993   8.235  18.789  0.00  0.00    +0.000 C 
ATOM      3  C   UNL     1       1.371   9.432  19.360  0.00  0.00    +0.000 A 
ATOM      4  C   UNL     1       1.234  10.682  18.782  0.00  0.00    +0.000 A 
ATOM      5  C   UNL     1       0.607  11.672  19.534  0.00  0.00    +0.000 A 
ATOM      6  C   UNL     1       0.144  11.394  20.833  0.00  0.00    +0.000 A 
ATOM      7  C   UNL     1       0.297  10.116  21.410  0.00  0.00    +0.000 A 
ATOM      8  C   UNL     1       0.919   9.135  20.640  0.00  0.00    +0.000 A 
ATOM      9  C   UNL     1       1.227   7.704  20.956  0.00  0.00    +0.000 C 
ATOM     10  N   UNL     1       1.897   7.225  19.753  0.00  0.00    +0.000 N 
ENDROOT
BRANCH  10  11
ATOM     11  C   UNL     1       2.365   5.887  19.612  0.00  0.00    +0.000 A 
ATOM     12  C   UNL     1       2.311   4.981  20.680  0.00  0.00    +0.000 A 
ATOM     13  C   UNL     1       2.783   3.673  20.548  0.00  0.00    +0.000 A 
ATOM     14  C   UNL     1       3.296   3.246  19.333  0.00  0.00    +0.000 A 
ATOM     15  F   UNL     1       3.743   1.986  19.229  0.00  0.00    +0.000 F 
ATOM     16  C   UNL     1       3.348   4.102  18.234  0.00  0.00    +0.000 A 
ATOM     17  C   UNL     1       2.900   5.430  18.394  0.00  0.00    +0.000 A 
BRANCH  16  18
ATOM     18  C   UNL     1       3.885   3.610  16.914  0.00  0.00    +0.000 C 
BRANCH  18  19
ATOM     19  N   UNL     1       5.156   4.230  16.598  0.00  0.00    +0.000 N 
ATOM     20  C   UNL     1       6.243   4.392  17.418  0.00  0.00    +0.000 C 
ATOM     21  C   UNL     1       7.338   4.707  16.720  0.00  0.00    +0.000 C 
ATOM     22  C   UNL     1       7.018   4.717  15.248  0.00  0.00    +0.000 C 
ATOM     23  C   UNL     1       5.478   4.608  15.221  0.00  0.00    +0.000 C 
ENDBRANCH  18  19
ENDBRANCH  16  18
ENDBRANCH  10  11
BRANCH   7  24
ATOM     24  C   UNL     1      -0.188   9.826  22.804  0.00  0.00    +0.000 C 
ATOM     25  F   UNL     1       0.806   9.502  23.675  0.00  0.00    +0.000 F 
ATOM     26  F   UNL     1      -0.842  10.885  23.354  0.00  0.00    +0.000 F 
ATOM     27  F   UNL     1      -1.070   8.788  22.835  0.00  0.00    +0.000 F 
ENDBRANCH   7  24
TORSDOF 4
ENDMDL
