MODEL 1
REMARK VINA RESULT:      -8.4      0.000      0.000
REMARK  Name = 
REMARK  6 active torsions:
REMARK  status: ('A' for Active; 'I' for Inactive)
REMARK    1  A    between atoms: C_1  and  O_2
REMARK    2  A    between atoms: O_2  and  C_3
REMARK    3  A    between atoms: C_5  and  C_6
REMARK    4  A    between atoms: N_8  and  C_9
REMARK    5  A    between atoms: C_13  and  C_14
REMARK    6  A    between atoms: C_15  and  C_16
REMARK                            x       y       z     vdW  Elec       q    Type
REMARK                         _______ _______ _______ _____ _____    ______ ____
ROOT
ATOM      1  C   UNL     1       2.456   8.198  18.139  0.00  0.00    +0.000 C 
ATOM      2  O   UNL     1       2.464   8.480  16.944  0.00  0.00    +0.000 OA
ATOM      3  N   UNL     1       3.205   7.174  18.714  0.00  0.00    +0.000 N 
ATOM      4  H   UNL     1       3.410   7.235  19.706  0.00  0.00    +0.000 HD
ENDROOT
BRANCH   1   7
ATOM      5  C   UNL     1       0.039  10.717  19.210  0.00  0.00    +0.000 A 
ATOM      6  N   UNL     1       0.913  10.021  18.455  0.00  0.00    +0.000 NA
ATOM      7  C   UNL     1       1.619   9.035  19.061  0.00  0.00    +0.000 A 
ATOM      8  C   UNL     1       1.513   8.746  20.413  0.00  0.00    +0.000 A 
ATOM      9  C   UNL     1       0.623   9.493  21.193  0.00  0.00    +0.000 A 
ATOM     10  C   UNL     1       0.461   9.223  22.557  0.00  0.00    +0.000 A 
ATOM     11  C   UNL     1      -0.460   9.940  23.323  0.00  0.00    +0.000 A 
ATOM     12  C   UNL     1      -1.231  10.933  22.732  0.00  0.00    +0.000 A 
ATOM     13  C   UNL     1      -1.076  11.223  21.376  0.00  0.00    +0.000 A 
ATOM     14  C   UNL     1      -0.147  10.509  20.586  0.00  0.00    +0.000 A 
BRANCH   5  16
ATOM     15  C   UNL     1      -1.760  11.146  17.783  0.00  0.00    +0.000 C 
ATOM     16  O   UNL     1      -0.722  11.695  18.594  0.00  0.00    +0.000 OA
ENDBRANCH   5  16
ENDBRANCH   1   7
BRANCH   3  17
ATOM     17  C   UNL     1       3.973   6.219  17.983  0.00  0.00    +0.000 A 
ATOM     18  C   UNL     1       5.217   6.589  17.452  0.00  0.00    +0.000 A 
ATOM     19  C   UNL     1       5.962   5.712  16.676  0.00  0.00    +0.000 A 
ATOM     20  C   UNL     1       5.449   4.460  16.370  0.00  0.00    +0.000 A 
ATOM     21  C   UNL     1       4.196   4.050  16.858  0.00  0.00    +0.000 A 
ATOM     22  C   UNL     1       3.712   2.690  16.429  0.00  0.00    +0.000 C 
ATOM     23  C   UNL     1       3.475   4.913  17.728  0.00  0.00    +0.000 A 
BRANCH  23  24
ATOM     24  C   UNL     1       2.180   4.454  18.328  0.00  0.00    +0.000 C 
ATOM     25  O   UNL     1       1.125   4.768  17.780  0.00  0.00    +0.000 OA
ATOM     26  N   UNL     1       2.190   3.743  19.525  0.00  0.00    +0.000 N 
ATOM     27  C   UNL     1       0.949   3.311  20.142  0.00  0.00    +0.000 C 
ATOM     28  C   UNL     1       1.358   3.092  21.587  0.00  0.00    +0.000 C 
ATOM     29  C   UNL     1       2.786   2.553  21.487  0.00  0.00    +0.000 C 
ATOM     30  C   UNL     1       3.291   2.982  20.107  0.00  0.00    +0.000 C 
ENDBRANCH  23  24
ENDBRANCH   3  17
TORSDOF 4
ENDMDL
MODEL 2
REMARK VINA RESULT:      -8.4      0.964      1.026
REMARK  Name = 
REMARK  6 active torsions:
REMARK  status: ('A' for Active; 'I' for Inactive)
REMARK    1  A    between atoms: C_1  and  O_2
REMARK    2  A    between atoms: O_2  and  C_3
REMARK    3  A    between atoms: C_5  and  C_6
REMARK    4  A    between atoms: N_8  and  C_9
REMARK    5  A    between atoms: C_13  and  C_14
REMARK    6  A    between atoms: C_15  and  C_16
REMARK                            x       y       z     vdW  Elec       q    Type
REMARK                         _______ _______ _______ _____ _____    ______ ____
ROOT
ATOM      1  C   UNL     1       2.526   7.214  19.571  0.00  0.00    +0.000 C 
ATOM      2  O   UNL     1       2.917   6.432  20.433  0.00  0.00    +0.000 OA
ATOM      3  N   UNL     1       2.828   7.109  18.214  0.00  0.00    +0.000 N 
ATOM      4  H   UNL     1       2.204   7.559  17.553  0.00  0.00    +0.000 HD
ENDROOT
BRANCH   1   7
ATOM      5  C   UNL     1       0.232  10.038  19.269  0.00  0.00    +0.000 A 
ATOM      6  N   UNL     1       1.153   9.099  18.970  0.00  0.00    +0.000 NA
ATOM      7  C   UNL     1       1.625   8.338  19.987  0.00  0.00    +0.000 A 
ATOM      8  C   UNL     1       1.238   8.511  21.308  0.00  0.00    +0.000 A 
ATOM      9  C   UNL     1       0.302   9.506  21.610  0.00  0.00    +0.000 A 
ATOM     10  C   UNL     1      -0.139   9.703  22.924  0.00  0.00    +0.000 A 
ATOM     11  C   UNL     1      -1.107  10.666  23.216  0.00  0.00    +0.000 A 
ATOM     12  C   UNL     1      -1.644  11.442  22.197  0.00  0.00    +0.000 A 
ATOM     13  C   UNL     1      -1.208  11.267  20.883  0.00  0.00    +0.000 A 
ATOM     14  C   UNL     1      -0.229  10.298  20.569  0.00  0.00    +0.000 A 
BRANCH   5  16
ATOM     15  C   UNL     1      -1.317  10.097  17.522  0.00  0.00    +0.000 C 
ATOM     16  O   UNL     1      -0.293  10.791  18.233  0.00  0.00    +0.000 OA
ENDBRANCH   5  16
ENDBRANCH   1   7
BRANCH   3  17
ATOM     17  C   UNL     1       3.745   6.170  17.655  0.00  0.00    +0.000 A 
ATOM     18  C   UNL     1       4.986   6.614  17.175  0.00  0.00    +0.000 A 
ATOM     19  C   UNL     1       5.877   5.745  16.560  0.00  0.00    +0.000 A 
ATOM     20  C   UNL     1       5.520   4.420  16.366  0.00  0.00    +0.000 A 
ATOM     21  C   UNL     1       4.278   3.930  16.808  0.00  0.00    +0.000 A 
ATOM     22  C   UNL     1       3.971   2.487  16.506  0.00  0.00    +0.000 C 
ATOM     23  C   UNL     1       3.405   4.798  17.518  0.00  0.00    +0.000 A 
BRANCH  23  24
ATOM     24  C   UNL     1       2.117   4.267  18.073  0.00  0.00    +0.000 C 
ATOM     25  O   UNL     1       1.076   4.450  17.444  0.00  0.00    +0.000 OA
ATOM     26  N   UNL     1       2.109   3.641  19.317  0.00  0.00    +0.000 N 
ATOM     27  C   UNL     1       0.872   3.144  19.890  0.00  0.00    +0.000 C 
ATOM     28  C   UNL     1       1.205   3.059  21.368  0.00  0.00    +0.000 C 
ATOM     29  C   UNL     1       2.676   2.642  21.391  0.00  0.00    +0.000 C 
ATOM     30  C   UNL     1       3.231   3.022  20.016  0.00  0.00    +0.000 C 
ENDBRANCH  23  24
ENDBRANCH   3  17
TORSDOF 4
ENDMDL
MODEL 3
REMARK VINA RESULT:      -8.3      1.362      2.425
REMARK  Name = 
REMARK  6 active torsions:
REMARK  status: ('A' for Active; 'I' for Inactive)
REMARK    1  A    between atoms: C_1  and  O_2
REMARK    2  A    between atoms: O_2  and  C_3
REMARK    3  A    between atoms: C_5  and  C_6
REMARK    4  A    between atoms: N_8  and  C_9
REMARK    5  A    between atoms: C_13  and  C_14
REMARK    6  A    between atoms: C_15  and  C_16
REMARK                            x       y       z     vdW  Elec       q    Type
REMARK                         _______ _______ _______ _____ _____    ______ ____
ROOT
ATOM      1  C   UNL     1       2.302   7.517  19.358  0.00  0.00    +0.000 C 
ATOM      2  O   UNL     1       2.769   6.910  20.318  0.00  0.00    +0.000 OA
ATOM      3  N   UNL     1       2.637   7.270  18.028  0.00  0.00    +0.000 N 
ATOM      4  H   UNL     1       1.974   7.549  17.312  0.00  0.00    +0.000 HD
ENDROOT
BRANCH   1   7
ATOM      5  C   UNL     1       0.382  10.038  21.171  0.00  0.00    +0.000 A 
ATOM      6  N   UNL     1       1.198   8.999  20.903  0.00  0.00    +0.000 NA
ATOM      7  C   UNL     1       1.265   8.568  19.620  0.00  0.00    +0.000 A 
ATOM      8  C   UNL     1       0.507   9.116  18.595  0.00  0.00    +0.000 A 
ATOM      9  C   UNL     1      -0.357  10.176  18.890  0.00  0.00    +0.000 A 
ATOM     10  C   UNL     1      -1.124  10.779  17.885  0.00  0.00    +0.000 A 
ATOM     11  C   UNL     1      -1.951  11.866  18.174  0.00  0.00    +0.000 A 
ATOM     12  C   UNL     1      -2.019  12.362  19.469  0.00  0.00    +0.000 A 
ATOM     13  C   UNL     1      -1.270  11.767  20.485  0.00  0.00    +0.000 A 
ATOM     14  C   UNL     1      -0.428  10.666  20.212  0.00  0.00    +0.000 A 
BRANCH   5  16
ATOM     15  C   UNL     1      -0.117   9.536  23.397  0.00  0.00    +0.000 C 
ATOM     16  O   UNL     1       0.340  10.518  22.469  0.00  0.00    +0.000 OA
ENDBRANCH   5  16
ENDBRANCH   1   7
BRANCH   3  17
ATOM     17  C   UNL     1       3.670   6.384  17.601  0.00  0.00    +0.000 A 
ATOM     18  C   UNL     1       4.904   6.906  17.188  0.00  0.00    +0.000 A 
ATOM     19  C   UNL     1       5.910   6.083  16.699  0.00  0.00    +0.000 A 
ATOM     20  C   UNL     1       5.680   4.723  16.563  0.00  0.00    +0.000 A 
ATOM     21  C   UNL     1       4.450   4.154  16.941  0.00  0.00    +0.000 A 
ATOM     22  C   UNL     1       4.289   2.674  16.710  0.00  0.00    +0.000 C 
ATOM     23  C   UNL     1       3.455   4.981  17.527  0.00  0.00    +0.000 A 
BRANCH  23  24
ATOM     24  C   UNL     1       2.175   4.374  18.017  0.00  0.00    +0.000 C 
ATOM     25  O   UNL     1       1.162   4.480  17.328  0.00  0.00    +0.000 OA
ATOM     26  N   UNL     1       2.137   3.764  19.268  0.00  0.00    +0.000 N 
ATOM     27  C   UNL     1       0.904   3.192  19.778  0.00  0.00    +0.000 C 
ATOM     28  C   UNL     1       1.157   3.147  21.274  0.00  0.00    +0.000 C 
ATOM     29  C   UNL     1       2.648   2.828  21.385  0.00  0.00    +0.000 C 
ATOM     30  C   UNL     1       3.255   3.227  20.038  0.00  0.00    +0.000 C 
ENDBRANCH  23  24
ENDBRANCH   3  17
TORSDOF 4
ENDMDL
MODEL 4
REMARK VINA RESULT:      -8.1      1.903      3.561
REMARK  Name = 
REMARK  6 active torsions:
REMARK  status: ('A' for Active; 'I' for Inactive)
REMARK    1  A    between atoms: C_1  and  O_2
REMARK    2  A    between atoms: O_2  and  C_3
REMARK    3  A    between atoms: C_5  and  C_6
REMARK    4  A    between atoms: N_8  and  C_9
REMARK    5  A    between atoms: C_13  and  C_14
REMARK    6  A    between atoms: C_15  and  C_16
REMARK                            x       y       z     vdW  Elec       q    Type
REMARK                         _______ _______ _______ _____ _____    ______ ____
ROOT
ATOM      1  C   UNL     1       2.230   6.455  19.754  0.00  0.00    +0.000 C 
ATOM      2  O   UNL     1       2.775   5.775  20.619  0.00  0.00    +0.000 OA
ATOM      3  N   UNL     1       2.068   6.063  18.426  0.00  0.00    +0.000 N 
ATOM      4  H   UNL     1       1.328   6.501  17.889  0.00  0.00    +0.000 HD
ENDROOT
BRANCH   1   7
ATOM      5  C   UNL     1       1.039   9.891  19.430  0.00  0.00    +0.000 A 
ATOM      6  N   UNL     1       1.665   8.724  19.176  0.00  0.00    +0.000 NA
ATOM      7  C   UNL     1       1.656   7.782  20.151  0.00  0.00    +0.000 A 
ATOM      8  C   UNL     1       1.078   7.984  21.395  0.00  0.00    +0.000 A 
ATOM      9  C   UNL     1       0.455   9.209  21.658  0.00  0.00    +0.000 A 
ATOM     10  C   UNL     1      -0.166   9.451  22.889  0.00  0.00    +0.000 A 
ATOM     11  C   UNL     1      -0.826  10.657  23.132  0.00  0.00    +0.000 A 
ATOM     12  C   UNL     1      -0.873  11.633  22.145  0.00  0.00    +0.000 A 
ATOM     13  C   UNL     1      -0.251  11.414  20.916  0.00  0.00    +0.000 A 
ATOM     14  C   UNL     1       0.422  10.200  20.653  0.00  0.00    +0.000 A 
BRANCH   5  16
ATOM     15  C   UNL     1       2.255  11.496  18.247  0.00  0.00    +0.000 C 
ATOM     16  O   UNL     1       1.000  10.843  18.426  0.00  0.00    +0.000 OA
ENDBRANCH   5  16
ENDBRANCH   1   7
BRANCH   3  17
ATOM     17  C   UNL     1       2.636   4.887  17.851  0.00  0.00    +0.000 A 
ATOM     18  C   UNL     1       1.947   3.669  17.940  0.00  0.00    +0.000 A 
ATOM     19  C   UNL     1       2.497   2.490  17.456  0.00  0.00    +0.000 A 
ATOM     20  C   UNL     1       3.775   2.498  16.918  0.00  0.00    +0.000 A 
ATOM     21  C   UNL     1       4.516   3.690  16.826  0.00  0.00    +0.000 A 
ATOM     22  C   UNL     1       5.910   3.580  16.267  0.00  0.00    +0.000 C 
ATOM     23  C   UNL     1       3.918   4.911  17.238  0.00  0.00    +0.000 A 
BRANCH  23  24
ATOM     24  C   UNL     1       4.662   6.201  17.064  0.00  0.00    +0.000 C 
ATOM     25  O   UNL     1       4.216   7.047  16.291  0.00  0.00    +0.000 OA
ATOM     26  N   UNL     1       5.874   6.391  17.723  0.00  0.00    +0.000 N 
ATOM     27  C   UNL     1       6.628   7.618  17.550  0.00  0.00    +0.000 C 
ATOM     28  C   UNL     1       8.030   7.204  17.958  0.00  0.00    +0.000 C 
ATOM     29  C   UNL     1       7.801   6.201  19.090  0.00  0.00    +0.000 C 
ATOM     30  C   UNL     1       6.364   5.704  18.914  0.00  0.00    +0.000 C 
ENDBRANCH  23  24
ENDBRANCH   3  17
TORSDOF 4
ENDMDL
MODEL 5
REMARK VINA RESULT:      -7.8      1.192      2.636
REMARK  Name = 
REMARK  6 active torsions:
REMARK  status: ('A' for Active; 'I' for Inactive)
REMARK    1  A    between atoms: C_1  and  O_2
REMARK    2  A    between atoms: O_2  and  C_3
REMARK    3  A    between atoms: C_5  and  C_6
REMARK    4  A    between atoms: N_8  and  C_9
REMARK    5  A    between atoms: C_13  and  C_14
REMARK    6  A    between atoms: C_15  and  C_16
REMARK                            x       y       z     vdW  Elec       q    Type
REMARK                         _______ _______ _______ _____ _____    ______ ____
ROOT
ATOM      1  C   UNL     1       2.077   8.719  17.871  0.00  0.00    +0.000 C 
ATOM      2  O   UNL     1       2.973   9.451  17.459  0.00  0.00    +0.000 OA
ATOM      3  N   UNL     1       2.213   7.350  18.090  0.00  0.00    +0.000 N 
ATOM      4  H   UNL     1       1.572   6.907  18.739  0.00  0.00    +0.000 HD
ENDROOT
BRANCH   1   7
ATOM      5  C   UNL     1      -0.408  10.683  19.686  0.00  0.00    +0.000 A 
ATOM      6  N   UNL     1       0.712   9.992  19.393  0.00  0.00    +0.000 NA
ATOM      7  C   UNL     1       0.753   9.338  18.207  0.00  0.00    +0.000 A 
ATOM      8  C   UNL     1      -0.310   9.315  17.315  0.00  0.00    +0.000 A 
ATOM      9  C   UNL     1      -1.477  10.014  17.642  0.00  0.00    +0.000 A 
ATOM     10  C   UNL     1      -2.567  10.042  16.764  0.00  0.00    +0.000 A 
ATOM     11  C   UNL     1      -3.714  10.777  17.072  0.00  0.00    +0.000 A 
ATOM     12  C   UNL     1      -3.781  11.492  18.261  0.00  0.00    +0.000 A 
ATOM     13  C   UNL     1      -2.709  11.467  19.153  0.00  0.00    +0.000 A 
ATOM     14  C   UNL     1      -1.541  10.728  18.858  0.00  0.00    +0.000 A 
BRANCH   5  16
ATOM     15  C   UNL     1      -0.040  10.607  21.991  0.00  0.00    +0.000 C 
ATOM     16  O   UNL     1      -0.445  11.395  20.873  0.00  0.00    +0.000 OA
ENDBRANCH   5  16
ENDBRANCH   1   7
BRANCH   3  17
ATOM     17  C   UNL     1       3.360   6.579  17.733  0.00  0.00    +0.000 A 
ATOM     18  C   UNL     1       4.552   7.230  17.383  0.00  0.00    +0.000 A 
ATOM     19  C   UNL     1       5.667   6.520  16.961  0.00  0.00    +0.000 A 
ATOM     20  C   UNL     1       5.595   5.141  16.831  0.00  0.00    +0.000 A 
ATOM     21  C   UNL     1       4.415   4.443  17.148  0.00  0.00    +0.000 A 
ATOM     22  C   UNL     1       4.429   2.953  16.928  0.00  0.00    +0.000 C 
ATOM     23  C   UNL     1       3.304   5.161  17.666  0.00  0.00    +0.000 A 
BRANCH  23  24
ATOM     24  C   UNL     1       2.072   4.420  18.091  0.00  0.00    +0.000 C 
ATOM     25  O   UNL     1       1.077   4.452  17.368  0.00  0.00    +0.000 OA
ATOM     26  N   UNL     1       2.050   3.771  19.323  0.00  0.00    +0.000 N 
ATOM     27  C   UNL     1       0.861   3.070  19.772  0.00  0.00    +0.000 C 
ATOM     28  C   UNL     1       1.065   3.004  21.274  0.00  0.00    +0.000 C 
ATOM     29  C   UNL     1       2.576   2.824  21.432  0.00  0.00    +0.000 C 
ATOM     30  C   UNL     1       3.187   3.320  20.119  0.00  0.00    +0.000 C 
ENDBRANCH  23  24
ENDBRANCH   3  17
TORSDOF 4
ENDMDL
MODEL 6
REMARK VINA RESULT:      -7.8      1.986      8.353
REMARK  Name = 
REMARK  6 active torsions:
REMARK  status: ('A' for Active; 'I' for Inactive)
REMARK    1  A    between atoms: C_1  and  O_2
REMARK    2  A    between atoms: O_2  and  C_3
REMARK    3  A    between atoms: C_5  and  C_6
REMARK    4  A    between atoms: N_8  and  C_9
REMARK    5  A    between atoms: C_13  and  C_14
REMARK    6  A    between atoms: C_15  and  C_16
REMARK                            x       y       z     vdW  Elec       q    Type
REMARK                         _______ _______ _______ _____ _____    ______ ____
ROOT
ATOM      1  C   UNL     1       1.762   6.973  20.361  0.00  0.00    +0.000 C 
ATOM      2  O   UNL     1       0.984   6.282  21.013  0.00  0.00    +0.000 OA
ATOM      3  N   UNL     1       1.881   8.356  20.479  0.00  0.00    +0.000 N 
ATOM      4  H   UNL     1       2.752   8.785  20.184  0.00  0.00    +0.000 HD
ENDROOT
BRANCH   1   7
ATOM      5  C   UNL     1       3.491   4.255  18.642  0.00  0.00    +0.000 A 
ATOM      6  N   UNL     1       2.785   4.944  19.561  0.00  0.00    +0.000 NA
ATOM      7  C   UNL     1       2.685   6.286  19.399  0.00  0.00    +0.000 A 
ATOM      8  C   UNL     1       3.306   6.974  18.367  0.00  0.00    +0.000 A 
ATOM      9  C   UNL     1       4.059   6.252  17.434  0.00  0.00    +0.000 A 
ATOM     10  C   UNL     1       4.683   6.897  16.360  0.00  0.00    +0.000 A 
ATOM     11  C   UNL     1       5.396   6.169  15.405  0.00  0.00    +0.000 A 
ATOM     12  C   UNL     1       5.491   4.788  15.515  0.00  0.00    +0.000 A 
ATOM     13  C   UNL     1       4.884   4.129  16.584  0.00  0.00    +0.000 A 
ATOM     14  C   UNL     1       4.159   4.849  17.560  0.00  0.00    +0.000 A 
BRANCH   5  16
ATOM     15  C   UNL     1       4.335   2.477  19.899  0.00  0.00    +0.000 C 
ATOM     16  O   UNL     1       3.562   2.879  18.770  0.00  0.00    +0.000 OA
ENDBRANCH   5  16
ENDBRANCH   1   7
BRANCH   3  17
ATOM     17  C   UNL     1       1.021   9.182  21.264  0.00  0.00    +0.000 A 
ATOM     18  C   UNL     1       0.698   8.799  22.574  0.00  0.00    +0.000 A 
ATOM     19  C   UNL     1      -0.190   9.537  23.344  0.00  0.00    +0.000 A 
ATOM     20  C   UNL     1      -0.815  10.648  22.798  0.00  0.00    +0.000 A 
ATOM     21  C   UNL     1      -0.543  11.059  21.480  0.00  0.00    +0.000 A 
ATOM     22  C   UNL     1      -1.310  12.250  20.969  0.00  0.00    +0.000 C 
ATOM     23  C   UNL     1       0.434  10.357  20.724  0.00  0.00    +0.000 A 
BRANCH  23  24
ATOM     24  C   UNL     1       0.800  10.838  19.351  0.00  0.00    +0.000 C 
ATOM     25  O   UNL     1       0.412  10.201  18.374  0.00  0.00    +0.000 OA
ATOM     26  N   UNL     1       1.625  11.950  19.209  0.00  0.00    +0.000 N 
ATOM     27  C   UNL     1       2.017  12.419  17.892  0.00  0.00    +0.000 C 
ATOM     28  C   UNL     1       3.266  13.229  18.190  0.00  0.00    +0.000 C 
ATOM     29  C   UNL     1       2.972  13.871  19.547  0.00  0.00    +0.000 C 
ATOM     30  C   UNL     1       1.872  13.014  20.177  0.00  0.00    +0.000 C 
ENDBRANCH  23  24
ENDBRANCH   3  17
TORSDOF 4
ENDMDL
MODEL 7
REMARK VINA RESULT:      -7.7      1.391      1.709
REMARK  Name = 
REMARK  6 active torsions:
REMARK  status: ('A' for Active; 'I' for Inactive)
REMARK    1  A    between atoms: C_1  and  O_2
REMARK    2  A    between atoms: O_2  and  C_3
REMARK    3  A    between atoms: C_5  and  C_6
REMARK    4  A    between atoms: N_8  and  C_9
REMARK    5  A    between atoms: C_13  and  C_14
REMARK    6  A    between atoms: C_15  and  C_16
REMARK                            x       y       z     vdW  Elec       q    Type
REMARK                         _______ _______ _______ _____ _____    ______ ____
ROOT
ATOM      1  C   UNL     1       2.182   7.877  18.123  0.00  0.00    +0.000 C 
ATOM      2  O   UNL     1       1.377   7.284  17.410  0.00  0.00    +0.000 OA
ATOM      3  N   UNL     1       3.561   7.680  18.090  0.00  0.00    +0.000 N 
ATOM      4  H   UNL     1       4.156   8.426  18.434  0.00  0.00    +0.000 HD
ENDROOT
BRANCH   1   7
ATOM      5  C   UNL     1       1.114  11.148  19.341  0.00  0.00    +0.000 A 
ATOM      6  N   UNL     1       1.694  10.188  18.593  0.00  0.00    +0.000 NA
ATOM      7  C   UNL     1       1.661   8.919  19.067  0.00  0.00    +0.000 A 
ATOM      8  C   UNL     1       1.104   8.580  20.291  0.00  0.00    +0.000 A 
ATOM      9  C   UNL     1       0.529   9.589  21.071  0.00  0.00    +0.000 A 
ATOM     10  C   UNL     1      -0.070   9.294  22.302  0.00  0.00    +0.000 A 
ATOM     11  C   UNL     1      -0.683  10.295  23.057  0.00  0.00    +0.000 A 
ATOM     12  C   UNL     1      -0.704  11.603  22.589  0.00  0.00    +0.000 A 
ATOM     13  C   UNL     1      -0.103  11.918  21.370  0.00  0.00    +0.000 A 
ATOM     14  C   UNL     1       0.522  10.917  20.592  0.00  0.00    +0.000 A 
BRANCH   5  16
ATOM     15  C   UNL     1       2.312  12.781  18.177  0.00  0.00    +0.000 C 
ATOM     16  O   UNL     1       1.099  12.441  18.846  0.00  0.00    +0.000 OA
ENDBRANCH   5  16
ENDBRANCH   1   7
BRANCH   3  17
ATOM     17  C   UNL     1       4.220   6.666  17.333  0.00  0.00    +0.000 A 
ATOM     18  C   UNL     1       4.793   6.987  16.094  0.00  0.00    +0.000 A 
ATOM     19  C   UNL     1       5.380   6.015  15.295  0.00  0.00    +0.000 A 
ATOM     20  C   UNL     1       5.359   4.689  15.698  0.00  0.00    +0.000 A 
ATOM     21  C   UNL     1       4.776   4.312  16.922  0.00  0.00    +0.000 A 
ATOM     22  C   UNL     1       4.766   2.840  17.243  0.00  0.00    +0.000 C 
ATOM     23  C   UNL     1       4.257   5.318  17.781  0.00  0.00    +0.000 A 
BRANCH  23  24
ATOM     24  C   UNL     1       3.714   4.940  19.126  0.00  0.00    +0.000 C 
ATOM     25  O   UNL     1       4.318   5.300  20.135  0.00  0.00    +0.000 OA
ATOM     26  N   UNL     1       2.580   4.136  19.210  0.00  0.00    +0.000 N 
ATOM     27  C   UNL     1       2.050   3.733  20.499  0.00  0.00    +0.000 C 
ATOM     28  C   UNL     1       1.227   2.507  20.149  0.00  0.00    +0.000 C 
ATOM     29  C   UNL     1       0.647   2.835  18.772  0.00  0.00    +0.000 C 
ATOM     30  C   UNL     1       1.552   3.927  18.195  0.00  0.00    +0.000 C 
ENDBRANCH  23  24
ENDBRANCH   3  17
TORSDOF 4
ENDMDL
MODEL 8
REMARK VINA RESULT:      -7.5      1.770      3.231
REMARK  Name = 
REMARK  6 active torsions:
REMARK  status: ('A' for Active; 'I' for Inactive)
REMARK    1  A    between atoms: C_1  and  O_2
REMARK    2  A    between atoms: O_2  and  C_3
REMARK    3  A    between atoms: C_5  and  C_6
REMARK    4  A    between atoms: N_8  and  C_9
REMARK    5  A    between atoms: C_13  and  C_14
REMARK    6  A    between atoms: C_15  and  C_16
REMARK                            x       y       z     vdW  Elec       q    Type
REMARK                         _______ _______ _______ _____ _____    ______ ____
ROOT
ATOM      1  C   UNL     1       1.699   9.286  18.087  0.00  0.00    +0.000 C 
ATOM      2  O   UNL     1       2.613  10.100  17.981  0.00  0.00    +0.000 OA
ATOM      3  N   UNL     1       1.872   7.904  18.114  0.00  0.00    +0.000 N 
ATOM      4  H   UNL     1       1.145   7.343  18.545  0.00  0.00    +0.000 HD
ENDROOT
BRANCH   1   7
ATOM      5  C   UNL     1      -1.115  11.138  19.494  0.00  0.00    +0.000 A 
ATOM      6  N   UNL     1       0.083  10.532  19.366  0.00  0.00    +0.000 NA
ATOM      7  C   UNL     1       0.301   9.805  18.243  0.00  0.00    +0.000 A 
ATOM      8  C   UNL     1      -0.658   9.626  17.256  0.00  0.00    +0.000 A 
ATOM      9  C   UNL     1      -1.907  10.238  17.413  0.00  0.00    +0.000 A 
ATOM     10  C   UNL     1      -2.898  10.108  16.433  0.00  0.00    +0.000 A 
ATOM     11  C   UNL     1      -4.127  10.757  16.570  0.00  0.00    +0.000 A 
ATOM     12  C   UNL     1      -4.377  11.542  17.688  0.00  0.00    +0.000 A 
ATOM     13  C   UNL     1      -3.404  11.674  18.680  0.00  0.00    +0.000 A 
ATOM     14  C   UNL     1      -2.155  11.024  18.558  0.00  0.00    +0.000 A 
BRANCH   5  16
ATOM     15  C   UNL     1      -0.775  11.350  21.795  0.00  0.00    +0.000 C 
ATOM     16  O   UNL     1      -1.334  11.922  20.614  0.00  0.00    +0.000 OA
ENDBRANCH   5  16
ENDBRANCH   1   7
BRANCH   3  17
ATOM     17  C   UNL     1       3.110   7.235  17.878  0.00  0.00    +0.000 A 
ATOM     18  C   UNL     1       3.974   7.706  16.879  0.00  0.00    +0.000 A 
ATOM     19  C   UNL     1       5.154   7.042  16.571  0.00  0.00    +0.000 A 
ATOM     20  C   UNL     1       5.467   5.859  17.222  0.00  0.00    +0.000 A 
ATOM     21  C   UNL     1       4.621   5.332  18.215  0.00  0.00    +0.000 A 
ATOM     22  C   UNL     1       5.031   4.018  18.827  0.00  0.00    +0.000 C 
ATOM     23  C   UNL     1       3.461   6.059  18.594  0.00  0.00    +0.000 A 
BRANCH  23  24
ATOM     24  C   UNL     1       2.598   5.555  19.712  0.00  0.00    +0.000 C 
ATOM     25  O   UNL     1       2.592   6.162  20.781  0.00  0.00    +0.000 OA
ATOM     26  N   UNL     1       1.876   4.376  19.546  0.00  0.00    +0.000 N 
ATOM     27  C   UNL     1       1.055   3.850  20.622  0.00  0.00    +0.000 C 
ATOM     28  C   UNL     1       0.915   2.387  20.245  0.00  0.00    +0.000 C 
ATOM     29  C   UNL     1       0.850   2.406  18.717  0.00  0.00    +0.000 C 
ATOM     30  C   UNL     1       1.472   3.740  18.296  0.00  0.00    +0.000 C 
ENDBRANCH  23  24
ENDBRANCH   3  17
TORSDOF 4
ENDMDL
MODEL 9
REMARK VINA RESULT:      -7.4      2.148      4.101
REMARK  Name = 
REMARK  6 active torsions:
REMARK  status: ('A' for Active; 'I' for Inactive)
REMARK    1  A    between atoms: C_1  and  O_2
REMARK    2  A    between atoms: O_2  and  C_3
REMARK    3  A    between atoms: C_5  and  C_6
REMARK    4  A    between atoms: N_8  and  C_9
REMARK    5  A    between atoms: C_13  and  C_14
REMARK    6  A    between atoms: C_15  and  C_16
REMARK                            x       y       z     vdW  Elec       q    Type
REMARK                         _______ _______ _______ _____ _____    ______ ____
ROOT
ATOM      1  C   UNL     1       1.965   6.777  19.675  0.00  0.00    +0.000 C 
ATOM      2  O   UNL     1       2.187   6.032  20.625  0.00  0.00    +0.000 OA
ATOM      3  N   UNL     1       2.033   6.394  18.337  0.00  0.00    +0.000 N 
ATOM      4  H   UNL     1       1.511   6.939  17.660  0.00  0.00    +0.000 HD
ENDROOT
BRANCH   1   7
ATOM      5  C   UNL     1       1.001   9.724  21.603  0.00  0.00    +0.000 A 
ATOM      6  N   UNL     1       1.249   8.444  21.260  0.00  0.00    +0.000 NA
ATOM      7  C   UNL     1       1.548   8.189  19.963  0.00  0.00    +0.000 A 
ATOM      8  C   UNL     1       1.565   9.169  18.981  0.00  0.00    +0.000 A 
ATOM      9  C   UNL     1       1.279  10.490  19.344  0.00  0.00    +0.000 A 
ATOM     10  C   UNL     1       1.309  11.518  18.394  0.00  0.00    +0.000 A 
ATOM     11  C   UNL     1       1.068  12.842  18.767  0.00  0.00    +0.000 A 
ATOM     12  C   UNL     1       0.795  13.150  20.093  0.00  0.00    +0.000 A 
ATOM     13  C   UNL     1       0.750  12.137  21.052  0.00  0.00    +0.000 A 
ATOM     14  C   UNL     1       0.992  10.792  20.692  0.00  0.00    +0.000 A 
BRANCH   5  16
ATOM     15  C   UNL     1      -0.645   9.886  23.253  0.00  0.00    +0.000 C 
ATOM     16  O   UNL     1       0.740  10.005  22.933  0.00  0.00    +0.000 OA
ENDBRANCH   5  16
ENDBRANCH   1   7
BRANCH   3  17
ATOM     17  C   UNL     1       2.508   5.130  17.877  0.00  0.00    +0.000 A 
ATOM     18  C   UNL     1       1.708   3.989  18.034  0.00  0.00    +0.000 A 
ATOM     19  C   UNL     1       2.162   2.730  17.664  0.00  0.00    +0.000 A 
ATOM     20  C   UNL     1       3.452   2.581  17.177  0.00  0.00    +0.000 A 
ATOM     21  C   UNL     1       4.302   3.691  17.023  0.00  0.00    +0.000 A 
ATOM     22  C   UNL     1       5.698   3.413  16.528  0.00  0.00    +0.000 C 
ATOM     23  C   UNL     1       3.806   4.990  17.315  0.00  0.00    +0.000 A 
BRANCH  23  24
ATOM     24  C   UNL     1       4.670   6.190  17.070  0.00  0.00    +0.000 C 
ATOM     25  O   UNL     1       4.334   7.002  16.210  0.00  0.00    +0.000 OA
ATOM     26  N   UNL     1       5.867   6.330  17.768  0.00  0.00    +0.000 N 
ATOM     27  C   UNL     1       6.736   7.467  17.530  0.00  0.00    +0.000 C 
ATOM     28  C   UNL     1       8.077   6.969  18.037  0.00  0.00    +0.000 C 
ATOM     29  C   UNL     1       7.713   6.092  19.236  0.00  0.00    +0.000 C 
ATOM     30  C   UNL     1       6.245   5.709  19.034  0.00  0.00    +0.000 C 
ENDBRANCH  23  24
ENDBRANCH   3  17
TORSDOF 4
ENDMDL
