MODEL 1
REMARK VINA RESULT:      -8.5      0.000      0.000
REMARK  Name = 
REMARK  4 active torsions:
REMARK  status: ('A' for Active; 'I' for Inactive)
REMARK    1  A    between atoms: C_1  and  C_2
REMARK    2  A    between atoms: C_5  and  C_6
REMARK    3  A    between atoms: N_8  and  C_9
REMARK    4  A    between atoms: C_11  and  C_12
REMARK                            x       y       z     vdW  Elec       q    Type
REMARK                         _______ _______ _______ _____ _____    ______ ____
ROOT
ATOM      1  C   UNL     1       8.153   8.396  18.000  0.00  0.00    +0.000 A 
ATOM      2  C   UNL     1       7.126   7.769  17.340  0.00  0.00    +0.000 A 
ATOM      3  C   UNL     1       6.967   6.506  17.973  0.00  0.00    +0.000 A 
ATOM      4  N   UNL     1       7.851   6.367  18.975  0.00  0.00    +0.000 NA
ATOM      5  N   UNL     1       8.583   7.492  18.933  0.00  0.00    +0.000 N 
ATOM      6  H   UNL     1       9.333   7.595  19.608  0.00  0.00    +0.000 HD
ENDROOT
BRANCH   3   7
ATOM      7  C   UNL     1       5.995   5.466  17.647  0.00  0.00    +0.000 A 
ATOM      8  C   UNL     1       6.027   4.831  16.395  0.00  0.00    +0.000 A 
ATOM      9  C   UNL     1       5.107   3.823  16.082  0.00  0.00    +0.000 A 
ATOM     10  C   UNL     1       4.141   3.446  17.014  0.00  0.00    +0.000 A 
ATOM     11  C   UNL     1       4.106   4.076  18.253  0.00  0.00    +0.000 A 
ATOM     12  F   UNL     1       3.176   3.711  19.147  0.00  0.00    +0.000 F 
ATOM     13  C   UNL     1       5.023   5.073  18.572  0.00  0.00    +0.000 A 
ATOM     14  F   UNL     1       4.947   5.657  19.779  0.00  0.00    +0.000 F 
ENDBRANCH   3   7
BRANCH   1  17
ATOM     15  C   UNL     1       9.210  10.481  18.838  0.00  0.00    +0.000 C 
ATOM     16  O   UNL     1       9.254  10.102  19.997  0.00  0.00    +0.000 OA
ATOM     17  N   UNL     1       8.683   9.657  17.787  0.00  0.00    +0.000 N 
ATOM     18  H   UNL     1       8.732  10.012  16.827  0.00  0.00    +0.000 HD
BRANCH  15  23
ATOM     19  C   UNL     1      11.307  15.576  17.042  0.00  0.00    +0.000 C 
ATOM     20  C   UNL     1      10.812  14.249  17.531  0.00  0.00    +0.000 A 
ATOM     21  C   UNL     1      11.553  13.395  18.252  0.00  0.00    +0.000 A 
ATOM     22  C   UNL     1      10.995  12.134  18.686  0.00  0.00    +0.000 A 
ATOM     23  C   UNL     1       9.732  11.784  18.373  0.00  0.00    +0.000 A 
ATOM     24  C   UNL     1       8.921  12.722  17.557  0.00  0.00    +0.000 A 
ATOM     25  O   UNL     1       7.775  12.427  17.220  0.00  0.00    +0.000 OA
ATOM     26  N   UNL     1       9.517  13.905  17.202  0.00  0.00    +0.000 N 
ATOM     27  H   UNL     1       8.956  14.548  16.652  0.00  0.00    +0.000 HD
ENDBRANCH  15  23
ENDBRANCH   1  17
TORSDOF 3
ENDMDL
MODEL 2
REMARK VINA RESULT:      -8.3      1.513      1.800
REMARK  Name = 
REMARK  4 active torsions:
REMARK  status: ('A' for Active; 'I' for Inactive)
REMARK    1  A    between atoms: C_1  and  C_2
REMARK    2  A    between atoms: C_5  and  C_6
REMARK    3  A    between atoms: N_8  and  C_9
REMARK    4  A    between atoms: C_11  and  C_12
REMARK                            x       y       z     vdW  Elec       q    Type
REMARK                         _______ _______ _______ _____ _____    ______ ____
ROOT
ATOM      1  C   UNL     1       8.299   8.614  18.034  0.00  0.00    +0.000 A 
ATOM      2  C   UNL     1       7.351   7.966  17.283  0.00  0.00    +0.000 A 
ATOM      3  C   UNL     1       7.178   6.690  17.886  0.00  0.00    +0.000 A 
ATOM      4  N   UNL     1       7.978   6.565  18.959  0.00  0.00    +0.000 NA
ATOM      5  N   UNL     1       8.675   7.712  18.992  0.00  0.00    +0.000 N 
ATOM      6  H   UNL     1       9.362   7.829  19.729  0.00  0.00    +0.000 HD
ENDROOT
BRANCH   3   7
ATOM      7  C   UNL     1       6.271   5.626  17.469  0.00  0.00    +0.000 A 
ATOM      8  C   UNL     1       5.145   5.306  18.246  0.00  0.00    +0.000 A 
ATOM      9  C   UNL     1       4.264   4.295  17.843  0.00  0.00    +0.000 A 
ATOM     10  C   UNL     1       4.502   3.590  16.665  0.00  0.00    +0.000 A 
ATOM     11  C   UNL     1       5.617   3.904  15.895  0.00  0.00    +0.000 A 
ATOM     12  F   UNL     1       5.843   3.224  14.763  0.00  0.00    +0.000 F 
ATOM     13  C   UNL     1       6.493   4.911  16.287  0.00  0.00    +0.000 A 
ATOM     14  F   UNL     1       7.559   5.176  15.515  0.00  0.00    +0.000 F 
ENDBRANCH   3   7
BRANCH   1  17
ATOM     15  C   UNL     1       9.273  10.696  18.976  0.00  0.00    +0.000 C 
ATOM     16  O   UNL     1       9.283  10.281  20.124  0.00  0.00    +0.000 OA
ATOM     17  N   UNL     1       8.806   9.894  17.881  0.00  0.00    +0.000 N 
ATOM     18  H   UNL     1       8.882  10.280  16.935  0.00  0.00    +0.000 HD
BRANCH  15  23
ATOM     19  C   UNL     1      11.310  15.894  17.422  0.00  0.00    +0.000 C 
ATOM     20  C   UNL     1      10.828  14.543  17.853  0.00  0.00    +0.000 A 
ATOM     21  C   UNL     1      11.526  13.719  18.649  0.00  0.00    +0.000 A 
ATOM     22  C   UNL     1      10.984  12.431  19.018  0.00  0.00    +0.000 A 
ATOM     23  C   UNL     1       9.780  12.024  18.571  0.00  0.00    +0.000 A 
ATOM     24  C   UNL     1       9.018  12.929  17.674  0.00  0.00    +0.000 A 
ATOM     25  O   UNL     1       7.930  12.584  17.216  0.00  0.00    +0.000 OA
ATOM     26  N   UNL     1       9.593  14.141  17.387  0.00  0.00    +0.000 N 
ATOM     27  H   UNL     1       9.065  14.761  16.780  0.00  0.00    +0.000 HD
ENDBRANCH  15  23
ENDBRANCH   1  17
TORSDOF 3
ENDMDL
MODEL 3
REMARK VINA RESULT:      -7.9      1.798      2.247
REMARK  Name = 
REMARK  4 active torsions:
REMARK  status: ('A' for Active; 'I' for Inactive)
REMARK    1  A    between atoms: C_1  and  C_2
REMARK    2  A    between atoms: C_5  and  C_6
REMARK    3  A    between atoms: N_8  and  C_9
REMARK    4  A    between atoms: C_11  and  C_12
REMARK                            x       y       z     vdW  Elec       q    Type
REMARK                         _______ _______ _______ _____ _____    ______ ____
ROOT
ATOM      1  C   UNL     1       8.258   8.683  18.028  0.00  0.00    +0.000 A 
ATOM      2  C   UNL     1       7.312   8.017  17.291  0.00  0.00    +0.000 A 
ATOM      3  C   UNL     1       7.190   6.729  17.881  0.00  0.00    +0.000 A 
ATOM      4  N   UNL     1       8.017   6.614  18.933  0.00  0.00    +0.000 NA
ATOM      5  N   UNL     1       8.682   7.781  18.965  0.00  0.00    +0.000 N 
ATOM      6  H   UNL     1       9.382   7.909  19.688  0.00  0.00    +0.000 HD
ENDROOT
BRANCH   3   7
ATOM      7  C   UNL     1       6.304   5.644  17.470  0.00  0.00    +0.000 A 
ATOM      8  C   UNL     1       5.219   5.268  18.279  0.00  0.00    +0.000 A 
ATOM      9  C   UNL     1       4.358   4.237  17.883  0.00  0.00    +0.000 A 
ATOM     10  C   UNL     1       4.577   3.567  16.681  0.00  0.00    +0.000 A 
ATOM     11  C   UNL     1       5.652   3.936  15.880  0.00  0.00    +0.000 A 
ATOM     12  F   UNL     1       5.861   3.290  14.725  0.00  0.00    +0.000 F 
ATOM     13  C   UNL     1       6.507   4.964  16.265  0.00  0.00    +0.000 A 
ATOM     14  F   UNL     1       7.536   5.283  15.463  0.00  0.00    +0.000 F 
ENDBRANCH   3   7
BRANCH   1  17
ATOM     15  C   UNL     1       9.276  10.749  18.958  0.00  0.00    +0.000 C 
ATOM     16  O   UNL     1       9.403  10.290  20.082  0.00  0.00    +0.000 OA
ATOM     17  N   UNL     1       8.723   9.979  17.880  0.00  0.00    +0.000 N 
ATOM     18  H   UNL     1       8.703  10.403  16.948  0.00  0.00    +0.000 HD
BRANCH  15  23
ATOM     19  C   UNL     1      10.951  16.076  17.407  0.00  0.00    +0.000 C 
ATOM     20  C   UNL     1      10.467  14.716  17.809  0.00  0.00    +0.000 A 
ATOM     21  C   UNL     1       9.181  14.422  18.052  0.00  0.00    +0.000 A 
ATOM     22  C   UNL     1       8.800  13.081  18.434  0.00  0.00    +0.000 A 
ATOM     23  C   UNL     1       9.718  12.103  18.562  0.00  0.00    +0.000 A 
ATOM     24  C   UNL     1      11.143  12.436  18.313  0.00  0.00    +0.000 A 
ATOM     25  O   UNL     1      12.018  11.582  18.452  0.00  0.00    +0.000 OA
ATOM     26  N   UNL     1      11.419  13.726  17.937  0.00  0.00    +0.000 N 
ATOM     27  H   UNL     1      12.394  13.947  17.758  0.00  0.00    +0.000 HD
ENDBRANCH  15  23
ENDBRANCH   1  17
TORSDOF 3
ENDMDL
MODEL 4
REMARK VINA RESULT:      -7.9      5.783      8.237
REMARK  Name = 
REMARK  4 active torsions:
REMARK  status: ('A' for Active; 'I' for Inactive)
REMARK    1  A    between atoms: C_1  and  C_2
REMARK    2  A    between atoms: C_5  and  C_6
REMARK    3  A    between atoms: N_8  and  C_9
REMARK    4  A    between atoms: C_11  and  C_12
REMARK                            x       y       z     vdW  Elec       q    Type
REMARK                         _______ _______ _______ _____ _____    ______ ____
ROOT
ATOM      1  C   UNL     1       2.912   6.782  18.748  0.00  0.00    +0.000 A 
ATOM      2  C   UNL     1       2.254   7.971  18.940  0.00  0.00    +0.000 A 
ATOM      3  C   UNL     1       1.634   7.874  20.215  0.00  0.00    +0.000 A 
ATOM      4  N   UNL     1       1.904   6.686  20.780  0.00  0.00    +0.000 NA
ATOM      5  N   UNL     1       2.626   6.032  19.856  0.00  0.00    +0.000 N 
ATOM      6  H   UNL     1       2.933   5.090  20.073  0.00  0.00    +0.000 HD
ENDROOT
BRANCH   3   7
ATOM      7  C   UNL     1       0.823   8.885  20.887  0.00  0.00    +0.000 A 
ATOM      8  C   UNL     1       0.781   8.946  22.290  0.00  0.00    +0.000 A 
ATOM      9  C   UNL     1       0.015   9.921  22.939  0.00  0.00    +0.000 A 
ATOM     10  C   UNL     1      -0.721  10.841  22.195  0.00  0.00    +0.000 A 
ATOM     11  C   UNL     1      -0.683  10.781  20.806  0.00  0.00    +0.000 A 
ATOM     12  F   UNL     1      -1.392  11.666  20.093  0.00  0.00    +0.000 F 
ATOM     13  C   UNL     1       0.082   9.818  20.155  0.00  0.00    +0.000 A 
ATOM     14  F   UNL     1       0.084   9.795  18.812  0.00  0.00    +0.000 F 
ENDBRANCH   3   7
BRANCH   1  17
ATOM     15  C   UNL     1       4.938   5.686  17.819  0.00  0.00    +0.000 C 
ATOM     16  O   UNL     1       5.382   5.374  18.911  0.00  0.00    +0.000 OA
ATOM     17  N   UNL     1       3.690   6.380  17.675  0.00  0.00    +0.000 N 
ATOM     18  H   UNL     1       3.344   6.558  16.726  0.00  0.00    +0.000 HD
BRANCH  15  23
ATOM     19  C   UNL     1       7.435   4.330  12.768  0.00  0.00    +0.000 C 
ATOM     20  C   UNL     1       6.748   4.650  14.060  0.00  0.00    +0.000 A 
ATOM     21  C   UNL     1       5.539   4.179  14.400  0.00  0.00    +0.000 A 
ATOM     22  C   UNL     1       4.948   4.536  15.670  0.00  0.00    +0.000 A 
ATOM     23  C   UNL     1       5.587   5.349  16.534  0.00  0.00    +0.000 A 
ATOM     24  C   UNL     1       6.916   5.885  16.147  0.00  0.00    +0.000 A 
ATOM     25  O   UNL     1       7.519   6.658  16.891  0.00  0.00    +0.000 OA
ATOM     26  N   UNL     1       7.415   5.483  14.934  0.00  0.00    +0.000 N 
ATOM     27  H   UNL     1       8.328   5.845  14.677  0.00  0.00    +0.000 HD
ENDBRANCH  15  23
ENDBRANCH   1  17
TORSDOF 3
ENDMDL
MODEL 5
REMARK VINA RESULT:      -7.7      1.445      1.770
REMARK  Name = 
REMARK  4 active torsions:
REMARK  status: ('A' for Active; 'I' for Inactive)
REMARK    1  A    between atoms: C_1  and  C_2
REMARK    2  A    between atoms: C_5  and  C_6
REMARK    3  A    between atoms: N_8  and  C_9
REMARK    4  A    between atoms: C_11  and  C_12
REMARK                            x       y       z     vdW  Elec       q    Type
REMARK                         _______ _______ _______ _____ _____    ______ ____
ROOT
ATOM      1  C   UNL     1       8.408   8.828  18.145  0.00  0.00    +0.000 A 
ATOM      2  C   UNL     1       7.538   8.233  17.268  0.00  0.00    +0.000 A 
ATOM      3  C   UNL     1       7.342   6.908  17.747  0.00  0.00    +0.000 A 
ATOM      4  N   UNL     1       8.054   6.704  18.868  0.00  0.00    +0.000 NA
ATOM      5  N   UNL     1       8.724   7.854  19.053  0.00  0.00    +0.000 N 
ATOM      6  H   UNL     1       9.346   7.917  19.851  0.00  0.00    +0.000 HD
ENDROOT
BRANCH   3   7
ATOM      7  C   UNL     1       6.493   5.871  17.169  0.00  0.00    +0.000 A 
ATOM      8  C   UNL     1       7.026   4.941  16.261  0.00  0.00    +0.000 A 
ATOM      9  C   UNL     1       6.220   3.935  15.715  0.00  0.00    +0.000 A 
ATOM     10  C   UNL     1       4.873   3.854  16.062  0.00  0.00    +0.000 A 
ATOM     11  C   UNL     1       4.343   4.776  16.959  0.00  0.00    +0.000 A 
ATOM     12  F   UNL     1       3.047   4.695  17.291  0.00  0.00    +0.000 F 
ATOM     13  C   UNL     1       5.141   5.773  17.511  0.00  0.00    +0.000 A 
ATOM     14  F   UNL     1       4.584   6.644  18.368  0.00  0.00    +0.000 F 
ENDBRANCH   3   7
BRANCH   1  17
ATOM     15  C   UNL     1       9.274  10.831  19.332  0.00  0.00    +0.000 C 
ATOM     16  O   UNL     1       9.213  10.316  20.437  0.00  0.00    +0.000 OA
ATOM     17  N   UNL     1       8.899  10.123  18.141  0.00  0.00    +0.000 N 
ATOM     18  H   UNL     1       9.034  10.592  17.240  0.00  0.00    +0.000 HD
BRANCH  15  23
ATOM     19  C   UNL     1      11.216  16.198  18.327  0.00  0.00    +0.000 C 
ATOM     20  C   UNL     1      10.668  14.824  18.563  0.00  0.00    +0.000 A 
ATOM     21  C   UNL     1       9.433  14.440  18.206  0.00  0.00    +0.000 A 
ATOM     22  C   UNL     1       8.984  13.092  18.470  0.00  0.00    +0.000 A 
ATOM     23  C   UNL     1       9.783  12.196  19.082  0.00  0.00    +0.000 A 
ATOM     24  C   UNL     1      11.142  12.629  19.495  0.00  0.00    +0.000 A 
ATOM     25  O   UNL     1      11.891  11.854  20.087  0.00  0.00    +0.000 OA
ATOM     26  N   UNL     1      11.497  13.918  19.191  0.00  0.00    +0.000 N 
ATOM     27  H   UNL     1      12.431  14.208  19.467  0.00  0.00    +0.000 HD
ENDBRANCH  15  23
ENDBRANCH   1  17
TORSDOF 3
ENDMDL
MODEL 6
REMARK VINA RESULT:      -7.7      6.444      8.058
REMARK  Name = 
REMARK  4 active torsions:
REMARK  status: ('A' for Active; 'I' for Inactive)
REMARK    1  A    between atoms: C_1  and  C_2
REMARK    2  A    between atoms: C_5  and  C_6
REMARK    3  A    between atoms: N_8  and  C_9
REMARK    4  A    between atoms: C_11  and  C_12
REMARK                            x       y       z     vdW  Elec       q    Type
REMARK                         _______ _______ _______ _____ _____    ______ ____
ROOT
ATOM      1  C   UNL     1       2.226   7.484  19.444  0.00  0.00    +0.000 A 
ATOM      2  C   UNL     1       3.114   7.335  18.409  0.00  0.00    +0.000 A 
ATOM      3  C   UNL     1       3.778   6.098  18.636  0.00  0.00    +0.000 A 
ATOM      4  N   UNL     1       3.314   5.514  19.753  0.00  0.00    +0.000 NA
ATOM      5  N   UNL     1       2.424   6.392  20.244  0.00  0.00    +0.000 N 
ATOM      6  H   UNL     1       1.952   6.155  21.110  0.00  0.00    +0.000 HD
ENDROOT
BRANCH   3   7
ATOM      7  C   UNL     1       4.810   5.479  17.810  0.00  0.00    +0.000 A 
ATOM      8  C   UNL     1       4.541   5.137  16.474  0.00  0.00    +0.000 A 
ATOM      9  C   UNL     1       5.531   4.556  15.673  0.00  0.00    +0.000 A 
ATOM     10  C   UNL     1       6.796   4.303  16.200  0.00  0.00    +0.000 A 
ATOM     11  C   UNL     1       7.064   4.639  17.523  0.00  0.00    +0.000 A 
ATOM     12  F   UNL     1       8.281   4.395  18.027  0.00  0.00    +0.000 F 
ATOM     13  C   UNL     1       6.086   5.223  18.322  0.00  0.00    +0.000 A 
ATOM     14  F   UNL     1       6.388   5.525  19.595  0.00  0.00    +0.000 F 
ENDBRANCH   3   7
BRANCH   1  17
ATOM     15  C   UNL     1       0.992   8.989  20.986  0.00  0.00    +0.000 C 
ATOM     16  O   UNL     1       1.520   8.542  21.992  0.00  0.00    +0.000 OA
ATOM     17  N   UNL     1       1.322   8.507  19.675  0.00  0.00    +0.000 N 
ATOM     18  H   UNL     1       0.889   8.969  18.870  0.00  0.00    +0.000 HD
BRANCH  15  23
ATOM     19  C   UNL     1      -2.855  13.323  20.934  0.00  0.00    +0.000 C 
ATOM     20  C   UNL     1      -1.862  12.202  20.894  0.00  0.00    +0.000 A 
ATOM     21  C   UNL     1      -1.430  11.627  19.762  0.00  0.00    +0.000 A 
ATOM     22  C   UNL     1      -0.467  10.550  19.814  0.00  0.00    +0.000 A 
ATOM     23  C   UNL     1       0.012  10.095  20.988  0.00  0.00    +0.000 A 
ATOM     24  C   UNL     1      -0.484  10.720  22.241  0.00  0.00    +0.000 A 
ATOM     25  O   UNL     1      -0.100  10.313  23.336  0.00  0.00    +0.000 OA
ATOM     26  N   UNL     1      -1.382  11.748  22.105  0.00  0.00    +0.000 N 
ATOM     27  H   UNL     1      -1.711  12.179  22.963  0.00  0.00    +0.000 HD
ENDBRANCH  15  23
ENDBRANCH   1  17
TORSDOF 3
ENDMDL
MODEL 7
REMARK VINA RESULT:      -7.6      7.341      8.842
REMARK  Name = 
REMARK  4 active torsions:
REMARK  status: ('A' for Active; 'I' for Inactive)
REMARK    1  A    between atoms: C_1  and  C_2
REMARK    2  A    between atoms: C_5  and  C_6
REMARK    3  A    between atoms: N_8  and  C_9
REMARK    4  A    between atoms: C_11  and  C_12
REMARK                            x       y       z     vdW  Elec       q    Type
REMARK                         _______ _______ _______ _____ _____    ______ ____
ROOT
ATOM      1  C   UNL     1       1.243   9.131  19.133  0.00  0.00    +0.000 A 
ATOM      2  C   UNL     1       1.912   7.937  19.237  0.00  0.00    +0.000 A 
ATOM      3  C   UNL     1       2.702   7.826  18.060  0.00  0.00    +0.000 A 
ATOM      4  N   UNL     1       2.530   8.903  17.276  0.00  0.00    +0.000 NA
ATOM      5  N   UNL     1       1.611   9.642  17.918  0.00  0.00    +0.000 N 
ATOM      6  H   UNL     1       1.317  10.512  17.488  0.00  0.00    +0.000 HD
ENDROOT
BRANCH   3   7
ATOM      7  C   UNL     1       3.605   6.739  17.696  0.00  0.00    +0.000 A 
ATOM      8  C   UNL     1       4.943   7.008  17.363  0.00  0.00    +0.000 A 
ATOM      9  C   UNL     1       5.817   5.967  17.027  0.00  0.00    +0.000 A 
ATOM     10  C   UNL     1       5.363   4.650  17.012  0.00  0.00    +0.000 A 
ATOM     11  C   UNL     1       4.038   4.382  17.339  0.00  0.00    +0.000 A 
ATOM     12  F   UNL     1       3.603   3.114  17.324  0.00  0.00    +0.000 F 
ATOM     13  C   UNL     1       3.166   5.411  17.681  0.00  0.00    +0.000 A 
ATOM     14  F   UNL     1       1.894   5.105  17.984  0.00  0.00    +0.000 F 
ENDBRANCH   3   7
BRANCH   1  17
ATOM     15  C   UNL     1       0.104  11.129  20.069  0.00  0.00    +0.000 C 
ATOM     16  O   UNL     1       0.620  11.906  19.282  0.00  0.00    +0.000 OA
ATOM     17  N   UNL     1       0.367   9.719  20.029  0.00  0.00    +0.000 N 
ATOM     18  H   UNL     1      -0.147   9.115  20.678  0.00  0.00    +0.000 HD
BRANCH  15  23
ATOM     19  C   UNL     1      -3.771  12.716  24.076  0.00  0.00    +0.000 C 
ATOM     20  C   UNL     1      -2.798  12.333  23.003  0.00  0.00    +0.000 A 
ATOM     21  C   UNL     1      -2.931  12.681  21.714  0.00  0.00    +0.000 A 
ATOM     22  C   UNL     1      -1.942  12.269  20.743  0.00  0.00    +0.000 A 
ATOM     23  C   UNL     1      -0.877  11.527  21.101  0.00  0.00    +0.000 A 
ATOM     24  C   UNL     1      -0.742  11.125  22.525  0.00  0.00    +0.000 A 
ATOM     25  O   UNL     1       0.196  10.419  22.889  0.00  0.00    +0.000 OA
ATOM     26  N   UNL     1      -1.712  11.572  23.386  0.00  0.00    +0.000 N 
ATOM     27  H   UNL     1      -1.612  11.304  24.360  0.00  0.00    +0.000 HD
ENDBRANCH  15  23
ENDBRANCH   1  17
TORSDOF 3
ENDMDL
MODEL 8
REMARK VINA RESULT:      -7.6      6.055      8.766
REMARK  Name = 
REMARK  4 active torsions:
REMARK  status: ('A' for Active; 'I' for Inactive)
REMARK    1  A    between atoms: C_1  and  C_2
REMARK    2  A    between atoms: C_5  and  C_6
REMARK    3  A    between atoms: N_8  and  C_9
REMARK    4  A    between atoms: C_11  and  C_12
REMARK                            x       y       z     vdW  Elec       q    Type
REMARK                         _______ _______ _______ _____ _____    ______ ____
ROOT
ATOM      1  C   UNL     1       2.352   7.514  19.205  0.00  0.00    +0.000 A 
ATOM      2  C   UNL     1       1.837   8.784  19.277  0.00  0.00    +0.000 A 
ATOM      3  C   UNL     1       1.239   8.893  20.562  0.00  0.00    +0.000 A 
ATOM      4  N   UNL     1       1.386   7.746  21.247  0.00  0.00    +0.000 NA
ATOM      5  N   UNL     1       2.009   6.922  20.390  0.00  0.00    +0.000 N 
ATOM      6  H   UNL     1       2.211   5.978  20.702  0.00  0.00    +0.000 HD
ENDROOT
BRANCH   3   7
ATOM      7  C   UNL     1       0.563  10.054  21.132  0.00  0.00    +0.000 A 
ATOM      8  C   UNL     1       0.895  11.350  20.704  0.00  0.00    +0.000 A 
ATOM      9  C   UNL     1       0.239  12.467  21.236  0.00  0.00    +0.000 A 
ATOM     10  C   UNL     1      -0.747  12.302  22.206  0.00  0.00    +0.000 A 
ATOM     11  C   UNL     1      -1.076  11.019  22.633  0.00  0.00    +0.000 A 
ATOM     12  F   UNL     1      -2.024  10.863  23.566  0.00  0.00    +0.000 F 
ATOM     13  C   UNL     1      -0.433   9.905  22.103  0.00  0.00    +0.000 A 
ATOM     14  F   UNL     1      -0.778   8.687  22.549  0.00  0.00    +0.000 F 
ENDBRANCH   3   7
BRANCH   1  17
ATOM     15  C   UNL     1       4.091   5.945  18.380  0.00  0.00    +0.000 C 
ATOM     16  O   UNL     1       4.400   5.556  19.495  0.00  0.00    +0.000 OA
ATOM     17  N   UNL     1       3.055   6.916  18.173  0.00  0.00    +0.000 N 
ATOM     18  H   UNL     1       2.803   7.153  17.208  0.00  0.00    +0.000 HD
BRANCH  15  23
ATOM     19  C   UNL     1       6.426   3.901  13.486  0.00  0.00    +0.000 C 
ATOM     20  C   UNL     1       5.799   4.382  14.759  0.00  0.00    +0.000 A 
ATOM     21  C   UNL     1       4.980   3.637  15.516  0.00  0.00    +0.000 A 
ATOM     22  C   UNL     1       4.419   4.179  16.733  0.00  0.00    +0.000 A 
ATOM     23  C   UNL     1       4.694   5.437  17.130  0.00  0.00    +0.000 A 
ATOM     24  C   UNL     1       5.584   6.267  16.278  0.00  0.00    +0.000 A 
ATOM     25  O   UNL     1       5.834   7.431  16.585  0.00  0.00    +0.000 OA
ATOM     26  N   UNL     1       6.090   5.672  15.151  0.00  0.00    +0.000 N 
ATOM     27  H   UNL     1       6.706   6.239  14.576  0.00  0.00    +0.000 HD
ENDBRANCH  15  23
ENDBRANCH   1  17
TORSDOF 3
ENDMDL
MODEL 9
REMARK VINA RESULT:      -7.6      6.466      9.030
REMARK  Name = 
REMARK  4 active torsions:
REMARK  status: ('A' for Active; 'I' for Inactive)
REMARK    1  A    between atoms: C_1  and  C_2
REMARK    2  A    between atoms: C_5  and  C_6
REMARK    3  A    between atoms: N_8  and  C_9
REMARK    4  A    between atoms: C_11  and  C_12
REMARK                            x       y       z     vdW  Elec       q    Type
REMARK                         _______ _______ _______ _____ _____    ______ ____
ROOT
ATOM      1  C   UNL     1       2.219   7.499  19.312  0.00  0.00    +0.000 A 
ATOM      2  C   UNL     1       1.723   8.778  19.367  0.00  0.00    +0.000 A 
ATOM      3  C   UNL     1       1.156   8.923  20.662  0.00  0.00    +0.000 A 
ATOM      4  N   UNL     1       1.302   7.791  21.370  0.00  0.00    +0.000 NA
ATOM      5  N   UNL     1       1.895   6.939  20.518  0.00  0.00    +0.000 N 
ATOM      6  H   UNL     1       2.092   5.999  20.846  0.00  0.00    +0.000 HD
ENDROOT
BRANCH   3   7
ATOM      7  C   UNL     1       0.508  10.106  21.220  0.00  0.00    +0.000 A 
ATOM      8  C   UNL     1       0.882  11.391  20.791  0.00  0.00    +0.000 A 
ATOM      9  C   UNL     1       0.254  12.528  21.312  0.00  0.00    +0.000 A 
ATOM     10  C   UNL     1      -0.747  12.396  22.272  0.00  0.00    +0.000 A 
ATOM     11  C   UNL     1      -1.118  11.125  22.700  0.00  0.00    +0.000 A 
ATOM     12  F   UNL     1      -2.080  11.000  23.624  0.00  0.00    +0.000 F 
ATOM     13  C   UNL     1      -0.502   9.991  22.181  0.00  0.00    +0.000 A 
ATOM     14  F   UNL     1      -0.888   8.785  22.628  0.00  0.00    +0.000 F 
ENDBRANCH   3   7
BRANCH   1  17
ATOM     15  C   UNL     1       4.000   5.981  18.481  0.00  0.00    +0.000 C 
ATOM     16  O   UNL     1       4.406   5.697  19.596  0.00  0.00    +0.000 OA
ATOM     17  N   UNL     1       2.890   6.869  18.278  0.00  0.00    +0.000 N 
ATOM     18  H   UNL     1       2.561   7.017  17.319  0.00  0.00    +0.000 HD
BRANCH  15  23
ATOM     19  C   UNL     1       6.174   3.824  13.561  0.00  0.00    +0.000 C 
ATOM     20  C   UNL     1       5.623   4.432  14.815  0.00  0.00    +0.000 A 
ATOM     21  C   UNL     1       5.602   5.750  15.060  0.00  0.00    +0.000 A 
ATOM     22  C   UNL     1       5.048   6.252  16.298  0.00  0.00    +0.000 A 
ATOM     23  C   UNL     1       4.551   5.417  17.231  0.00  0.00    +0.000 A 
ATOM     24  C   UNL     1       4.594   3.957  16.966  0.00  0.00    +0.000 A 
ATOM     25  O   UNL     1       4.183   3.157  17.805  0.00  0.00    +0.000 OA
ATOM     26  N   UNL     1       5.118   3.564  15.760  0.00  0.00    +0.000 N 
ATOM     27  H   UNL     1       5.137   2.564  15.579  0.00  0.00    +0.000 HD
ENDBRANCH  15  23
ENDBRANCH   1  17
TORSDOF 3
ENDMDL
