MODEL 1
REMARK VINA RESULT:      -9.9      0.000      0.000
REMARK  Name = 
REMARK  4 active torsions:
REMARK  status: ('A' for Active; 'I' for Inactive)
REMARK    1  A    between atoms: C_2  and  O_3
REMARK    2  A    between atoms: C_2  and  C_13
REMARK    3  A    between atoms: O_3  and  C_4
REMARK    4  A    between atoms: C_4  and  C_5
REMARK                            x       y       z     vdW  Elec       q    Type
REMARK                         _______ _______ _______ _____ _____    ______ ____
ROOT
ATOM      1  C   UNL     1       4.177   5.616  18.481  0.00  0.00    +0.000 A 
ATOM      2  C   UNL     1       4.083   6.436  17.351  0.00  0.00    +0.000 A 
ATOM      3  C   UNL     1       3.270   7.537  17.379  0.00  0.00    +0.000 A 
ATOM      4  C   UNL     1       2.540   7.825  18.531  0.00  0.00    +0.000 A 
ATOM      5  C   UNL     1       1.751   9.016  18.499  0.00  0.00    +0.000 A 
ATOM      6  O   UNL     1       1.707   9.667  17.458  0.00  0.00    +0.000 OA
ATOM      7  N   UNL     1       1.097   9.388  19.658  0.00  0.00    +0.000 N 
ATOM      8  C   UNL     1       1.090   8.584  20.816  0.00  0.00    +0.000 A 
ATOM      9  N   UNL     1       1.776   7.457  20.837  0.00  0.00    +0.000 NA
ATOM     10  C   UNL     1       2.554   7.051  19.691  0.00  0.00    +0.000 A 
ATOM     11  C   UNL     1       3.393   5.907  19.645  0.00  0.00    +0.000 A 
ATOM     12  C   UNL     1       0.228   8.929  22.265  0.00  0.00    +0.000 C 
ATOM     13  C   UNL     1      -0.770  10.085  22.973  0.00  0.00    +0.000 C 
ATOM     14  C   UNL     1      -1.450  11.484  22.462  0.00  0.00    +0.000 C 
ATOM     15  C   UNL     1      -1.107  12.049  21.070  0.00  0.00    +0.000 C 
ATOM     16  C   UNL     1      -0.240  10.965  20.643  0.00  0.00    +0.000 C 
ATOM     17  C   UNL     1       0.481  10.703  19.429  0.00  0.00    +0.000 C 
ENDROOT
BRANCH   1  19
ATOM     18  O   UNL     1       6.150   4.341  19.085  0.00  0.00    +0.000 OA
ATOM     19  C   UNL     1       5.156   4.487  18.396  0.00  0.00    +0.000 C 
BRANCH  19  20
ATOM     20  O   UNL     1       4.741   3.638  17.409  0.00  0.00    +0.000 OA
BRANCH  20  21
ATOM     21  C   UNL     1       3.806   2.598  17.701  0.00  0.00    +0.000 C 
BRANCH  21  22
ATOM     22  C   UNL     1       3.811   2.212  19.179  0.00  0.00    +0.000 C 
ATOM     23  O   UNL     1       4.776   1.662  19.716  0.00  0.00    +0.000 OA
ATOM     24  N   UNL     1       2.658   2.510  19.884  0.00  0.00    +0.000 N 
ATOM     25  C   UNL     1       2.592   2.384  21.323  0.00  0.00    +0.000 C 
ATOM     26  C   UNL     1       1.371   3.216  21.676  0.00  0.00    +0.000 C 
ATOM     27  N   UNL     1       0.567   3.116  20.490  0.00  0.00    +0.000 N 
ATOM     28  C   UNL     1       1.380   2.845  19.391  0.00  0.00    +0.000 C 
ATOM     29  O   UNL     1       1.012   2.912  18.232  0.00  0.00    +0.000 OA
ATOM     30  H   UNL     1      -0.329   3.564  20.342  0.00  0.00    +0.000 HD
ENDBRANCH  21  22
ENDBRANCH  20  21
ENDBRANCH  19  20
ENDBRANCH   1  19
TORSDOF 4
ENDMDL
MODEL 2
REMARK VINA RESULT:      -9.4      2.393      3.957
REMARK  Name = 
REMARK  4 active torsions:
REMARK  status: ('A' for Active; 'I' for Inactive)
REMARK    1  A    between atoms: C_2  and  O_3
REMARK    2  A    between atoms: C_2  and  C_13
REMARK    3  A    between atoms: O_3  and  C_4
REMARK    4  A    between atoms: C_4  and  C_5
REMARK                            x       y       z     vdW  Elec       q    Type
REMARK                         _______ _______ _______ _____ _____    ______ ____
ROOT
ATOM      1  C   UNL     1       3.545   5.550  18.517  0.00  0.00    +0.000 A 
ATOM      2  C   UNL     1       3.659   6.483  17.480  0.00  0.00    +0.000 A 
ATOM      3  C   UNL     1       3.033   7.696  17.589  0.00  0.00    +0.000 A 
ATOM      4  C   UNL     1       2.285   7.985  18.730  0.00  0.00    +0.000 A 
ATOM      5  C   UNL     1       1.703   9.288  18.790  0.00  0.00    +0.000 A 
ATOM      6  O   UNL     1       1.832  10.039  17.826  0.00  0.00    +0.000 OA
ATOM      7  N   UNL     1       1.042   9.646  19.950  0.00  0.00    +0.000 N 
ATOM      8  C   UNL     1       0.830   8.743  21.012  0.00  0.00    +0.000 A 
ATOM      9  N   UNL     1       1.323   7.521  20.941  0.00  0.00    +0.000 NA
ATOM     10  C   UNL     1       2.098   7.108  19.797  0.00  0.00    +0.000 A 
ATOM     11  C   UNL     1       2.743   5.850  19.666  0.00  0.00    +0.000 A 
ATOM     12  C   UNL     1      -0.058   9.080  22.447  0.00  0.00    +0.000 C 
ATOM     13  C   UNL     1      -0.902  10.310  23.227  0.00  0.00    +0.000 C 
ATOM     14  C   UNL     1      -1.312  11.847  22.841  0.00  0.00    +0.000 C 
ATOM     15  C   UNL     1      -0.792  12.484  21.538  0.00  0.00    +0.000 C 
ATOM     16  C   UNL     1      -0.085  11.318  21.037  0.00  0.00    +0.000 C 
ATOM     17  C   UNL     1       0.663  11.062  19.837  0.00  0.00    +0.000 C 
ENDROOT
BRANCH   1  19
ATOM     18  O   UNL     1       4.631   3.506  19.242  0.00  0.00    +0.000 OA
ATOM     19  C   UNL     1       4.333   4.288  18.356  0.00  0.00    +0.000 C 
BRANCH  19  20
ATOM     20  O   UNL     1       4.660   4.156  17.036  0.00  0.00    +0.000 OA
BRANCH  20  21
ATOM     21  C   UNL     1       6.031   4.067  16.641  0.00  0.00    +0.000 C 
BRANCH  21  22
ATOM     22  C   UNL     1       6.584   5.407  16.159  0.00  0.00    +0.000 C 
ATOM     23  O   UNL     1       6.445   5.800  14.997  0.00  0.00    +0.000 OA
ATOM     24  N   UNL     1       7.260   6.157  17.105  0.00  0.00    +0.000 N 
ATOM     25  C   UNL     1       7.663   7.521  16.849  0.00  0.00    +0.000 C 
ATOM     26  C   UNL     1       7.932   8.058  18.244  0.00  0.00    +0.000 C 
ATOM     27  N   UNL     1       8.315   6.878  18.969  0.00  0.00    +0.000 N 
ATOM     28  C   UNL     1       7.770   5.752  18.356  0.00  0.00    +0.000 C 
ATOM     29  O   UNL     1       7.749   4.642  18.857  0.00  0.00    +0.000 OA
ATOM     30  H   UNL     1       8.555   6.838  19.952  0.00  0.00    +0.000 HD
ENDBRANCH  21  22
ENDBRANCH  20  21
ENDBRANCH  19  20
ENDBRANCH   1  19
TORSDOF 4
ENDMDL
MODEL 3
REMARK VINA RESULT:      -9.3      0.728      1.441
REMARK  Name = 
REMARK  4 active torsions:
REMARK  status: ('A' for Active; 'I' for Inactive)
REMARK    1  A    between atoms: C_2  and  O_3
REMARK    2  A    between atoms: C_2  and  C_13
REMARK    3  A    between atoms: O_3  and  C_4
REMARK    4  A    between atoms: C_4  and  C_5
REMARK                            x       y       z     vdW  Elec       q    Type
REMARK                         _______ _______ _______ _____ _____    ______ ____
ROOT
ATOM      1  C   UNL     1       3.997   5.909  18.147  0.00  0.00    +0.000 A 
ATOM      2  C   UNL     1       3.923   6.843  17.108  0.00  0.00    +0.000 A 
ATOM      3  C   UNL     1       3.150   7.962  17.257  0.00  0.00    +0.000 A 
ATOM      4  C   UNL     1       2.441   8.157  18.442  0.00  0.00    +0.000 A 
ATOM      5  C   UNL     1       1.696   9.372  18.540  0.00  0.00    +0.000 A 
ATOM      6  O   UNL     1       1.665  10.127  17.572  0.00  0.00    +0.000 OA
ATOM      7  N   UNL     1       1.065   9.646  19.739  0.00  0.00    +0.000 N 
ATOM      8  C   UNL     1       1.039   8.729  20.810  0.00  0.00    +0.000 A 
ATOM      9  N   UNL     1       1.685   7.583  20.707  0.00  0.00    +0.000 NA
ATOM     10  C   UNL     1       2.437   7.269  19.517  0.00  0.00    +0.000 A 
ATOM     11  C   UNL     1       3.234   6.107  19.344  0.00  0.00    +0.000 A 
ATOM     12  C   UNL     1       0.204   8.955  22.297  0.00  0.00    +0.000 C 
ATOM     13  C   UNL     1      -0.747  10.067  23.130  0.00  0.00    +0.000 C 
ATOM     14  C   UNL     1      -1.380  11.534  22.773  0.00  0.00    +0.000 C 
ATOM     15  C   UNL     1      -1.029  12.226  21.441  0.00  0.00    +0.000 C 
ATOM     16  C   UNL     1      -0.205  11.161  20.896  0.00  0.00    +0.000 C 
ATOM     17  C   UNL     1       0.495  10.999  19.653  0.00  0.00    +0.000 C 
ENDROOT
BRANCH   1  19
ATOM     18  O   UNL     1       6.048   4.642  18.415  0.00  0.00    +0.000 OA
ATOM     19  C   UNL     1       4.934   4.761  17.936  0.00  0.00    +0.000 C 
BRANCH  19  20
ATOM     20  O   UNL     1       4.322   3.860  17.111  0.00  0.00    +0.000 OA
BRANCH  20  21
ATOM     21  C   UNL     1       3.614   2.747  17.662  0.00  0.00    +0.000 C 
BRANCH  21  22
ATOM     22  C   UNL     1       2.289   3.161  18.301  0.00  0.00    +0.000 C 
ATOM     23  O   UNL     1       1.362   3.644  17.646  0.00  0.00    +0.000 OA
ATOM     24  N   UNL     1       2.192   2.968  19.667  0.00  0.00    +0.000 N 
ATOM     25  C   UNL     1       0.939   3.127  20.371  0.00  0.00    +0.000 C 
ATOM     26  C   UNL     1       1.196   2.402  21.680  0.00  0.00    +0.000 C 
ATOM     27  N   UNL     1       2.617   2.540  21.845  0.00  0.00    +0.000 N 
ATOM     28  C   UNL     1       3.219   2.725  20.603  0.00  0.00    +0.000 C 
ATOM     29  O   UNL     1       4.419   2.663  20.406  0.00  0.00    +0.000 OA
ATOM     30  H   UNL     1       3.165   2.161  22.608  0.00  0.00    +0.000 HD
ENDBRANCH  21  22
ENDBRANCH  20  21
ENDBRANCH  19  20
ENDBRANCH   1  19
TORSDOF 4
ENDMDL
MODEL 4
REMARK VINA RESULT:      -9.1      0.914      1.078
REMARK  Name = 
REMARK  4 active torsions:
REMARK  status: ('A' for Active; 'I' for Inactive)
REMARK    1  A    between atoms: C_2  and  O_3
REMARK    2  A    between atoms: C_2  and  C_13
REMARK    3  A    between atoms: O_3  and  C_4
REMARK    4  A    between atoms: C_4  and  C_5
REMARK                            x       y       z     vdW  Elec       q    Type
REMARK                         _______ _______ _______ _____ _____    ______ ____
ROOT
ATOM      1  C   UNL     1       4.207   5.592  18.163  0.00  0.00    +0.000 A 
ATOM      2  C   UNL     1       4.156   6.507  17.105  0.00  0.00    +0.000 A 
ATOM      3  C   UNL     1       3.381   7.630  17.219  0.00  0.00    +0.000 A 
ATOM      4  C   UNL     1       2.648   7.846  18.385  0.00  0.00    +0.000 A 
ATOM      5  C   UNL     1       1.903   9.064  18.446  0.00  0.00    +0.000 A 
ATOM      6  O   UNL     1       1.893   9.802  17.464  0.00  0.00    +0.000 OA
ATOM      7  N   UNL     1       1.248   9.360  19.627  0.00  0.00    +0.000 N 
ATOM      8  C   UNL     1       1.198   8.463  20.713  0.00  0.00    +0.000 A 
ATOM      9  N   UNL     1       1.844   7.314  20.644  0.00  0.00    +0.000 NA
ATOM     10  C   UNL     1       2.621   6.978  19.475  0.00  0.00    +0.000 A 
ATOM     11  C   UNL     1       3.419   5.812  19.340  0.00  0.00    +0.000 A 
ATOM     12  C   UNL     1       0.332   8.716  22.178  0.00  0.00    +0.000 C 
ATOM     13  C   UNL     1      -0.633   9.844  22.971  0.00  0.00    +0.000 C 
ATOM     14  C   UNL     1      -1.257  11.305  22.575  0.00  0.00    +0.000 C 
ATOM     15  C   UNL     1      -0.877  11.972  21.238  0.00  0.00    +0.000 C 
ATOM     16  C   UNL     1      -0.044  10.897  20.729  0.00  0.00    +0.000 C 
ATOM     17  C   UNL     1       0.682  10.712  19.504  0.00  0.00    +0.000 C 
ENDROOT
BRANCH   1  19
ATOM     18  O   UNL     1       5.692   4.102  16.956  0.00  0.00    +0.000 OA
ATOM     19  C   UNL     1       5.146   4.440  17.992  0.00  0.00    +0.000 C 
BRANCH  19  20
ATOM     20  O   UNL     1       5.292   3.826  19.204  0.00  0.00    +0.000 OA
BRANCH  20  21
ATOM     21  C   UNL     1       4.866   2.473  19.380  0.00  0.00    +0.000 C 
BRANCH  21  22
ATOM     22  C   UNL     1       3.754   2.346  20.420  0.00  0.00    +0.000 C 
ATOM     23  O   UNL     1       3.984   2.108  21.609  0.00  0.00    +0.000 OA
ATOM     24  N   UNL     1       2.464   2.508  19.947  0.00  0.00    +0.000 N 
ATOM     25  C   UNL     1       1.332   2.610  20.841  0.00  0.00    +0.000 C 
ATOM     26  C   UNL     1       0.257   3.212  19.953  0.00  0.00    +0.000 C 
ATOM     27  N   UNL     1       0.633   2.752  18.645  0.00  0.00    +0.000 N 
ATOM     28  C   UNL     1       1.999   2.480  18.616  0.00  0.00    +0.000 C 
ATOM     29  O   UNL     1       2.636   2.276  17.598  0.00  0.00    +0.000 OA
ATOM     30  H   UNL     1       0.154   2.970  17.780  0.00  0.00    +0.000 HD
ENDBRANCH  21  22
ENDBRANCH  20  21
ENDBRANCH  19  20
ENDBRANCH   1  19
TORSDOF 4
ENDMDL
MODEL 5
REMARK VINA RESULT:      -8.9      2.323      3.920
REMARK  Name = 
REMARK  4 active torsions:
REMARK  status: ('A' for Active; 'I' for Inactive)
REMARK    1  A    between atoms: C_2  and  O_3
REMARK    2  A    between atoms: C_2  and  C_13
REMARK    3  A    between atoms: O_3  and  C_4
REMARK    4  A    between atoms: C_4  and  C_5
REMARK                            x       y       z     vdW  Elec       q    Type
REMARK                         _______ _______ _______ _____ _____    ______ ____
ROOT
ATOM      1  C   UNL     1       2.363   6.509  19.887  0.00  0.00    +0.000 A 
ATOM      2  C   UNL     1       2.578   7.163  18.669  0.00  0.00    +0.000 A 
ATOM      3  C   UNL     1       2.067   8.419  18.476  0.00  0.00    +0.000 A 
ATOM      4  C   UNL     1       1.334   9.029  19.493  0.00  0.00    +0.000 A 
ATOM      5  C   UNL     1       0.876  10.357  19.234  0.00  0.00    +0.000 A 
ATOM      6  O   UNL     1       1.088  10.850  18.128  0.00  0.00    +0.000 OA
ATOM      7  N   UNL     1       0.236  11.030  20.257  0.00  0.00    +0.000 N 
ATOM      8  C   UNL     1      -0.074  10.419  21.489  0.00  0.00    +0.000 A 
ATOM      9  N   UNL     1       0.303   9.175  21.718  0.00  0.00    +0.000 NA
ATOM     10  C   UNL     1       1.051   8.442  20.726  0.00  0.00    +0.000 A 
ATOM     11  C   UNL     1       1.577   7.136  20.909  0.00  0.00    +0.000 A 
ATOM     12  C   UNL     1      -0.945  11.156  22.777  0.00  0.00    +0.000 C 
ATOM     13  C   UNL     1      -1.680  12.603  23.226  0.00  0.00    +0.000 C 
ATOM     14  C   UNL     1      -1.939  14.039  22.484  0.00  0.00    +0.000 C 
ATOM     15  C   UNL     1      -1.344  14.308  21.088  0.00  0.00    +0.000 C 
ATOM     16  C   UNL     1      -0.742  13.001  20.893  0.00  0.00    +0.000 C 
ATOM     17  C   UNL     1      -0.006  12.409  19.810  0.00  0.00    +0.000 C 
ENDROOT
BRANCH   1  19
ATOM     18  O   UNL     1       2.547   4.188  20.565  0.00  0.00    +0.000 OA
ATOM     19  C   UNL     1       3.030   5.179  20.047  0.00  0.00    +0.000 C 
BRANCH  19  20
ATOM     20  O   UNL     1       4.282   5.263  19.505  0.00  0.00    +0.000 OA
BRANCH  20  21
ATOM     21  C   UNL     1       4.959   4.081  19.074  0.00  0.00    +0.000 C 
BRANCH  21  22
ATOM     22  C   UNL     1       4.713   3.777  17.597  0.00  0.00    +0.000 C 
ATOM     23  O   UNL     1       3.671   3.251  17.195  0.00  0.00    +0.000 OA
ATOM     24  N   UNL     1       5.735   4.122  16.731  0.00  0.00    +0.000 N 
ATOM     25  C   UNL     1       5.565   4.076  15.296  0.00  0.00    +0.000 C 
ATOM     26  C   UNL     1       6.714   4.934  14.795  0.00  0.00    +0.000 C 
ATOM     27  N   UNL     1       7.701   4.775  15.828  0.00  0.00    +0.000 N 
ATOM     28  C   UNL     1       7.078   4.438  17.027  0.00  0.00    +0.000 C 
ATOM     29  O   UNL     1       7.630   4.444  18.112  0.00  0.00    +0.000 OA
ATOM     30  H   UNL     1       8.610   5.220  15.852  0.00  0.00    +0.000 HD
ENDBRANCH  21  22
ENDBRANCH  20  21
ENDBRANCH  19  20
ENDBRANCH   1  19
TORSDOF 4
ENDMDL
MODEL 6
REMARK VINA RESULT:      -8.8      1.534      2.574
REMARK  Name = 
REMARK  4 active torsions:
REMARK  status: ('A' for Active; 'I' for Inactive)
REMARK    1  A    between atoms: C_2  and  O_3
REMARK    2  A    between atoms: C_2  and  C_13
REMARK    3  A    between atoms: O_3  and  C_4
REMARK    4  A    between atoms: C_4  and  C_5
REMARK                            x       y       z     vdW  Elec       q    Type
REMARK                         _______ _______ _______ _____ _____    ______ ____
ROOT
ATOM      1  C   UNL     1       3.079   6.787  18.320  0.00  0.00    +0.000 A 
ATOM      2  C   UNL     1       2.636   6.316  19.560  0.00  0.00    +0.000 A 
ATOM      3  C   UNL     1       1.885   7.130  20.365  0.00  0.00    +0.000 A 
ATOM      4  C   UNL     1       1.574   8.421  19.940  0.00  0.00    +0.000 A 
ATOM      5  C   UNL     1       0.746   9.192  20.813  0.00  0.00    +0.000 A 
ATOM      6  O   UNL     1       0.420   8.711  21.896  0.00  0.00    +0.000 OA
ATOM      7  N   UNL     1       0.333  10.437  20.378  0.00  0.00    +0.000 N 
ATOM      8  C   UNL     1       0.786  11.008  19.171  0.00  0.00    +0.000 A 
ATOM      9  N   UNL     1       1.591  10.321  18.383  0.00  0.00    +0.000 NA
ATOM     10  C   UNL     1       1.993   8.980  18.733  0.00  0.00    +0.000 A 
ATOM     11  C   UNL     1       2.780   8.129  17.914  0.00  0.00    +0.000 A 
ATOM     12  C   UNL     1       0.393  12.583  18.603  0.00  0.00    +0.000 C 
ATOM     13  C   UNL     1      -0.516  13.946  18.991  0.00  0.00    +0.000 C 
ATOM     14  C   UNL     1      -1.452  14.379  20.263  0.00  0.00    +0.000 C 
ATOM     15  C   UNL     1      -1.738  13.372  21.393  0.00  0.00    +0.000 C 
ATOM     16  C   UNL     1      -0.921  12.287  20.879  0.00  0.00    +0.000 C 
ATOM     17  C   UNL     1      -0.616  10.970  21.367  0.00  0.00    +0.000 C 
ENDROOT
BRANCH   1  19
ATOM     18  O   UNL     1       4.922   5.961  16.975  0.00  0.00    +0.000 OA
ATOM     19  C   UNL     1       3.817   5.804  17.467  0.00  0.00    +0.000 C 
BRANCH  19  20
ATOM     20  O   UNL     1       3.041   4.688  17.334  0.00  0.00    +0.000 OA
BRANCH  20  21
ATOM     21  C   UNL     1       3.616   3.389  17.486  0.00  0.00    +0.000 C 
BRANCH  21  22
ATOM     22  C   UNL     1       3.881   3.039  18.950  0.00  0.00    +0.000 C 
ATOM     23  O   UNL     1       5.021   2.893  19.399  0.00  0.00    +0.000 OA
ATOM     24  N   UNL     1       2.760   2.888  19.746  0.00  0.00    +0.000 N 
ATOM     25  C   UNL     1       2.858   2.753  21.182  0.00  0.00    +0.000 C 
ATOM     26  C   UNL     1       1.447   3.069  21.646  0.00  0.00    +0.000 C 
ATOM     27  N   UNL     1       0.648   2.670  20.521  0.00  0.00    +0.000 N 
ATOM     28  C   UNL     1       1.414   2.718  19.359  0.00  0.00    +0.000 C 
ATOM     29  O   UNL     1       0.958   2.637  18.232  0.00  0.00    +0.000 OA
ATOM     30  H   UNL     1      -0.359   2.749  20.451  0.00  0.00    +0.000 HD
ENDBRANCH  21  22
ENDBRANCH  20  21
ENDBRANCH  19  20
ENDBRANCH   1  19
TORSDOF 4
ENDMDL
MODEL 7
REMARK VINA RESULT:      -8.7      2.429      4.553
REMARK  Name = 
REMARK  4 active torsions:
REMARK  status: ('A' for Active; 'I' for Inactive)
REMARK    1  A    between atoms: C_2  and  O_3
REMARK    2  A    between atoms: C_2  and  C_13
REMARK    3  A    between atoms: O_3  and  C_4
REMARK    4  A    between atoms: C_4  and  C_5
REMARK                            x       y       z     vdW  Elec       q    Type
REMARK                         _______ _______ _______ _____ _____    ______ ____
ROOT
ATOM      1  C   UNL     1       1.498   8.828  19.307  0.00  0.00    +0.000 A 
ATOM      2  C   UNL     1       1.614   8.324  20.607  0.00  0.00    +0.000 A 
ATOM      3  C   UNL     1       0.906   8.905  21.624  0.00  0.00    +0.000 A 
ATOM      4  C   UNL     1       0.081   9.996  21.354  0.00  0.00    +0.000 A 
ATOM      5  C   UNL     1      -0.661  10.517  22.458  0.00  0.00    +0.000 A 
ATOM      6  O   UNL     1      -0.483  10.030  23.572  0.00  0.00    +0.000 OA
ATOM      7  N   UNL     1      -1.565  11.531  22.207  0.00  0.00    +0.000 N 
ATOM      8  C   UNL     1      -1.695  12.135  20.939  0.00  0.00    +0.000 A 
ATOM      9  N   UNL     1      -0.976  11.692  19.925  0.00  0.00    +0.000 NA
ATOM     10  C   UNL     1      -0.075  10.578  20.096  0.00  0.00    +0.000 A 
ATOM     11  C   UNL     1       0.673   9.973  19.052  0.00  0.00    +0.000 A 
ATOM     12  C   UNL     1      -2.728  13.459  20.566  0.00  0.00    +0.000 C 
ATOM     13  C   UNL     1      -3.878  14.480  21.251  0.00  0.00    +0.000 C 
ATOM     14  C   UNL     1      -4.492  14.674  22.756  0.00  0.00    +0.000 C 
ATOM     15  C   UNL     1      -4.092  13.706  23.887  0.00  0.00    +0.000 C 
ATOM     16  C   UNL     1      -3.152  12.909  23.118  0.00  0.00    +0.000 C 
ATOM     17  C   UNL     1      -2.306  11.796  23.449  0.00  0.00    +0.000 C 
ENDROOT
BRANCH   1  19
ATOM     18  O   UNL     1       2.576   8.517  17.157  0.00  0.00    +0.000 OA
ATOM     19  C   UNL     1       2.235   8.079  18.242  0.00  0.00    +0.000 C 
BRANCH  19  20
ATOM     20  O   UNL     1       2.468   6.812  18.695  0.00  0.00    +0.000 OA
BRANCH  20  21
ATOM     21  C   UNL     1       3.085   5.845  17.843  0.00  0.00    +0.000 C 
BRANCH  21  22
ATOM     22  C   UNL     1       2.375   4.493  17.888  0.00  0.00    +0.000 C 
ATOM     23  O   UNL     1       1.212   4.344  17.503  0.00  0.00    +0.000 OA
ATOM     24  N   UNL     1       3.113   3.439  18.396  0.00  0.00    +0.000 N 
ATOM     25  C   UNL     1       2.645   2.074  18.317  0.00  0.00    +0.000 C 
ATOM     26  C   UNL     1       3.912   1.271  18.559  0.00  0.00    +0.000 C 
ATOM     27  N   UNL     1       4.697   2.157  19.373  0.00  0.00    +0.000 N 
ATOM     28  C   UNL     1       4.308   3.475  19.145  0.00  0.00    +0.000 C 
ATOM     29  O   UNL     1       4.928   4.450  19.531  0.00  0.00    +0.000 OA
ATOM     30  H   UNL     1       5.629   1.971  19.722  0.00  0.00    +0.000 HD
ENDBRANCH  21  22
ENDBRANCH  20  21
ENDBRANCH  19  20
ENDBRANCH   1  19
TORSDOF 4
ENDMDL
MODEL 8
REMARK VINA RESULT:      -8.7      2.310      3.891
REMARK  Name = 
REMARK  4 active torsions:
REMARK  status: ('A' for Active; 'I' for Inactive)
REMARK    1  A    between atoms: C_2  and  O_3
REMARK    2  A    between atoms: C_2  and  C_13
REMARK    3  A    between atoms: O_3  and  C_4
REMARK    4  A    between atoms: C_4  and  C_5
REMARK                            x       y       z     vdW  Elec       q    Type
REMARK                         _______ _______ _______ _____ _____    ______ ____
ROOT
ATOM      1  C   UNL     1       2.448   5.751  19.809  0.00  0.00    +0.000 A 
ATOM      2  C   UNL     1       2.775   6.389  18.608  0.00  0.00    +0.000 A 
ATOM      3  C   UNL     1       2.380   7.683  18.399  0.00  0.00    +0.000 A 
ATOM      4  C   UNL     1       1.653   8.349  19.386  0.00  0.00    +0.000 A 
ATOM      5  C   UNL     1       1.320   9.711  19.114  0.00  0.00    +0.000 A 
ATOM      6  O   UNL     1       1.625  10.188  18.023  0.00  0.00    +0.000 OA
ATOM      7  N   UNL     1       0.691  10.432  20.111  0.00  0.00    +0.000 N 
ATOM      8  C   UNL     1       0.272   9.846  21.322  0.00  0.00    +0.000 A 
ATOM      9  N   UNL     1       0.533   8.574  21.560  0.00  0.00    +0.000 NA
ATOM     10  C   UNL     1       1.264   7.784  20.599  0.00  0.00    +0.000 A 
ATOM     11  C   UNL     1       1.670   6.438  20.798  0.00  0.00    +0.000 A 
ATOM     12  C   UNL     1      -0.595  10.649  22.573  0.00  0.00    +0.000 C 
ATOM     13  C   UNL     1      -1.227  12.150  22.997  0.00  0.00    +0.000 C 
ATOM     14  C   UNL     1      -1.330  13.605  22.254  0.00  0.00    +0.000 C 
ATOM     15  C   UNL     1      -0.649  13.829  20.890  0.00  0.00    +0.000 C 
ATOM     16  C   UNL     1      -0.150  12.476  20.713  0.00  0.00    +0.000 C 
ATOM     17  C   UNL     1       0.585  11.829  19.663  0.00  0.00    +0.000 C 
ENDROOT
BRANCH   1  19
ATOM     18  O   UNL     1       2.868   3.668  20.980  0.00  0.00    +0.000 OA
ATOM     19  C   UNL     1       2.994   4.369  19.991  0.00  0.00    +0.000 C 
BRANCH  19  20
ATOM     20  O   UNL     1       3.661   4.022  18.851  0.00  0.00    +0.000 OA
BRANCH  20  21
ATOM     21  C   UNL     1       5.087   3.920  18.854  0.00  0.00    +0.000 C 
BRANCH  21  22
ATOM     22  C   UNL     1       5.718   4.585  17.632  0.00  0.00    +0.000 C 
ATOM     23  O   UNL     1       5.406   4.282  16.478  0.00  0.00    +0.000 OA
ATOM     24  N   UNL     1       6.673   5.551  17.897  0.00  0.00    +0.000 N 
ATOM     25  C   UNL     1       7.210   6.398  16.855  0.00  0.00    +0.000 C 
ATOM     26  C   UNL     1       7.830   7.541  17.639  0.00  0.00    +0.000 C 
ATOM     27  N   UNL     1       8.177   6.917  18.886  0.00  0.00    +0.000 N 
ATOM     28  C   UNL     1       7.362   5.808  19.101  0.00  0.00    +0.000 C 
ATOM     29  O   UNL     1       7.283   5.210  20.159  0.00  0.00    +0.000 OA
ATOM     30  H   UNL     1       8.603   7.378  19.682  0.00  0.00    +0.000 HD
ENDBRANCH  21  22
ENDBRANCH  20  21
ENDBRANCH  19  20
ENDBRANCH   1  19
TORSDOF 4
ENDMDL
MODEL 9
REMARK VINA RESULT:      -8.6      2.741      4.411
REMARK  Name = 
REMARK  4 active torsions:
REMARK  status: ('A' for Active; 'I' for Inactive)
REMARK    1  A    between atoms: C_2  and  O_3
REMARK    2  A    between atoms: C_2  and  C_13
REMARK    3  A    between atoms: O_3  and  C_4
REMARK    4  A    between atoms: C_4  and  C_5
REMARK                            x       y       z     vdW  Elec       q    Type
REMARK                         _______ _______ _______ _____ _____    ______ ____
ROOT
ATOM      1  C   UNL     1       2.219   7.523  19.360  0.00  0.00    +0.000 A 
ATOM      2  C   UNL     1       2.199   8.295  18.193  0.00  0.00    +0.000 A 
ATOM      3  C   UNL     1       1.483   9.462  18.167  0.00  0.00    +0.000 A 
ATOM      4  C   UNL     1       0.779   9.865  19.301  0.00  0.00    +0.000 A 
ATOM      5  C   UNL     1       0.097  11.117  19.210  0.00  0.00    +0.000 A 
ATOM      6  O   UNL     1       0.111  11.721  18.140  0.00  0.00    +0.000 OA
ATOM      7  N   UNL     1      -0.526  11.596  20.347  0.00  0.00    +0.000 N 
ATOM      8  C   UNL     1      -0.605  10.850  21.540  0.00  0.00    +0.000 A 
ATOM      9  N   UNL     1      -0.018   9.670  21.616  0.00  0.00    +0.000 NA
ATOM     10  C   UNL     1       0.723   9.147  20.494  0.00  0.00    +0.000 A 
ATOM     11  C   UNL     1       1.460   7.933  20.505  0.00  0.00    +0.000 A 
ATOM     12  C   UNL     1      -1.436  11.334  22.967  0.00  0.00    +0.000 C 
ATOM     13  C   UNL     1      -2.332  12.603  23.615  0.00  0.00    +0.000 C 
ATOM     14  C   UNL     1      -2.886  14.031  23.038  0.00  0.00    +0.000 C 
ATOM     15  C   UNL     1      -2.493  14.500  21.624  0.00  0.00    +0.000 C 
ATOM     16  C   UNL     1      -1.722  13.327  21.252  0.00  0.00    +0.000 C 
ATOM     17  C   UNL     1      -1.024  12.948  20.055  0.00  0.00    +0.000 C 
ENDROOT
BRANCH   1  19
ATOM     18  O   UNL     1       3.088   5.396  20.137  0.00  0.00    +0.000 OA
ATOM     19  C   UNL     1       3.096   6.311  19.332  0.00  0.00    +0.000 C 
BRANCH  19  20
ATOM     20  O   UNL     1       3.912   6.401  18.240  0.00  0.00    +0.000 OA
BRANCH  20  21
ATOM     21  C   UNL     1       5.174   5.730  18.229  0.00  0.00    +0.000 C 
BRANCH  21  22
ATOM     22  C   UNL     1       5.182   4.525  17.290  0.00  0.00    +0.000 C 
ATOM     23  O   UNL     1       4.510   3.513  17.508  0.00  0.00    +0.000 OA
ATOM     24  N   UNL     1       5.997   4.632  16.177  0.00  0.00    +0.000 N 
ATOM     25  C   UNL     1       5.956   3.660  15.108  0.00  0.00    +0.000 C 
ATOM     26  C   UNL     1       6.634   4.393  13.963  0.00  0.00    +0.000 C 
ATOM     27  N   UNL     1       7.521   5.294  14.646  0.00  0.00    +0.000 N 
ATOM     28  C   UNL     1       7.038   5.550  15.927  0.00  0.00    +0.000 C 
ATOM     29  O   UNL     1       7.461   6.429  16.656  0.00  0.00    +0.000 OA
ATOM     30  H   UNL     1       8.135   5.968  14.206  0.00  0.00    +0.000 HD
ENDBRANCH  21  22
ENDBRANCH  20  21
ENDBRANCH  19  20
ENDBRANCH   1  19
TORSDOF 4
ENDMDL
