MODEL 1
REMARK VINA RESULT:      -9.2      0.000      0.000
REMARK  Name = 
REMARK  3 active torsions:
REMARK  status: ('A' for Active; 'I' for Inactive)
REMARK    1  A    between atoms: C_5  and  C_6
REMARK    2  A    between atoms: C_9  and  C_10
REMARK    3  A    between atoms: C_10  and  C_11
REMARK                            x       y       z     vdW  Elec       q    Type
REMARK                         _______ _______ _______ _____ _____    ______ ____
ROOT
ATOM      1  C   UNL     1       6.197   6.060  17.126  0.00  0.00    +0.000 C 
ATOM      2  C   UNL     1       4.866   6.638  16.591  0.00  0.00    +0.000 C 
ATOM      3  C   UNL     1       3.967   6.727  17.815  0.00  0.00    +0.000 C 
ATOM      4  N   UNL     1       4.348   5.554  18.580  0.00  0.00    +0.000 N 
ATOM      5  C   UNL     1       3.471   4.846  19.393  0.00  0.00    +0.000 A 
ATOM      6  N   UNL     1       2.236   5.294  19.519  0.00  0.00    +0.000 NA
ATOM      7  C   UNL     1       1.331   4.611  20.307  0.00  0.00    +0.000 A 
ATOM      8  C   UNL     1       1.618   3.489  20.981  0.00  0.00    +0.000 A 
ATOM      9  N   UNL     1       2.900   2.986  20.875  0.00  0.00    +0.000 N 
ATOM     10  N   UNL     1       3.483   1.895  21.413  0.00  0.00    +0.000 NA
ATOM     11  N   UNL     1       4.732   1.897  20.962  0.00  0.00    +0.000 NA
ATOM     12  N   UNL     1       4.966   2.975  20.141  0.00  0.00    +0.000 NA
ATOM     13  C   UNL     1       3.829   3.630  20.103  0.00  0.00    +0.000 A 
ATOM     14  C   UNL     1       5.726   5.154  18.284  0.00  0.00    +0.000 C 
ENDROOT
BRANCH   1  18
ATOM     15  C   UNL     1       8.190   8.903  18.028  0.00  0.00    +0.000 A 
ATOM     16  N   UNL     1       8.735   7.981  18.837  0.00  0.00    +0.000 NA
ATOM     17  O   UNL     1       8.001   6.829  18.583  0.00  0.00    +0.000 OA
ATOM     18  C   UNL     1       7.076   7.157  17.633  0.00  0.00    +0.000 A 
ATOM     19  N   UNL     1       7.138   8.420  17.274  0.00  0.00    +0.000 NA
BRANCH  15  24
ATOM     20  F   UNL     1       9.988  14.193  17.655  0.00  0.00    +0.000 F 
ATOM     21  C   UNL     1       9.556  12.928  17.746  0.00  0.00    +0.000 A 
ATOM     22  C   UNL     1       8.246  12.626  17.392  0.00  0.00    +0.000 A 
ATOM     23  C   UNL     1       7.795  11.306  17.485  0.00  0.00    +0.000 A 
ATOM     24  C   UNL     1       8.653  10.285  17.929  0.00  0.00    +0.000 A 
ATOM     25  C   UNL     1       9.972  10.618  18.284  0.00  0.00    +0.000 A 
ATOM     26  C   UNL     1      10.421  11.939  18.191  0.00  0.00    +0.000 A 
ENDBRANCH  15  24
ENDBRANCH   1  18
BRANCH   1  27
ATOM     27  C   UNL     1       6.941   5.264  16.051  0.00  0.00    +0.000 C 
ATOM     28  F   UNL     1       6.116   4.665  15.163  0.00  0.00    +0.000 F 
ATOM     29  F   UNL     1       7.782   6.033  15.322  0.00  0.00    +0.000 F 
ATOM     30  F   UNL     1       7.696   4.275  16.587  0.00  0.00    +0.000 F 
ENDBRANCH   1  27
TORSDOF 3
ENDMDL
MODEL 2
REMARK VINA RESULT:      -8.0      6.968      9.635
REMARK  Name = 
REMARK  3 active torsions:
REMARK  status: ('A' for Active; 'I' for Inactive)
REMARK    1  A    between atoms: C_5  and  C_6
REMARK    2  A    between atoms: C_9  and  C_10
REMARK    3  A    between atoms: C_10  and  C_11
REMARK                            x       y       z     vdW  Elec       q    Type
REMARK                         _______ _______ _______ _____ _____    ______ ____
ROOT
ATOM      1  C   UNL     1       0.397  10.110  20.435  0.00  0.00    +0.000 C 
ATOM      2  C   UNL     1      -0.993  10.508  19.887  0.00  0.00    +0.000 C 
ATOM      3  C   UNL     1      -0.761  11.835  19.179  0.00  0.00    +0.000 C 
ATOM      4  N   UNL     1       0.239  12.474  20.016  0.00  0.00    +0.000 N 
ATOM      5  C   UNL     1       0.329  13.849  20.194  0.00  0.00    +0.000 A 
ATOM      6  N   UNL     1      -0.506  14.622  19.525  0.00  0.00    +0.000 NA
ATOM      7  C   UNL     1      -0.456  15.993  19.685  0.00  0.00    +0.000 A 
ATOM      8  C   UNL     1       0.405  16.624  20.494  0.00  0.00    +0.000 A 
ATOM      9  N   UNL     1       1.296  15.852  21.213  0.00  0.00    +0.000 N 
ATOM     10  N   UNL     1       2.260  16.182  22.096  0.00  0.00    +0.000 NA
ATOM     11  N   UNL     1       2.800  15.032  22.484  0.00  0.00    +0.000 NA
ATOM     12  N   UNL     1       2.199  13.962  21.863  0.00  0.00    +0.000 NA
ATOM     13  C   UNL     1       1.281  14.489  21.086  0.00  0.00    +0.000 A 
ATOM     14  C   UNL     1       1.043  11.481  20.731  0.00  0.00    +0.000 C 
ENDROOT
BRANCH   1  18
ATOM     15  C   UNL     1       2.334   8.052  18.226  0.00  0.00    +0.000 A 
ATOM     16  N   UNL     1       2.300   9.185  17.505  0.00  0.00    +0.000 NA
ATOM     17  O   UNL     1       1.534  10.053  18.274  0.00  0.00    +0.000 OA
ATOM     18  C   UNL     1       1.176   9.367  19.399  0.00  0.00    +0.000 A 
ATOM     19  N   UNL     1       1.624   8.132  19.408  0.00  0.00    +0.000 NA
BRANCH  15  24
ATOM     20  F   UNL     1       5.105   3.440  16.677  0.00  0.00    +0.000 F 
ATOM     21  C   UNL     1       4.440   4.543  17.046  0.00  0.00    +0.000 A 
ATOM     22  C   UNL     1       3.192   4.421  17.647  0.00  0.00    +0.000 A 
ATOM     23  C   UNL     1       2.498   5.570  18.034  0.00  0.00    +0.000 A 
ATOM     24  C   UNL     1       3.051   6.846  17.823  0.00  0.00    +0.000 A 
ATOM     25  C   UNL     1       4.313   6.942  17.211  0.00  0.00    +0.000 A 
ATOM     26  C   UNL     1       5.006   5.791  16.824  0.00  0.00    +0.000 A 
ENDBRANCH  15  24
ENDBRANCH   1  18
BRANCH   1  27
ATOM     27  C   UNL     1       0.282   9.253  21.699  0.00  0.00    +0.000 C 
ATOM     28  F   UNL     1      -0.480   8.149  21.529  0.00  0.00    +0.000 F 
ATOM     29  F   UNL     1       1.483   8.816  22.143  0.00  0.00    +0.000 F 
ATOM     30  F   UNL     1      -0.278   9.940  22.724  0.00  0.00    +0.000 F 
ENDBRANCH   1  27
TORSDOF 3
ENDMDL
MODEL 3
REMARK VINA RESULT:      -7.9      7.005      9.689
REMARK  Name = 
REMARK  3 active torsions:
REMARK  status: ('A' for Active; 'I' for Inactive)
REMARK    1  A    between atoms: C_5  and  C_6
REMARK    2  A    between atoms: C_9  and  C_10
REMARK    3  A    between atoms: C_10  and  C_11
REMARK                            x       y       z     vdW  Elec       q    Type
REMARK                         _______ _______ _______ _____ _____    ______ ____
ROOT
ATOM      1  C   UNL     1       0.379  10.169  20.455  0.00  0.00    +0.000 C 
ATOM      2  C   UNL     1      -1.008  10.574  19.905  0.00  0.00    +0.000 C 
ATOM      3  C   UNL     1      -0.769  11.901  19.199  0.00  0.00    +0.000 C 
ATOM      4  N   UNL     1       0.233  12.535  20.037  0.00  0.00    +0.000 N 
ATOM      5  C   UNL     1       0.329  13.909  20.216  0.00  0.00    +0.000 A 
ATOM      6  N   UNL     1      -0.501  14.687  19.546  0.00  0.00    +0.000 NA
ATOM      7  C   UNL     1      -0.445  16.057  19.707  0.00  0.00    +0.000 A 
ATOM      8  C   UNL     1       0.419  16.683  20.517  0.00  0.00    +0.000 A 
ATOM      9  N   UNL     1       1.305  15.906  21.237  0.00  0.00    +0.000 N 
ATOM     10  N   UNL     1       2.270  16.231  22.122  0.00  0.00    +0.000 NA
ATOM     11  N   UNL     1       2.804  15.078  22.509  0.00  0.00    +0.000 NA
ATOM     12  N   UNL     1       2.198  14.012  21.887  0.00  0.00    +0.000 NA
ATOM     13  C   UNL     1       1.283  14.544  21.109  0.00  0.00    +0.000 A 
ATOM     14  C   UNL     1       1.032  11.537  20.752  0.00  0.00    +0.000 C 
ENDROOT
BRANCH   1  18
ATOM     15  C   UNL     1       2.315   8.108  18.248  0.00  0.00    +0.000 A 
ATOM     16  N   UNL     1       2.262   9.233  17.516  0.00  0.00    +0.000 NA
ATOM     17  O   UNL     1       1.494  10.101  18.283  0.00  0.00    +0.000 OA
ATOM     18  C   UNL     1       1.155   9.424  19.419  0.00  0.00    +0.000 A 
ATOM     19  N   UNL     1       1.617   8.193  19.437  0.00  0.00    +0.000 NA
BRANCH  15  24
ATOM     20  F   UNL     1       5.081   3.481  16.735  0.00  0.00    +0.000 F 
ATOM     21  C   UNL     1       4.421   4.589  17.099  0.00  0.00    +0.000 A 
ATOM     22  C   UNL     1       5.005   5.833  16.888  0.00  0.00    +0.000 A 
ATOM     23  C   UNL     1       4.317   6.989  17.266  0.00  0.00    +0.000 A 
ATOM     24  C   UNL     1       3.041   6.905  17.852  0.00  0.00    +0.000 A 
ATOM     25  C   UNL     1       2.475   5.635  18.057  0.00  0.00    +0.000 A 
ATOM     26  C   UNL     1       3.165   4.479  17.679  0.00  0.00    +0.000 A 
ENDBRANCH  15  24
ENDBRANCH   1  18
BRANCH   1  27
ATOM     27  C   UNL     1       0.259   9.313  21.718  0.00  0.00    +0.000 C 
ATOM     28  F   UNL     1      -0.347   9.954  22.743  0.00  0.00    +0.000 F 
ATOM     29  F   UNL     1      -0.450   8.179  21.513  0.00  0.00    +0.000 F 
ATOM     30  F   UNL     1       1.472   8.927  22.183  0.00  0.00    +0.000 F 
ENDBRANCH   1  27
TORSDOF 3
ENDMDL
MODEL 4
REMARK VINA RESULT:      -7.9      7.970     10.142
REMARK  Name = 
REMARK  3 active torsions:
REMARK  status: ('A' for Active; 'I' for Inactive)
REMARK    1  A    between atoms: C_5  and  C_6
REMARK    2  A    between atoms: C_9  and  C_10
REMARK    3  A    between atoms: C_10  and  C_11
REMARK                            x       y       z     vdW  Elec       q    Type
REMARK                         _______ _______ _______ _____ _____    ______ ____
ROOT
ATOM      1  C   UNL     1      -0.745  11.344  19.765  0.00  0.00    +0.000 C 
ATOM      2  C   UNL     1       0.067  12.648  19.590  0.00  0.00    +0.000 C 
ATOM      3  C   UNL     1       0.374  13.102  21.010  0.00  0.00    +0.000 C 
ATOM      4  N   UNL     1      -0.825  12.724  21.735  0.00  0.00    +0.000 N 
ATOM      5  C   UNL     1      -1.318  13.425  22.829  0.00  0.00    +0.000 A 
ATOM      6  N   UNL     1      -0.629  14.462  23.268  0.00  0.00    +0.000 NA
ATOM      7  C   UNL     1      -1.092  15.191  24.345  0.00  0.00    +0.000 A 
ATOM      8  C   UNL     1      -2.225  14.920  25.005  0.00  0.00    +0.000 A 
ATOM      9  N   UNL     1      -2.977  13.843  24.576  0.00  0.00    +0.000 N 
ATOM     10  N   UNL     1      -4.143  13.330  25.018  0.00  0.00    +0.000 NA
ATOM     11  N   UNL     1      -4.405  12.298  24.225  0.00  0.00    +0.000 NA
ATOM     12  N   UNL     1      -3.423  12.135  23.276  0.00  0.00    +0.000 NA
ATOM     13  C   UNL     1      -2.556  13.093  23.512  0.00  0.00    +0.000 A 
ATOM     14  C   UNL     1      -1.501  11.597  21.087  0.00  0.00    +0.000 C 
ENDROOT
BRANCH   1  18
ATOM     15  C   UNL     1       1.473   8.527  19.670  0.00  0.00    +0.000 A 
ATOM     16  N   UNL     1       1.060   8.445  20.945  0.00  0.00    +0.000 NA
ATOM     17  O   UNL     1       0.204   9.530  21.095  0.00  0.00    +0.000 OA
ATOM     18  C   UNL     1       0.170  10.171  19.890  0.00  0.00    +0.000 A 
ATOM     19  N   UNL     1       0.945   9.608  18.990  0.00  0.00    +0.000 NA
BRANCH  15  24
ATOM     20  F   UNL     1       4.952   4.856  17.268  0.00  0.00    +0.000 F 
ATOM     21  C   UNL     1       4.122   5.737  17.843  0.00  0.00    +0.000 A 
ATOM     22  C   UNL     1       3.968   6.999  17.282  0.00  0.00    +0.000 A 
ATOM     23  C   UNL     1       3.100   7.917  17.880  0.00  0.00    +0.000 A 
ATOM     24  C   UNL     1       2.382   7.574  19.039  0.00  0.00    +0.000 A 
ATOM     25  C   UNL     1       2.559   6.293  19.589  0.00  0.00    +0.000 A 
ATOM     26  C   UNL     1       3.427   5.375  18.989  0.00  0.00    +0.000 A 
ENDBRANCH  15  24
ENDBRANCH   1  18
BRANCH   1  27
ATOM     27  C   UNL     1      -1.708  11.118  18.596  0.00  0.00    +0.000 C 
ATOM     28  F   UNL     1      -1.949   9.810  18.347  0.00  0.00    +0.000 F 
ATOM     29  F   UNL     1      -2.917  11.689  18.799  0.00  0.00    +0.000 F 
ATOM     30  F   UNL     1      -1.229  11.636  17.440  0.00  0.00    +0.000 F 
ENDBRANCH   1  27
TORSDOF 3
ENDMDL
MODEL 5
REMARK VINA RESULT:      -7.9      7.591      9.838
REMARK  Name = 
REMARK  3 active torsions:
REMARK  status: ('A' for Active; 'I' for Inactive)
REMARK    1  A    between atoms: C_5  and  C_6
REMARK    2  A    between atoms: C_9  and  C_10
REMARK    3  A    between atoms: C_10  and  C_11
REMARK                            x       y       z     vdW  Elec       q    Type
REMARK                         _______ _______ _______ _____ _____    ______ ____
ROOT
ATOM      1  C   UNL     1      -0.356  11.053  19.436  0.00  0.00    +0.000 C 
ATOM      2  C   UNL     1       0.494  12.327  19.226  0.00  0.00    +0.000 C 
ATOM      3  C   UNL     1       0.779  12.835  20.632  0.00  0.00    +0.000 C 
ATOM      4  N   UNL     1      -0.446  12.519  21.342  0.00  0.00    +0.000 N 
ATOM      5  C   UNL     1      -0.946  13.279  22.393  0.00  0.00    +0.000 A 
ATOM      6  N   UNL     1      -0.240  14.316  22.804  0.00  0.00    +0.000 NA
ATOM      7  C   UNL     1      -0.709  15.104  23.836  0.00  0.00    +0.000 A 
ATOM      8  C   UNL     1      -1.864  14.890  24.479  0.00  0.00    +0.000 A 
ATOM      9  N   UNL     1      -2.634  13.815  24.079  0.00  0.00    +0.000 N 
ATOM     10  N   UNL     1      -3.823  13.351  24.515  0.00  0.00    +0.000 NA
ATOM     11  N   UNL     1      -4.093  12.292  23.760  0.00  0.00    +0.000 NA
ATOM     12  N   UNL     1      -3.094  12.064  22.843  0.00  0.00    +0.000 NA
ATOM     13  C   UNL     1      -2.208  13.009  23.059  0.00  0.00    +0.000 A 
ATOM     14  C   UNL     1      -1.136  11.382  20.727  0.00  0.00    +0.000 C 
ENDROOT
BRANCH   1  18
ATOM     15  C   UNL     1       1.794   8.184  19.517  0.00  0.00    +0.000 A 
ATOM     16  N   UNL     1       1.332   8.154  20.778  0.00  0.00    +0.000 NA
ATOM     17  O   UNL     1       0.498   9.262  20.860  0.00  0.00    +0.000 OA
ATOM     18  C   UNL     1       0.525   9.863  19.634  0.00  0.00    +0.000 A 
ATOM     19  N   UNL     1       1.319   9.253  18.783  0.00  0.00    +0.000 NA
BRANCH  15  24
ATOM     20  F   UNL     1       5.285   4.388  17.336  0.00  0.00    +0.000 F 
ATOM     21  C   UNL     1       4.448   5.295  17.858  0.00  0.00    +0.000 A 
ATOM     22  C   UNL     1       3.751   4.992  19.021  0.00  0.00    +0.000 A 
ATOM     23  C   UNL     1       2.878   5.937  19.568  0.00  0.00    +0.000 A 
ATOM     24  C   UNL     1       2.703   7.189  18.953  0.00  0.00    +0.000 A 
ATOM     25  C   UNL     1       3.417   7.470  17.775  0.00  0.00    +0.000 A 
ATOM     26  C   UNL     1       4.290   6.522  17.230  0.00  0.00    +0.000 A 
ENDBRANCH  15  24
ENDBRANCH   1  18
BRANCH   1  27
ATOM     27  C   UNL     1      -1.298  10.800  18.255  0.00  0.00    +0.000 C 
ATOM     28  F   UNL     1      -0.831   9.872  17.389  0.00  0.00    +0.000 F 
ATOM     29  F   UNL     1      -2.519  10.369  18.645  0.00  0.00    +0.000 F 
ATOM     30  F   UNL     1      -1.504  11.923  17.524  0.00  0.00    +0.000 F 
ENDBRANCH   1  27
TORSDOF 3
ENDMDL
MODEL 6
REMARK VINA RESULT:      -7.7      6.861      9.906
REMARK  Name = 
REMARK  3 active torsions:
REMARK  status: ('A' for Active; 'I' for Inactive)
REMARK    1  A    between atoms: C_5  and  C_6
REMARK    2  A    between atoms: C_9  and  C_10
REMARK    3  A    between atoms: C_10  and  C_11
REMARK                            x       y       z     vdW  Elec       q    Type
REMARK                         _______ _______ _______ _____ _____    ______ ____
ROOT
ATOM      1  C   UNL     1       0.214   9.988  20.865  0.00  0.00    +0.000 C 
ATOM      2  C   UNL     1      -0.993  10.391  19.988  0.00  0.00    +0.000 C 
ATOM      3  C   UNL     1      -0.459  11.491  19.082  0.00  0.00    +0.000 C 
ATOM      4  N   UNL     1       0.468  12.197  19.947  0.00  0.00    +0.000 N 
ATOM      5  C   UNL     1       0.723  13.560  19.853  0.00  0.00    +0.000 A 
ATOM      6  N   UNL     1       0.131  14.242  18.890  0.00  0.00    +0.000 NA
ATOM      7  C   UNL     1       0.349  15.600  18.772  0.00  0.00    +0.000 A 
ATOM      8  C   UNL     1       1.145  16.307  19.585  0.00  0.00    +0.000 A 
ATOM      9  N   UNL     1       1.783  15.631  20.607  0.00  0.00    +0.000 N 
ATOM     10  N   UNL     1       2.624  16.053  21.573  0.00  0.00    +0.000 NA
ATOM     11  N   UNL     1       2.922  14.972  22.286  0.00  0.00    +0.000 NA
ATOM     12  N   UNL     1       2.286  13.857  21.794  0.00  0.00    +0.000 NA
ATOM     13  C   UNL     1       1.595  14.284  20.761  0.00  0.00    +0.000 A 
ATOM     14  C   UNL     1       0.991  11.316  20.993  0.00  0.00    +0.000 C 
ENDROOT
BRANCH   1  18
ATOM     15  C   UNL     1       2.212   7.312  19.555  0.00  0.00    +0.000 A 
ATOM     16  N   UNL     1       2.345   8.201  18.558  0.00  0.00    +0.000 NA
ATOM     17  O   UNL     1       1.570   9.282  18.960  0.00  0.00    +0.000 OA
ATOM     18  C   UNL     1       1.040   8.952  20.175  0.00  0.00    +0.000 A 
ATOM     19  N   UNL     1       1.387   7.748  20.574  0.00  0.00    +0.000 NA
BRANCH  15  24
ATOM     20  F   UNL     1       4.763   2.329  19.666  0.00  0.00    +0.000 F 
ATOM     21  C   UNL     1       4.151   3.521  19.639  0.00  0.00    +0.000 A 
ATOM     22  C   UNL     1       2.960   3.693  20.335  0.00  0.00    +0.000 A 
ATOM     23  C   UNL     1       2.320   4.936  20.308  0.00  0.00    +0.000 A 
ATOM     24  C   UNL     1       2.872   6.010  19.588  0.00  0.00    +0.000 A 
ATOM     25  C   UNL     1       4.076   5.808  18.890  0.00  0.00    +0.000 A 
ATOM     26  C   UNL     1       4.714   4.564  18.918  0.00  0.00    +0.000 A 
ENDBRANCH  15  24
ENDBRANCH   1  18
BRANCH   1  27
ATOM     27  C   UNL     1      -0.231   9.458  22.231  0.00  0.00    +0.000 C 
ATOM     28  F   UNL     1       0.800   9.207  23.069  0.00  0.00    +0.000 F 
ATOM     29  F   UNL     1      -1.043  10.321  22.884  0.00  0.00    +0.000 F 
ATOM     30  F   UNL     1      -0.916   8.295  22.122  0.00  0.00    +0.000 F 
ENDBRANCH   1  27
TORSDOF 3
ENDMDL
MODEL 7
REMARK VINA RESULT:      -7.7      6.852      9.908
REMARK  Name = 
REMARK  3 active torsions:
REMARK  status: ('A' for Active; 'I' for Inactive)
REMARK    1  A    between atoms: C_5  and  C_6
REMARK    2  A    between atoms: C_9  and  C_10
REMARK    3  A    between atoms: C_10  and  C_11
REMARK                            x       y       z     vdW  Elec       q    Type
REMARK                         _______ _______ _______ _____ _____    ______ ____
ROOT
ATOM      1  C   UNL     1       0.228  10.001  20.816  0.00  0.00    +0.000 C 
ATOM      2  C   UNL     1      -0.969  10.413  19.927  0.00  0.00    +0.000 C 
ATOM      3  C   UNL     1      -0.422  11.517  19.034  0.00  0.00    +0.000 C 
ATOM      4  N   UNL     1       0.497  12.216  19.914  0.00  0.00    +0.000 N 
ATOM      5  C   UNL     1       0.756  13.579  19.833  0.00  0.00    +0.000 A 
ATOM      6  N   UNL     1       0.176  14.268  18.867  0.00  0.00    +0.000 NA
ATOM      7  C   UNL     1       0.399  15.626  18.761  0.00  0.00    +0.000 A 
ATOM      8  C   UNL     1       1.186  16.326  19.588  0.00  0.00    +0.000 A 
ATOM      9  N   UNL     1       1.812  15.643  20.612  0.00  0.00    +0.000 N 
ATOM     10  N   UNL     1       2.642  16.056  21.591  0.00  0.00    +0.000 NA
ATOM     11  N   UNL     1       2.929  14.970  22.301  0.00  0.00    +0.000 NA
ATOM     12  N   UNL     1       2.296  13.860  21.793  0.00  0.00    +0.000 NA
ATOM     13  C   UNL     1       1.618  14.295  20.756  0.00  0.00    +0.000 A 
ATOM     14  C   UNL     1       1.006  11.327  20.961  0.00  0.00    +0.000 C 
ENDROOT
BRANCH   1  18
ATOM     15  C   UNL     1       2.233   7.328  19.511  0.00  0.00    +0.000 A 
ATOM     16  N   UNL     1       2.386   8.226  18.524  0.00  0.00    +0.000 NA
ATOM     17  O   UNL     1       1.610   9.307  18.925  0.00  0.00    +0.000 OA
ATOM     18  C   UNL     1       1.059   8.968  20.128  0.00  0.00    +0.000 A 
ATOM     19  N   UNL     1       1.394   7.759  20.521  0.00  0.00    +0.000 NA
BRANCH  15  24
ATOM     20  F   UNL     1       4.722   2.314  19.640  0.00  0.00    +0.000 F 
ATOM     21  C   UNL     1       4.128   3.515  19.610  0.00  0.00    +0.000 A 
ATOM     22  C   UNL     1       4.722   4.554  18.902  0.00  0.00    +0.000 A 
ATOM     23  C   UNL     1       4.103   5.807  18.869  0.00  0.00    +0.000 A 
ATOM     24  C   UNL     1       2.887   6.023  19.541  0.00  0.00    +0.000 A 
ATOM     25  C   UNL     1       2.310   4.957  20.253  0.00  0.00    +0.000 A 
ATOM     26  C   UNL     1       2.930   3.704  20.285  0.00  0.00    +0.000 A 
ENDBRANCH  15  24
ENDBRANCH   1  18
BRANCH   1  27
ATOM     27  C   UNL     1      -0.235   9.464  22.173  0.00  0.00    +0.000 C 
ATOM     28  F   UNL     1      -0.911   8.296  22.083  0.00  0.00    +0.000 F 
ATOM     29  F   UNL     1       0.794   9.238  23.021  0.00  0.00    +0.000 F 
ATOM     30  F   UNL     1      -1.066  10.330  22.801  0.00  0.00    +0.000 F 
ENDBRANCH   1  27
TORSDOF 3
ENDMDL
MODEL 8
REMARK VINA RESULT:      -7.7      8.526     11.030
REMARK  Name = 
REMARK  3 active torsions:
REMARK  status: ('A' for Active; 'I' for Inactive)
REMARK    1  A    between atoms: C_5  and  C_6
REMARK    2  A    between atoms: C_9  and  C_10
REMARK    3  A    between atoms: C_10  and  C_11
REMARK                            x       y       z     vdW  Elec       q    Type
REMARK                         _______ _______ _______ _____ _____    ______ ____
ROOT
ATOM      1  C   UNL     1      -1.117  12.949  20.223  0.00  0.00    +0.000 C 
ATOM      2  C   UNL     1      -1.479  13.606  21.575  0.00  0.00    +0.000 C 
ATOM      3  C   UNL     1      -2.690  12.827  22.069  0.00  0.00    +0.000 C 
ATOM      4  N   UNL     1      -3.406  12.534  20.841  0.00  0.00    +0.000 N 
ATOM      5  C   UNL     1      -4.789  12.425  20.763  0.00  0.00    +0.000 A 
ATOM      6  N   UNL     1      -5.489  12.542  21.876  0.00  0.00    +0.000 NA
ATOM      7  C   UNL     1      -6.866  12.453  21.837  0.00  0.00    +0.000 A 
ATOM      8  C   UNL     1      -7.574  12.248  20.719  0.00  0.00    +0.000 A 
ATOM      9  N   UNL     1      -6.881  12.120  19.532  0.00  0.00    +0.000 N 
ATOM     10  N   UNL     1      -7.298  11.918  18.266  0.00  0.00    +0.000 NA
ATOM     11  N   UNL     1      -6.195  11.887  17.525  0.00  0.00    +0.000 NA
ATOM     12  N   UNL     1      -5.070  12.064  18.296  0.00  0.00    +0.000 NA
ATOM     13  C   UNL     1      -5.514  12.203  19.524  0.00  0.00    +0.000 A 
ATOM     14  C   UNL     1      -2.495  12.494  19.694  0.00  0.00    +0.000 C 
ENDROOT
BRANCH   1  18
ATOM     15  C   UNL     1       0.889   9.981  20.407  0.00  0.00    +0.000 A 
ATOM     16  N   UNL     1       1.087  10.463  21.644  0.00  0.00    +0.000 NA
ATOM     17  O   UNL     1       0.364  11.649  21.667  0.00  0.00    +0.000 OA
ATOM     18  C   UNL     1      -0.216  11.777  20.437  0.00  0.00    +0.000 A 
ATOM     19  N   UNL     1       0.090  10.791  19.623  0.00  0.00    +0.000 NA
BRANCH  15  24
ATOM     20  F   UNL     1       3.022   5.163  18.512  0.00  0.00    +0.000 F 
ATOM     21  C   UNL     1       2.509   6.315  18.966  0.00  0.00    +0.000 A 
ATOM     22  C   UNL     1       2.031   6.384  20.269  0.00  0.00    +0.000 A 
ATOM     23  C   UNL     1       1.497   7.585  20.745  0.00  0.00    +0.000 A 
ATOM     24  C   UNL     1       1.443   8.721  19.918  0.00  0.00    +0.000 A 
ATOM     25  C   UNL     1       1.930   8.624  18.603  0.00  0.00    +0.000 A 
ATOM     26  C   UNL     1       2.464   7.421  18.129  0.00  0.00    +0.000 A 
ENDBRANCH  15  24
ENDBRANCH   1  18
BRANCH   1  27
ATOM     27  C   UNL     1      -0.445  13.943  19.273  0.00  0.00    +0.000 C 
ATOM     28  F   UNL     1       0.890  14.042  19.459  0.00  0.00    +0.000 F 
ATOM     29  F   UNL     1      -0.620  13.618  17.971  0.00  0.00    +0.000 F 
ATOM     30  F   UNL     1      -0.937  15.196  19.424  0.00  0.00    +0.000 F 
ENDBRANCH   1  27
TORSDOF 3
ENDMDL
MODEL 9
REMARK VINA RESULT:      -7.7      8.526     11.015
REMARK  Name = 
REMARK  3 active torsions:
REMARK  status: ('A' for Active; 'I' for Inactive)
REMARK    1  A    between atoms: C_5  and  C_6
REMARK    2  A    between atoms: C_9  and  C_10
REMARK    3  A    between atoms: C_10  and  C_11
REMARK                            x       y       z     vdW  Elec       q    Type
REMARK                         _______ _______ _______ _____ _____    ______ ____
ROOT
ATOM      1  C   UNL     1      -1.105  12.956  20.216  0.00  0.00    +0.000 C 
ATOM      2  C   UNL     1      -1.459  13.623  21.565  0.00  0.00    +0.000 C 
ATOM      3  C   UNL     1      -2.669  12.849  22.069  0.00  0.00    +0.000 C 
ATOM      4  N   UNL     1      -3.391  12.550  20.846  0.00  0.00    +0.000 N 
ATOM      5  C   UNL     1      -4.775  12.444  20.775  0.00  0.00    +0.000 A 
ATOM      6  N   UNL     1      -5.470  12.569  21.891  0.00  0.00    +0.000 NA
ATOM      7  C   UNL     1      -6.847  12.482  21.859  0.00  0.00    +0.000 A 
ATOM      8  C   UNL     1      -7.561  12.272  20.745  0.00  0.00    +0.000 A 
ATOM      9  N   UNL     1      -6.873  12.136  19.556  0.00  0.00    +0.000 N 
ATOM     10  N   UNL     1      -7.296  11.927  18.292  0.00  0.00    +0.000 NA
ATOM     11  N   UNL     1      -6.197  11.889  17.547  0.00  0.00    +0.000 NA
ATOM     12  N   UNL     1      -5.068  12.069  18.311  0.00  0.00    +0.000 NA
ATOM     13  C   UNL     1      -5.506  12.216  19.541  0.00  0.00    +0.000 A 
ATOM     14  C   UNL     1      -2.486  12.502  19.696  0.00  0.00    +0.000 C 
ENDROOT
BRANCH   1  18
ATOM     15  C   UNL     1       0.896   9.985  20.408  0.00  0.00    +0.000 A 
ATOM     16  N   UNL     1       1.102  10.475  21.642  0.00  0.00    +0.000 NA
ATOM     17  O   UNL     1       0.381  11.663  21.660  0.00  0.00    +0.000 OA
ATOM     18  C   UNL     1      -0.205  11.784  20.432  0.00  0.00    +0.000 A 
ATOM     19  N   UNL     1       0.095  10.792  19.624  0.00  0.00    +0.000 NA
BRANCH  15  24
ATOM     20  F   UNL     1       2.995   5.128  18.577  0.00  0.00    +0.000 F 
ATOM     21  C   UNL     1       2.494   6.291  19.015  0.00  0.00    +0.000 A 
ATOM     22  C   UNL     1       2.483   7.393  18.167  0.00  0.00    +0.000 A 
ATOM     23  C   UNL     1       1.960   8.607  18.622  0.00  0.00    +0.000 A 
ATOM     24  C   UNL     1       1.445   8.721  19.925  0.00  0.00    +0.000 A 
ATOM     25  C   UNL     1       1.472   7.593  20.764  0.00  0.00    +0.000 A 
ATOM     26  C   UNL     1       1.995   6.379  20.307  0.00  0.00    +0.000 A 
ENDBRANCH  15  24
ENDBRANCH   1  18
BRANCH   1  27
ATOM     27  C   UNL     1      -0.435  13.943  19.256  0.00  0.00    +0.000 C 
ATOM     28  F   UNL     1      -0.895  15.209  19.384  0.00  0.00    +0.000 F 
ATOM     29  F   UNL     1       0.905  14.012  19.430  0.00  0.00    +0.000 F 
ATOM     30  F   UNL     1      -0.636  13.602  17.960  0.00  0.00    +0.000 F 
ENDBRANCH   1  27
TORSDOF 3
ENDMDL
