MODEL 1
REMARK VINA RESULT:      -7.7      0.000      0.000
REMARK  Name = 
REMARK  4 active torsions:
REMARK  status: ('A' for Active; 'I' for Inactive)
REMARK    1  A    between atoms: C_2  and  C_19
REMARK    2  A    between atoms: N_3  and  C_4
REMARK    3  A    between atoms: N_10  and  C_11
REMARK    4  A    between atoms: C_21  and  C_22
REMARK                            x       y       z     vdW  Elec       q    Type
REMARK                         _______ _______ _______ _____ _____    ______ ____
ROOT
ATOM      1  O   UNL     1       8.150   7.480  16.621  0.00  0.00    +0.000 OA
ATOM      2  C   UNL     1       7.838   7.514  17.803  0.00  0.00    +0.000 C 
ATOM      3  N   UNL     1       8.246   8.545  18.627  0.00  0.00    +0.000 N 
ATOM      4  H   UNL     1       8.003   8.483  19.609  0.00  0.00    +0.000 HD
ENDROOT
BRANCH   3   5
ATOM      5  C   UNL     1       9.001   9.704  18.112  0.00  0.00    +0.000 C 
ATOM      6  C   UNL     1       9.897  10.365  19.175  0.00  0.00    +0.000 C 
ATOM      7  C   UNL     1       9.244  11.555  19.861  0.00  0.00    +0.000 C 
ATOM      8  N   UNL     1       8.834  12.537  18.860  0.00  0.00    +0.000 N 
ATOM      9  C   UNL     1       9.529  13.739  18.829  0.00  0.00    +0.000 C 
ATOM     10  O   UNL     1      10.480  13.905  19.593  0.00  0.00    +0.000 OA
ATOM     11  N   UNL     1       9.103  14.700  17.936  0.00  0.00    +0.000 N 
ATOM     12  C   UNL     1       7.770  12.050  17.992  0.00  0.00    +0.000 C 
ATOM     13  C   UNL     1       8.155  10.725  17.299  0.00  0.00    +0.000 C 
ATOM     14  H   UNL     1       8.162  14.618  17.588  0.00  0.00    +0.000 HD
BRANCH  11  15
ATOM     15  C   UNL     1       9.737  15.965  17.752  0.00  0.00    +0.000 A 
ATOM     16  C   UNL     1      11.053  16.097  17.288  0.00  0.00    +0.000 A 
ATOM     17  C   UNL     1      11.674  17.344  17.190  0.00  0.00    +0.000 A 
ATOM     18  C   UNL     1      10.980  18.496  17.532  0.00  0.00    +0.000 A 
ATOM     19  C   UNL     1       9.657  18.395  17.956  0.00  0.00    +0.000 A 
ATOM     20  C   UNL     1       9.036  17.138  18.059  0.00  0.00    +0.000 A 
ENDBRANCH  11  15
ENDBRANCH   3   5
BRANCH   2  21
ATOM     21  C   UNL     1       7.051   6.401  18.366  0.00  0.00    +0.000 A 
ATOM     22  C   UNL     1       5.738   6.091  17.906  0.00  0.00    +0.000 A 
ATOM     23  C   UNL     1       5.257   5.071  18.694  0.00  0.00    +0.000 A 
ATOM     24  N   UNL     1       6.282   4.832  19.579  0.00  0.00    +0.000 N 
ATOM     25  N   UNL     1       7.401   5.579  19.375  0.00  0.00    +0.000 NA
ATOM     26  H   UNL     1       6.280   4.167  20.345  0.00  0.00    +0.000 HD
BRANCH  23  27
ATOM     27  C   UNL     1       3.970   4.365  18.661  0.00  0.00    +0.000 A 
ATOM     28  C   UNL     1       2.902   4.881  17.901  0.00  0.00    +0.000 A 
ATOM     29  C   UNL     1       1.674   4.218  17.837  0.00  0.00    +0.000 A 
ATOM     30  C   UNL     1       1.496   3.036  18.543  0.00  0.00    +0.000 A 
ATOM     31  F   UNL     1       0.323   2.394  18.482  0.00  0.00    +0.000 F 
ATOM     32  C   UNL     1       2.526   2.513  19.315  0.00  0.00    +0.000 A 
ATOM     33  C   UNL     1       3.759   3.178  19.377  0.00  0.00    +0.000 A 
ENDBRANCH  23  27
ENDBRANCH   2  21
TORSDOF 4
ENDMDL
MODEL 2
REMARK VINA RESULT:      -7.6      9.557     10.909
REMARK  Name = 
REMARK  4 active torsions:
REMARK  status: ('A' for Active; 'I' for Inactive)
REMARK    1  A    between atoms: C_2  and  C_19
REMARK    2  A    between atoms: N_3  and  C_4
REMARK    3  A    between atoms: N_10  and  C_11
REMARK    4  A    between atoms: C_21  and  C_22
REMARK                            x       y       z     vdW  Elec       q    Type
REMARK                         _______ _______ _______ _____ _____    ______ ____
ROOT
ATOM      1  O   UNL     1       1.826  11.201  18.215  0.00  0.00    +0.000 OA
ATOM      2  C   UNL     1       1.211  10.311  18.788  0.00  0.00    +0.000 C 
ATOM      3  N   UNL     1      -0.011  10.550  19.385  0.00  0.00    +0.000 N 
ATOM      4  H   UNL     1      -0.440   9.785  19.893  0.00  0.00    +0.000 HD
ENDROOT
BRANCH   3   5
ATOM      5  C   UNL     1      -0.685  11.859  19.290  0.00  0.00    +0.000 C 
ATOM      6  C   UNL     1      -0.880  12.542  20.655  0.00  0.00    +0.000 C 
ATOM      7  C   UNL     1      -2.250  12.289  21.267  0.00  0.00    +0.000 C 
ATOM      8  N   UNL     1      -3.293  12.710  20.335  0.00  0.00    +0.000 N 
ATOM      9  C   UNL     1      -4.040  13.827  20.683  0.00  0.00    +0.000 C 
ATOM     10  O   UNL     1      -3.766  14.439  21.716  0.00  0.00    +0.000 OA
ATOM     11  N   UNL     1      -5.074  14.190  19.845  0.00  0.00    +0.000 N 
ATOM     12  C   UNL     1      -3.332  11.898  19.126  0.00  0.00    +0.000 C 
ATOM     13  C   UNL     1      -1.966  11.871  18.406  0.00  0.00    +0.000 C 
ATOM     14  H   UNL     1      -5.427  13.485  19.219  0.00  0.00    +0.000 HD
BRANCH  11  15
ATOM     15  C   UNL     1      -5.904  15.335  20.039  0.00  0.00    +0.000 A 
ATOM     16  C   UNL     1      -5.562  16.611  19.572  0.00  0.00    +0.000 A 
ATOM     17  C   UNL     1      -6.356  17.728  19.843  0.00  0.00    +0.000 A 
ATOM     18  C   UNL     1      -7.530  17.587  20.569  0.00  0.00    +0.000 A 
ATOM     19  C   UNL     1      -7.913  16.322  21.009  0.00  0.00    +0.000 A 
ATOM     20  C   UNL     1      -7.109  15.200  20.740  0.00  0.00    +0.000 A 
ENDBRANCH  11  15
ENDBRANCH   3   5
BRANCH   2  21
ATOM     21  C   UNL     1       1.819   8.971  18.883  0.00  0.00    +0.000 A 
ATOM     22  C   UNL     1       2.613   8.422  17.834  0.00  0.00    +0.000 A 
ATOM     23  C   UNL     1       2.943   7.137  18.198  0.00  0.00    +0.000 A 
ATOM     24  N   UNL     1       2.331   6.978  19.420  0.00  0.00    +0.000 N 
ATOM     25  N   UNL     1       1.690   8.083  19.888  0.00  0.00    +0.000 NA
ATOM     26  H   UNL     1       2.319   6.137  19.987  0.00  0.00    +0.000 HD
BRANCH  23  27
ATOM     27  C   UNL     1       3.744   6.123  17.502  0.00  0.00    +0.000 A 
ATOM     28  C   UNL     1       3.460   4.755  17.684  0.00  0.00    +0.000 A 
ATOM     29  C   UNL     1       4.194   3.770  17.017  0.00  0.00    +0.000 A 
ATOM     30  C   UNL     1       5.228   4.141  16.170  0.00  0.00    +0.000 A 
ATOM     31  F   UNL     1       5.931   3.202  15.525  0.00  0.00    +0.000 F 
ATOM     32  C   UNL     1       5.541   5.483  15.985  0.00  0.00    +0.000 A 
ATOM     33  C   UNL     1       4.804   6.470  16.653  0.00  0.00    +0.000 A 
ENDBRANCH  23  27
ENDBRANCH   2  21
TORSDOF 4
ENDMDL
MODEL 3
REMARK VINA RESULT:      -7.6      7.548      9.405
REMARK  Name = 
REMARK  4 active torsions:
REMARK  status: ('A' for Active; 'I' for Inactive)
REMARK    1  A    between atoms: C_2  and  C_19
REMARK    2  A    between atoms: N_3  and  C_4
REMARK    3  A    between atoms: N_10  and  C_11
REMARK    4  A    between atoms: C_21  and  C_22
REMARK                            x       y       z     vdW  Elec       q    Type
REMARK                         _______ _______ _______ _____ _____    ______ ____
ROOT
ATOM      1  O   UNL     1       1.742   5.495  20.160  0.00  0.00    +0.000 OA
ATOM      2  C   UNL     1       2.475   6.302  19.605  0.00  0.00    +0.000 C 
ATOM      3  N   UNL     1       2.157   7.645  19.549  0.00  0.00    +0.000 N 
ATOM      4  H   UNL     1       2.777   8.251  19.023  0.00  0.00    +0.000 HD
ENDROOT
BRANCH   3   5
ATOM      5  C   UNL     1       0.969   8.195  20.229  0.00  0.00    +0.000 C 
ATOM      6  C   UNL     1       0.207   9.228  19.379  0.00  0.00    +0.000 C 
ATOM      7  C   UNL     1       0.598  10.667  19.681  0.00  0.00    +0.000 C 
ATOM      8  N   UNL     1       0.409  10.941  21.104  0.00  0.00    +0.000 N 
ATOM      9  C   UNL     1      -0.617  11.810  21.451  0.00  0.00    +0.000 C 
ATOM     10  O   UNL     1      -1.347  12.264  20.569  0.00  0.00    +0.000 OA
ATOM     11  N   UNL     1      -0.758  12.131  22.785  0.00  0.00    +0.000 N 
ATOM     12  C   UNL     1       1.318  10.181  21.952  0.00  0.00    +0.000 C 
ATOM     13  C   UNL     1       1.213   8.663  21.693  0.00  0.00    +0.000 C 
ATOM     14  H   UNL     1       0.041  11.983  23.380  0.00  0.00    +0.000 HD
BRANCH  11  15
ATOM     15  C   UNL     1      -1.787  12.972  23.306  0.00  0.00    +0.000 A 
ATOM     16  C   UNL     1      -1.589  14.329  23.592  0.00  0.00    +0.000 A 
ATOM     17  C   UNL     1      -2.592  15.110  24.173  0.00  0.00    +0.000 A 
ATOM     18  C   UNL     1      -3.830  14.552  24.458  0.00  0.00    +0.000 A 
ATOM     19  C   UNL     1      -4.065  13.215  24.144  0.00  0.00    +0.000 A 
ATOM     20  C   UNL     1      -3.052  12.430  23.565  0.00  0.00    +0.000 A 
ENDBRANCH  11  15
ENDBRANCH   3   5
BRANCH   2  21
ATOM     21  C   UNL     1       3.698   5.815  18.938  0.00  0.00    +0.000 A 
ATOM     22  C   UNL     1       3.835   5.805  17.519  0.00  0.00    +0.000 A 
ATOM     23  C   UNL     1       5.041   5.210  17.229  0.00  0.00    +0.000 A 
ATOM     24  N   UNL     1       5.553   4.888  18.464  0.00  0.00    +0.000 N 
ATOM     25  N   UNL     1       4.793   5.288  19.520  0.00  0.00    +0.000 NA
ATOM     26  H   UNL     1       6.419   4.398  18.653  0.00  0.00    +0.000 HD
BRANCH  23  27
ATOM     27  C   UNL     1       5.688   4.944  15.938  0.00  0.00    +0.000 A 
ATOM     28  C   UNL     1       5.003   4.218  14.943  0.00  0.00    +0.000 A 
ATOM     29  C   UNL     1       5.588   3.968  13.699  0.00  0.00    +0.000 A 
ATOM     30  C   UNL     1       6.870   4.431  13.439  0.00  0.00    +0.000 A 
ATOM     31  F   UNL     1       7.434   4.198  12.248  0.00  0.00    +0.000 F 
ATOM     32  C   UNL     1       7.576   5.134  14.408  0.00  0.00    +0.000 A 
ATOM     33  C   UNL     1       6.988   5.386  15.655  0.00  0.00    +0.000 A 
ENDBRANCH  23  27
ENDBRANCH   2  21
TORSDOF 4
ENDMDL
MODEL 4
REMARK VINA RESULT:      -7.5      7.593      9.470
REMARK  Name = 
REMARK  4 active torsions:
REMARK  status: ('A' for Active; 'I' for Inactive)
REMARK    1  A    between atoms: C_2  and  C_19
REMARK    2  A    between atoms: N_3  and  C_4
REMARK    3  A    between atoms: N_10  and  C_11
REMARK    4  A    between atoms: C_21  and  C_22
REMARK                            x       y       z     vdW  Elec       q    Type
REMARK                         _______ _______ _______ _____ _____    ______ ____
ROOT
ATOM      1  O   UNL     1       1.822   5.413  20.104  0.00  0.00    +0.000 OA
ATOM      2  C   UNL     1       2.536   6.251  19.570  0.00  0.00    +0.000 C 
ATOM      3  N   UNL     1       2.196   7.589  19.565  0.00  0.00    +0.000 N 
ATOM      4  H   UNL     1       2.801   8.223  19.054  0.00  0.00    +0.000 HD
ENDROOT
BRANCH   3   5
ATOM      5  C   UNL     1       1.008   8.097  20.277  0.00  0.00    +0.000 C 
ATOM      6  C   UNL     1       0.173   9.081  19.440  0.00  0.00    +0.000 C 
ATOM      7  C   UNL     1       0.509  10.540  19.709  0.00  0.00    +0.000 C 
ATOM      8  N   UNL     1       0.354  10.827  21.133  0.00  0.00    +0.000 N 
ATOM      9  C   UNL     1      -0.697  11.655  21.503  0.00  0.00    +0.000 C 
ATOM     10  O   UNL     1      -1.475  12.063  20.641  0.00  0.00    +0.000 OA
ATOM     11  N   UNL     1      -0.808  11.990  22.837  0.00  0.00    +0.000 N 
ATOM     12  C   UNL     1       1.325  10.121  21.961  0.00  0.00    +0.000 C 
ATOM     13  C   UNL     1       1.279   8.596  21.726  0.00  0.00    +0.000 C 
ATOM     14  H   UNL     1       0.016  11.885  23.407  0.00  0.00    +0.000 HD
BRANCH  11  15
ATOM     15  C   UNL     1      -1.855  12.792  23.381  0.00  0.00    +0.000 A 
ATOM     16  C   UNL     1      -3.157  12.312  23.578  0.00  0.00    +0.000 A 
ATOM     17  C   UNL     1      -4.181  13.142  24.042  0.00  0.00    +0.000 A 
ATOM     18  C   UNL     1      -3.918  14.470  24.344  0.00  0.00    +0.000 A 
ATOM     19  C   UNL     1      -2.622  14.960  24.197  0.00  0.00    +0.000 A 
ATOM     20  C   UNL     1      -1.594  14.125  23.725  0.00  0.00    +0.000 A 
ENDBRANCH  11  15
ENDBRANCH   3   5
BRANCH   2  21
ATOM     21  C   UNL     1       3.758   5.807  18.873  0.00  0.00    +0.000 A 
ATOM     22  C   UNL     1       3.832   5.723  17.451  0.00  0.00    +0.000 A 
ATOM     23  C   UNL     1       5.061   5.192  17.136  0.00  0.00    +0.000 A 
ATOM     24  N   UNL     1       5.648   4.977  18.361  0.00  0.00    +0.000 N 
ATOM     25  N   UNL     1       4.911   5.388  19.429  0.00  0.00    +0.000 NA
ATOM     26  H   UNL     1       6.554   4.557  18.535  0.00  0.00    +0.000 HD
BRANCH  23  27
ATOM     27  C   UNL     1       5.666   4.893  15.832  0.00  0.00    +0.000 A 
ATOM     28  C   UNL     1       6.931   5.420  15.505  0.00  0.00    +0.000 A 
ATOM     29  C   UNL     1       7.538   5.135  14.279  0.00  0.00    +0.000 A 
ATOM     30  C   UNL     1       6.881   4.329  13.360  0.00  0.00    +0.000 A 
ATOM     31  F   UNL     1       7.459   4.049  12.186  0.00  0.00    +0.000 F 
ATOM     32  C   UNL     1       5.624   3.810  13.648  0.00  0.00    +0.000 A 
ATOM     33  C   UNL     1       5.017   4.095  14.879  0.00  0.00    +0.000 A 
ENDBRANCH  23  27
ENDBRANCH   2  21
TORSDOF 4
ENDMDL
MODEL 5
REMARK VINA RESULT:      -7.4      9.324     10.354
REMARK  Name = 
REMARK  4 active torsions:
REMARK  status: ('A' for Active; 'I' for Inactive)
REMARK    1  A    between atoms: C_2  and  C_19
REMARK    2  A    between atoms: N_3  and  C_4
REMARK    3  A    between atoms: N_10  and  C_11
REMARK    4  A    between atoms: C_21  and  C_22
REMARK                            x       y       z     vdW  Elec       q    Type
REMARK                         _______ _______ _______ _____ _____    ______ ____
ROOT
ATOM      1  O   UNL     1      -0.027  10.227  18.053  0.00  0.00    +0.000 OA
ATOM      2  C   UNL     1       0.597  10.021  19.085  0.00  0.00    +0.000 C 
ATOM      3  N   UNL     1       0.524  10.889  20.156  0.00  0.00    +0.000 N 
ATOM      4  H   UNL     1       1.112  10.690  20.959  0.00  0.00    +0.000 HD
ENDROOT
BRANCH   3   5
ATOM      5  C   UNL     1      -0.373  12.059  20.154  0.00  0.00    +0.000 C 
ATOM      6  C   UNL     1       0.277  13.324  20.742  0.00  0.00    +0.000 C 
ATOM      7  C   UNL     1      -0.040  13.539  22.214  0.00  0.00    +0.000 C 
ATOM      8  N   UNL     1      -1.487  13.577  22.407  0.00  0.00    +0.000 N 
ATOM      9  C   UNL     1      -2.049  14.798  22.756  0.00  0.00    +0.000 C 
ATOM     10  O   UNL     1      -1.328  15.792  22.835  0.00  0.00    +0.000 OA
ATOM     11  N   UNL     1      -3.405  14.828  23.010  0.00  0.00    +0.000 N 
ATOM     12  C   UNL     1      -2.128  12.298  22.128  0.00  0.00    +0.000 C 
ATOM     13  C   UNL     1      -1.802  11.788  20.708  0.00  0.00    +0.000 C 
ATOM     14  H   UNL     1      -3.850  13.952  23.231  0.00  0.00    +0.000 HD
BRANCH  11  15
ATOM     15  C   UNL     1      -4.136  16.009  23.336  0.00  0.00    +0.000 A 
ATOM     16  C   UNL     1      -4.361  16.426  24.654  0.00  0.00    +0.000 A 
ATOM     17  C   UNL     1      -5.146  17.545  24.945  0.00  0.00    +0.000 A 
ATOM     18  C   UNL     1      -5.704  18.290  23.916  0.00  0.00    +0.000 A 
ATOM     19  C   UNL     1      -5.461  17.920  22.595  0.00  0.00    +0.000 A 
ATOM     20  C   UNL     1      -4.675  16.790  22.305  0.00  0.00    +0.000 A 
ENDBRANCH  11  15
ENDBRANCH   3   5
BRANCH   2  21
ATOM     21  C   UNL     1       1.483   8.844  19.159  0.00  0.00    +0.000 A 
ATOM     22  C   UNL     1       2.125   8.304  18.006  0.00  0.00    +0.000 A 
ATOM     23  C   UNL     1       2.795   7.170  18.403  0.00  0.00    +0.000 A 
ATOM     24  N   UNL     1       2.517   7.081  19.748  0.00  0.00    +0.000 N 
ATOM     25  N   UNL     1       1.773   8.105  20.248  0.00  0.00    +0.000 NA
ATOM     26  H   UNL     1       2.810   6.345  20.380  0.00  0.00    +0.000 HD
BRANCH  23  27
ATOM     27  C   UNL     1       3.620   6.229  17.635  0.00  0.00    +0.000 A 
ATOM     28  C   UNL     1       3.347   4.848  17.687  0.00  0.00    +0.000 A 
ATOM     29  C   UNL     1       4.105   3.934  16.949  0.00  0.00    +0.000 A 
ATOM     30  C   UNL     1       5.151   4.390  16.161  0.00  0.00    +0.000 A 
ATOM     31  F   UNL     1       5.878   3.520  15.449  0.00  0.00    +0.000 F 
ATOM     32  C   UNL     1       5.454   5.746  16.104  0.00  0.00    +0.000 A 
ATOM     33  C   UNL     1       4.693   6.662  16.843  0.00  0.00    +0.000 A 
ENDBRANCH  23  27
ENDBRANCH   2  21
TORSDOF 4
ENDMDL
MODEL 6
REMARK VINA RESULT:      -7.3      7.425      9.325
REMARK  Name = 
REMARK  4 active torsions:
REMARK  status: ('A' for Active; 'I' for Inactive)
REMARK    1  A    between atoms: C_2  and  C_19
REMARK    2  A    between atoms: N_3  and  C_4
REMARK    3  A    between atoms: N_10  and  C_11
REMARK    4  A    between atoms: C_21  and  C_22
REMARK                            x       y       z     vdW  Elec       q    Type
REMARK                         _______ _______ _______ _____ _____    ______ ____
ROOT
ATOM      1  O   UNL     1       2.060   5.604  19.208  0.00  0.00    +0.000 OA
ATOM      2  C   UNL     1       2.788   6.461  18.724  0.00  0.00    +0.000 C 
ATOM      3  N   UNL     1       2.442   7.798  18.751  0.00  0.00    +0.000 N 
ATOM      4  H   UNL     1       3.060   8.450  18.281  0.00  0.00    +0.000 HD
ENDROOT
BRANCH   3   5
ATOM      5  C   UNL     1       1.229   8.278  19.440  0.00  0.00    +0.000 C 
ATOM      6  C   UNL     1       0.573   9.485  18.745  0.00  0.00    +0.000 C 
ATOM      7  C   UNL     1       0.997  10.823  19.331  0.00  0.00    +0.000 C 
ATOM      8  N   UNL     1       0.712  10.846  20.764  0.00  0.00    +0.000 N 
ATOM      9  C   UNL     1      -0.302  11.690  21.196  0.00  0.00    +0.000 C 
ATOM     10  O   UNL     1      -0.945  12.333  20.365  0.00  0.00    +0.000 OA
ATOM     11  N   UNL     1      -0.530  11.773  22.554  0.00  0.00    +0.000 N 
ATOM     12  C   UNL     1       1.525   9.900  21.517  0.00  0.00    +0.000 C 
ATOM     13  C   UNL     1       1.380   8.460  20.978  0.00  0.00    +0.000 C 
ATOM     14  H   UNL     1       0.215  11.478  23.163  0.00  0.00    +0.000 HD
BRANCH  11  15
ATOM     15  C   UNL     1      -1.562  12.559  23.150  0.00  0.00    +0.000 A 
ATOM     16  C   UNL     1      -2.855  12.070  23.379  0.00  0.00    +0.000 A 
ATOM     17  C   UNL     1      -3.866  12.885  23.894  0.00  0.00    +0.000 A 
ATOM     18  C   UNL     1      -3.596  14.207  24.218  0.00  0.00    +0.000 A 
ATOM     19  C   UNL     1      -2.307  14.705  24.040  0.00  0.00    +0.000 A 
ATOM     20  C   UNL     1      -1.293  13.884  23.515  0.00  0.00    +0.000 A 
ENDBRANCH  11  15
ENDBRANCH   3   5
BRANCH   2  21
ATOM     21  C   UNL     1       4.034   6.044  18.054  0.00  0.00    +0.000 A 
ATOM     22  C   UNL     1       4.091   5.785  16.654  0.00  0.00    +0.000 A 
ATOM     23  C   UNL     1       5.360   5.332  16.372  0.00  0.00    +0.000 A 
ATOM     24  N   UNL     1       5.985   5.331  17.598  0.00  0.00    +0.000 N 
ATOM     25  N   UNL     1       5.231   5.807  18.626  0.00  0.00    +0.000 NA
ATOM     26  H   UNL     1       6.929   5.021  17.797  0.00  0.00    +0.000 HD
BRANCH  23  27
ATOM     27  C   UNL     1       5.968   4.924  15.100  0.00  0.00    +0.000 A 
ATOM     28  C   UNL     1       5.319   3.980  14.280  0.00  0.00    +0.000 A 
ATOM     29  C   UNL     1       5.866   3.590  13.054  0.00  0.00    +0.000 A 
ATOM     30  C   UNL     1       7.076   4.131  12.641  0.00  0.00    +0.000 A 
ATOM     31  F   UNL     1       7.603   3.764  11.467  0.00  0.00    +0.000 F 
ATOM     32  C   UNL     1       7.747   5.051  13.438  0.00  0.00    +0.000 A 
ATOM     33  C   UNL     1       7.196   5.443  14.666  0.00  0.00    +0.000 A 
ENDBRANCH  23  27
ENDBRANCH   2  21
TORSDOF 4
ENDMDL
MODEL 7
REMARK VINA RESULT:      -7.1      8.666      9.630
REMARK  Name = 
REMARK  4 active torsions:
REMARK  status: ('A' for Active; 'I' for Inactive)
REMARK    1  A    between atoms: C_2  and  C_19
REMARK    2  A    between atoms: N_3  and  C_4
REMARK    3  A    between atoms: N_10  and  C_11
REMARK    4  A    between atoms: C_21  and  C_22
REMARK                            x       y       z     vdW  Elec       q    Type
REMARK                         _______ _______ _______ _____ _____    ______ ____
ROOT
ATOM      1  O   UNL     1       0.037   9.738  18.073  0.00  0.00    +0.000 OA
ATOM      2  C   UNL     1       0.829   9.624  18.999  0.00  0.00    +0.000 C 
ATOM      3  N   UNL     1       0.911  10.574  19.998  0.00  0.00    +0.000 N 
ATOM      4  H   UNL     1       1.629  10.449  20.703  0.00  0.00    +0.000 HD
ENDROOT
BRANCH   3   5
ATOM      5  C   UNL     1      -0.007  11.727  20.057  0.00  0.00    +0.000 C 
ATOM      6  C   UNL     1       0.722  13.080  20.148  0.00  0.00    +0.000 C 
ATOM      7  C   UNL     1       0.875  13.590  21.573  0.00  0.00    +0.000 C 
ATOM      8  N   UNL     1      -0.438  13.677  22.208  0.00  0.00    +0.000 N 
ATOM      9  C   UNL     1      -0.930  14.948  22.475  0.00  0.00    +0.000 C 
ATOM     10  O   UNL     1      -0.279  15.932  22.125  0.00  0.00    +0.000 OA
ATOM     11  N   UNL     1      -2.135  15.040  23.140  0.00  0.00    +0.000 N 
ATOM     12  C   UNL     1      -1.059  12.374  22.404  0.00  0.00    +0.000 C 
ATOM     13  C   UNL     1      -1.169  11.585  21.082  0.00  0.00    +0.000 C 
ATOM     14  H   UNL     1      -2.437  14.230  23.657  0.00  0.00    +0.000 HD
BRANCH  11  15
ATOM     15  C   UNL     1      -2.793  16.268  23.448  0.00  0.00    +0.000 A 
ATOM     16  C   UNL     1      -2.587  16.963  24.647  0.00  0.00    +0.000 A 
ATOM     17  C   UNL     1      -3.302  18.124  24.953  0.00  0.00    +0.000 A 
ATOM     18  C   UNL     1      -4.225  18.631  24.051  0.00  0.00    +0.000 A 
ATOM     19  C   UNL     1      -4.418  17.981  22.833  0.00  0.00    +0.000 A 
ATOM     20  C   UNL     1      -3.702  16.810  22.529  0.00  0.00    +0.000 A 
ENDBRANCH  11  15
ENDBRANCH   3   5
BRANCH   2  21
ATOM     21  C   UNL     1       1.748   8.470  19.013  0.00  0.00    +0.000 A 
ATOM     22  C   UNL     1       2.429   8.029  17.841  0.00  0.00    +0.000 A 
ATOM     23  C   UNL     1       3.123   6.889  18.176  0.00  0.00    +0.000 A 
ATOM     24  N   UNL     1       2.821   6.701  19.504  0.00  0.00    +0.000 N 
ATOM     25  N   UNL     1       2.038   7.667  20.056  0.00  0.00    +0.000 NA
ATOM     26  H   UNL     1       3.124   5.932  20.092  0.00  0.00    +0.000 HD
BRANCH  23  27
ATOM     27  C   UNL     1       3.991   6.027  17.364  0.00  0.00    +0.000 A 
ATOM     28  C   UNL     1       4.857   6.597  16.410  0.00  0.00    +0.000 A 
ATOM     29  C   UNL     1       5.708   5.800  15.639  0.00  0.00    +0.000 A 
ATOM     30  C   UNL     1       5.693   4.423  15.803  0.00  0.00    +0.000 A 
ATOM     31  F   UNL     1       6.508   3.655  15.070  0.00  0.00    +0.000 F 
ATOM     32  C   UNL     1       4.835   3.831  16.724  0.00  0.00    +0.000 A 
ATOM     33  C   UNL     1       3.984   4.631  17.499  0.00  0.00    +0.000 A 
ENDBRANCH  23  27
ENDBRANCH   2  21
TORSDOF 4
ENDMDL
MODEL 8
REMARK VINA RESULT:      -7.1      7.369      9.316
REMARK  Name = 
REMARK  4 active torsions:
REMARK  status: ('A' for Active; 'I' for Inactive)
REMARK    1  A    between atoms: C_2  and  C_19
REMARK    2  A    between atoms: N_3  and  C_4
REMARK    3  A    between atoms: N_10  and  C_11
REMARK    4  A    between atoms: C_21  and  C_22
REMARK                            x       y       z     vdW  Elec       q    Type
REMARK                         _______ _______ _______ _____ _____    ______ ____
ROOT
ATOM      1  O   UNL     1       2.182   5.797  18.906  0.00  0.00    +0.000 OA
ATOM      2  C   UNL     1       2.882   6.674  18.418  0.00  0.00    +0.000 C 
ATOM      3  N   UNL     1       2.508   8.003  18.462  0.00  0.00    +0.000 N 
ATOM      4  H   UNL     1       3.104   8.672  17.988  0.00  0.00    +0.000 HD
ENDROOT
BRANCH   3   5
ATOM      5  C   UNL     1       1.297   8.450  19.176  0.00  0.00    +0.000 C 
ATOM      6  C   UNL     1       0.636   9.684  18.536  0.00  0.00    +0.000 C 
ATOM      7  C   UNL     1       1.059  10.997  19.178  0.00  0.00    +0.000 C 
ATOM      8  N   UNL     1       0.780  10.958  20.612  0.00  0.00    +0.000 N 
ATOM      9  C   UNL     1      -0.234  11.780  21.083  0.00  0.00    +0.000 C 
ATOM     10  O   UNL     1      -0.882  12.457  20.284  0.00  0.00    +0.000 OA
ATOM     11  N   UNL     1      -0.457  11.804  22.445  0.00  0.00    +0.000 N 
ATOM     12  C   UNL     1       1.597   9.981  21.320  0.00  0.00    +0.000 C 
ATOM     13  C   UNL     1       1.453   8.566  20.720  0.00  0.00    +0.000 C 
ATOM     14  H   UNL     1       0.291  11.485  23.038  0.00  0.00    +0.000 HD
BRANCH  11  15
ATOM     15  C   UNL     1      -1.488  12.561  23.078  0.00  0.00    +0.000 A 
ATOM     16  C   UNL     1      -1.311  13.886  23.498  0.00  0.00    +0.000 A 
ATOM     17  C   UNL     1      -2.313  14.577  24.184  0.00  0.00    +0.000 A 
ATOM     18  C   UNL     1      -3.529  13.963  24.444  0.00  0.00    +0.000 A 
ATOM     19  C   UNL     1      -3.745  12.660  24.000  0.00  0.00    +0.000 A 
ATOM     20  C   UNL     1      -2.733  11.964  23.315  0.00  0.00    +0.000 A 
ENDBRANCH  11  15
ENDBRANCH   3   5
BRANCH   2  21
ATOM     21  C   UNL     1       4.125   6.290  17.723  0.00  0.00    +0.000 A 
ATOM     22  C   UNL     1       4.132   5.856  16.365  0.00  0.00    +0.000 A 
ATOM     23  C   UNL     1       5.422   5.490  16.058  0.00  0.00    +0.000 A 
ATOM     24  N   UNL     1       6.110   5.708  17.229  0.00  0.00    +0.000 N 
ATOM     25  N   UNL     1       5.369   6.243  18.238  0.00  0.00    +0.000 NA
ATOM     26  H   UNL     1       7.091   5.515  17.401  0.00  0.00    +0.000 HD
BRANCH  23  27
ATOM     27  C   UNL     1       5.998   4.977  14.809  0.00  0.00    +0.000 A 
ATOM     28  C   UNL     1       7.245   5.453  14.360  0.00  0.00    +0.000 A 
ATOM     29  C   UNL     1       7.824   4.967  13.185  0.00  0.00    +0.000 A 
ATOM     30  C   UNL     1       7.156   4.007  12.438  0.00  0.00    +0.000 A 
ATOM     31  F   UNL     1       7.708   3.534  11.314  0.00  0.00    +0.000 F 
ATOM     32  C   UNL     1       5.916   3.531  12.847  0.00  0.00    +0.000 A 
ATOM     33  C   UNL     1       5.336   4.019  14.027  0.00  0.00    +0.000 A 
ENDBRANCH  23  27
ENDBRANCH   2  21
TORSDOF 4
ENDMDL
MODEL 9
REMARK VINA RESULT:      -7.1      9.249     10.689
REMARK  Name = 
REMARK  4 active torsions:
REMARK  status: ('A' for Active; 'I' for Inactive)
REMARK    1  A    between atoms: C_2  and  C_19
REMARK    2  A    between atoms: N_3  and  C_4
REMARK    3  A    between atoms: N_10  and  C_11
REMARK    4  A    between atoms: C_21  and  C_22
REMARK                            x       y       z     vdW  Elec       q    Type
REMARK                         _______ _______ _______ _____ _____    ______ ____
ROOT
ATOM      1  O   UNL     1      -0.550   9.647  20.055  0.00  0.00    +0.000 OA
ATOM      2  C   UNL     1       0.581   9.799  19.614  0.00  0.00    +0.000 C 
ATOM      3  N   UNL     1       1.011  11.022  19.138  0.00  0.00    +0.000 N 
ATOM      4  H   UNL     1       1.940  11.065  18.732  0.00  0.00    +0.000 HD
ENDROOT
BRANCH   3   5
ATOM      5  C   UNL     1       0.170  12.231  19.217  0.00  0.00    +0.000 C 
ATOM      6  C   UNL     1      -0.079  12.704  20.661  0.00  0.00    +0.000 C 
ATOM      7  C   UNL     1      -1.388  12.195  21.246  0.00  0.00    +0.000 C 
ATOM      8  N   UNL     1      -2.500  12.589  20.384  0.00  0.00    +0.000 N 
ATOM      9  C   UNL     1      -3.378  13.543  20.879  0.00  0.00    +0.000 C 
ATOM     10  O   UNL     1      -3.161  14.050  21.979  0.00  0.00    +0.000 OA
ATOM     11  N   UNL     1      -4.472  13.868  20.102  0.00  0.00    +0.000 N 
ATOM     12  C   UNL     1      -2.463  11.938  19.081  0.00  0.00    +0.000 C 
ATOM     13  C   UNL     1      -1.124  12.184  18.353  0.00  0.00    +0.000 C 
ATOM     14  H   UNL     1      -4.744  13.207  19.394  0.00  0.00    +0.000 HD
BRANCH  11  15
ATOM     15  C   UNL     1      -5.439  14.859  20.449  0.00  0.00    +0.000 A 
ATOM     16  C   UNL     1      -6.627  14.559  21.129  0.00  0.00    +0.000 A 
ATOM     17  C   UNL     1      -7.590  15.537  21.387  0.00  0.00    +0.000 A 
ATOM     18  C   UNL     1      -7.373  16.849  20.992  0.00  0.00    +0.000 A 
ATOM     19  C   UNL     1      -6.181  17.181  20.352  0.00  0.00    +0.000 A 
ATOM     20  C   UNL     1      -5.215  16.194  20.088  0.00  0.00    +0.000 A 
ENDBRANCH  11  15
ENDBRANCH   3   5
BRANCH   2  21
ATOM     21  C   UNL     1       1.482   8.632  19.544  0.00  0.00    +0.000 A 
ATOM     22  C   UNL     1       2.122   8.240  18.333  0.00  0.00    +0.000 A 
ATOM     23  C   UNL     1       2.807   7.075  18.590  0.00  0.00    +0.000 A 
ATOM     24  N   UNL     1       2.539   6.825  19.916  0.00  0.00    +0.000 N 
ATOM     25  N   UNL     1       1.787   7.773  20.537  0.00  0.00    +0.000 NA
ATOM     26  H   UNL     1       2.845   6.023  20.455  0.00  0.00    +0.000 HD
BRANCH  23  27
ATOM     27  C   UNL     1       3.639   6.243  17.711  0.00  0.00    +0.000 A 
ATOM     28  C   UNL     1       3.463   4.845  17.693  0.00  0.00    +0.000 A 
ATOM     29  C   UNL     1       4.227   4.032  16.851  0.00  0.00    +0.000 A 
ATOM     30  C   UNL     1       5.185   4.606  16.028  0.00  0.00    +0.000 A 
ATOM     31  F   UNL     1       5.917   3.832  15.217  0.00  0.00    +0.000 F 
ATOM     32  C   UNL     1       5.393   5.981  16.039  0.00  0.00    +0.000 A 
ATOM     33  C   UNL     1       4.624   6.796  16.882  0.00  0.00    +0.000 A 
ENDBRANCH  23  27
ENDBRANCH   2  21
TORSDOF 4
ENDMDL
