MODEL 1
REMARK VINA RESULT:      -7.8      0.000      0.000
REMARK  Name = 
REMARK  6 active torsions:
REMARK  status: ('A' for Active; 'I' for Inactive)
REMARK    1  A    between atoms: S_2  and  N_4
REMARK    2  A    between atoms: S_2  and  C_18
REMARK    3  A    between atoms: N_4  and  C_5
REMARK    4  A    between atoms: C_5  and  C_6
REMARK    5  A    between atoms: C_9  and  C_10
REMARK    6  A    between atoms: C_10  and  N_11
REMARK                            x       y       z     vdW  Elec       q    Type
REMARK                         _______ _______ _______ _____ _____    ______ ____
ROOT
ATOM      1  N   UNL     1       1.767   4.048  19.882  0.00  0.00    +0.000 NA
ATOM      2  H   UNL     1       0.858   3.669  20.141  0.00  0.00    +0.000 HD
ENDROOT
BRANCH   1   4
ATOM      3  O   UNL     1       3.508   2.459  20.804  0.00  0.00    +0.000 OA
ATOM      4  S   UNL     1       2.886   2.824  19.550  0.00  0.00    +0.000 S 
ATOM      5  O   UNL     1       2.248   1.859  18.686  0.00  0.00    +0.000 OA
BRANCH   4   6
ATOM      6  C   UNL     1       4.097   3.719  18.606  0.00  0.00    +0.000 A 
ATOM      7  C   UNL     1       3.891   3.964  17.236  0.00  0.00    +0.000 A 
ATOM      8  C   UNL     1       4.809   4.750  16.529  0.00  0.00    +0.000 A 
ATOM      9  C   UNL     1       5.886   5.291  17.218  0.00  0.00    +0.000 A 
ATOM     10  C   UNL     1       6.071   5.050  18.581  0.00  0.00    +0.000 A 
ATOM     11  C   UNL     1       5.205   4.238  19.285  0.00  0.00    +0.000 A 
ATOM     12  C   UNL     1       7.281   5.749  19.108  0.00  0.00    +0.000 C 
ATOM     13  C   UNL     1       7.655   6.675  17.942  0.00  0.00    +0.000 C 
ATOM     14  C   UNL     1       7.004   6.117  16.667  0.00  0.00    +0.000 C 
ENDBRANCH   4   6
ENDBRANCH   1   4
BRANCH   1  15
ATOM     15  C   UNL     1       2.259   5.163  20.697  0.00  0.00    +0.000 C 
BRANCH  15  16
ATOM     16  C   UNL     1       1.967   6.512  20.086  0.00  0.00    +0.000 A 
ATOM     17  C   UNL     1       1.350   7.518  20.841  0.00  0.00    +0.000 A 
ATOM     18  C   UNL     1       1.168   8.796  20.308  0.00  0.00    +0.000 A 
ATOM     19  C   UNL     1       1.626   9.110  19.022  0.00  0.00    +0.000 A 
ATOM     20  C   UNL     1       2.213   8.094  18.255  0.00  0.00    +0.000 A 
ATOM     21  C   UNL     1       2.378   6.806  18.780  0.00  0.00    +0.000 A 
BRANCH  19  22
ATOM     22  C   UNL     1       1.465  10.512  18.468  0.00  0.00    +0.000 C 
BRANCH  22  23
ATOM     23  N   UNL     1       0.842  11.526  19.325  0.00  0.00    +0.000 NA
ATOM     24  C   UNL     1      -0.492  11.967  18.932  0.00  0.00    +0.000 C 
ATOM     25  C   UNL     1      -0.294  13.318  18.276  0.00  0.00    +0.000 C 
ATOM     26  C   UNL     1       0.881  13.913  19.029  0.00  0.00    +0.000 C 
ATOM     27  C   UNL     1       1.644  12.720  19.594  0.00  0.00    +0.000 C 
ENDBRANCH  22  23
ENDBRANCH  19  22
ENDBRANCH  15  16
ENDBRANCH   1  15
TORSDOF 6
ENDMDL
MODEL 2
REMARK VINA RESULT:      -7.7      0.986      1.426
REMARK  Name = 
REMARK  6 active torsions:
REMARK  status: ('A' for Active; 'I' for Inactive)
REMARK    1  A    between atoms: S_2  and  N_4
REMARK    2  A    between atoms: S_2  and  C_18
REMARK    3  A    between atoms: N_4  and  C_5
REMARK    4  A    between atoms: C_5  and  C_6
REMARK    5  A    between atoms: C_9  and  C_10
REMARK    6  A    between atoms: C_10  and  N_11
REMARK                            x       y       z     vdW  Elec       q    Type
REMARK                         _______ _______ _______ _____ _____    ______ ____
ROOT
ATOM      1  N   UNL     1       2.042   4.106  19.180  0.00  0.00    +0.000 NA
ATOM      2  H   UNL     1       1.145   3.632  19.269  0.00  0.00    +0.000 HD
ENDROOT
BRANCH   1   4
ATOM      3  O   UNL     1       3.799   2.380  19.761  0.00  0.00    +0.000 OA
ATOM      4  S   UNL     1       3.249   3.066  18.612  0.00  0.00    +0.000 S 
ATOM      5  O   UNL     1       2.730   2.366  17.461  0.00  0.00    +0.000 OA
BRANCH   4   6
ATOM      6  C   UNL     1       4.472   4.233  18.065  0.00  0.00    +0.000 A 
ATOM      7  C   UNL     1       4.253   5.002  16.908  0.00  0.00    +0.000 A 
ATOM      8  C   UNL     1       5.184   5.983  16.543  0.00  0.00    +0.000 A 
ATOM      9  C   UNL     1       6.287   6.185  17.360  0.00  0.00    +0.000 A 
ATOM     10  C   UNL     1       6.486   5.422  18.513  0.00  0.00    +0.000 A 
ATOM     11  C   UNL     1       5.606   4.418  18.863  0.00  0.00    +0.000 A 
ATOM     12  C   UNL     1       7.724   5.830  19.240  0.00  0.00    +0.000 C 
ATOM     13  C   UNL     1       8.109   7.132  18.523  0.00  0.00    +0.000 C 
ATOM     14  C   UNL     1       7.422   7.136  17.149  0.00  0.00    +0.000 C 
ENDBRANCH   4   6
ENDBRANCH   1   4
BRANCH   1  15
ATOM     15  C   UNL     1       2.422   4.985  20.291  0.00  0.00    +0.000 C 
BRANCH  15  16
ATOM     16  C   UNL     1       1.968   6.410  20.095  0.00  0.00    +0.000 A 
ATOM     17  C   UNL     1       1.259   7.078  21.102  0.00  0.00    +0.000 A 
ATOM     18  C   UNL     1       0.925   8.426  20.962  0.00  0.00    +0.000 A 
ATOM     19  C   UNL     1       1.317   9.150  19.829  0.00  0.00    +0.000 A 
ATOM     20  C   UNL     1       1.997   8.474  18.807  0.00  0.00    +0.000 A 
ATOM     21  C   UNL     1       2.316   7.116  18.936  0.00  0.00    +0.000 A 
BRANCH  19  22
ATOM     22  C   UNL     1       0.989  10.625  19.704  0.00  0.00    +0.000 C 
BRANCH  22  23
ATOM     23  N   UNL     1       0.088  11.044  18.626  0.00  0.00    +0.000 NA
ATOM     24  C   UNL     1      -0.190  12.474  18.540  0.00  0.00    +0.000 C 
ATOM     25  C   UNL     1      -1.574  12.651  19.131  0.00  0.00    +0.000 C 
ATOM     26  C   UNL     1      -2.291  11.369  18.754  0.00  0.00    +0.000 C 
ATOM     27  C   UNL     1      -1.189  10.337  18.545  0.00  0.00    +0.000 C 
ENDBRANCH  22  23
ENDBRANCH  19  22
ENDBRANCH  15  16
ENDBRANCH   1  15
TORSDOF 6
ENDMDL
MODEL 3
REMARK VINA RESULT:      -7.7      3.201      7.851
REMARK  Name = 
REMARK  6 active torsions:
REMARK  status: ('A' for Active; 'I' for Inactive)
REMARK    1  A    between atoms: S_2  and  N_4
REMARK    2  A    between atoms: S_2  and  C_18
REMARK    3  A    between atoms: N_4  and  C_5
REMARK    4  A    between atoms: C_5  and  C_6
REMARK    5  A    between atoms: C_9  and  C_10
REMARK    6  A    between atoms: C_10  and  N_11
REMARK                            x       y       z     vdW  Elec       q    Type
REMARK                         _______ _______ _______ _____ _____    ______ ____
ROOT
ATOM      1  N   UNL     1       1.724   8.238  21.570  0.00  0.00    +0.000 NA
ATOM      2  H   UNL     1       2.440   8.181  22.291  0.00  0.00    +0.000 HD
ENDROOT
BRANCH   1   4
ATOM      3  O   UNL     1      -0.777   8.172  21.955  0.00  0.00    +0.000 OA
ATOM      4  S   UNL     1       0.350   9.065  22.110  0.00  0.00    +0.000 S 
ATOM      5  O   UNL     1       0.677   9.697  23.367  0.00  0.00    +0.000 OA
BRANCH   4   6
ATOM      6  C   UNL     1       0.199  10.322  20.864  0.00  0.00    +0.000 A 
ATOM      7  C   UNL     1      -0.280   9.997  19.581  0.00  0.00    +0.000 A 
ATOM      8  C   UNL     1      -0.481  11.014  18.640  0.00  0.00    +0.000 A 
ATOM      9  C   UNL     1      -0.226  12.325  19.018  0.00  0.00    +0.000 A 
ATOM     10  C   UNL     1       0.237  12.635  20.299  0.00  0.00    +0.000 A 
ATOM     11  C   UNL     1       0.488  11.642  21.224  0.00  0.00    +0.000 A 
ATOM     12  C   UNL     1       0.419  14.105  20.482  0.00  0.00    +0.000 C 
ATOM     13  C   UNL     1      -0.260  14.676  19.228  0.00  0.00    +0.000 C 
ATOM     14  C   UNL     1      -0.327  13.558  18.177  0.00  0.00    +0.000 C 
ENDBRANCH   4   6
ENDBRANCH   1   4
BRANCH   1  15
ATOM     15  C   UNL     1       1.474   7.010  20.807  0.00  0.00    +0.000 C 
BRANCH  15  16
ATOM     16  C   UNL     1       2.453   6.811  19.676  0.00  0.00    +0.000 A 
ATOM     17  C   UNL     1       3.193   5.626  19.574  0.00  0.00    +0.000 A 
ATOM     18  C   UNL     1       4.025   5.400  18.475  0.00  0.00    +0.000 A 
ATOM     19  C   UNL     1       4.116   6.337  17.437  0.00  0.00    +0.000 A 
ATOM     20  C   UNL     1       3.401   7.537  17.556  0.00  0.00    +0.000 A 
ATOM     21  C   UNL     1       2.581   7.774  18.667  0.00  0.00    +0.000 A 
BRANCH  19  22
ATOM     22  C   UNL     1       4.987   6.064  16.226  0.00  0.00    +0.000 C 
BRANCH  22  23
ATOM     23  N   UNL     1       6.438   6.208  16.374  0.00  0.00    +0.000 NA
ATOM     24  C   UNL     1       7.190   4.972  16.563  0.00  0.00    +0.000 C 
ATOM     25  C   UNL     1       7.516   4.920  18.043  0.00  0.00    +0.000 C 
ATOM     26  C   UNL     1       7.688   6.378  18.422  0.00  0.00    +0.000 C 
ATOM     27  C   UNL     1       6.889   7.162  17.387  0.00  0.00    +0.000 C 
ENDBRANCH  22  23
ENDBRANCH  19  22
ENDBRANCH  15  16
ENDBRANCH   1  15
TORSDOF 6
ENDMDL
MODEL 4
REMARK VINA RESULT:      -7.6      0.846      1.945
REMARK  Name = 
REMARK  6 active torsions:
REMARK  status: ('A' for Active; 'I' for Inactive)
REMARK    1  A    between atoms: S_2  and  N_4
REMARK    2  A    between atoms: S_2  and  C_18
REMARK    3  A    between atoms: N_4  and  C_5
REMARK    4  A    between atoms: C_5  and  C_6
REMARK    5  A    between atoms: C_9  and  C_10
REMARK    6  A    between atoms: C_10  and  N_11
REMARK                            x       y       z     vdW  Elec       q    Type
REMARK                         _______ _______ _______ _____ _____    ______ ____
ROOT
ATOM      1  N   UNL     1       1.805   4.280  19.539  0.00  0.00    +0.000 NA
ATOM      2  H   UNL     1       0.837   3.983  19.642  0.00  0.00    +0.000 HD
ENDROOT
BRANCH   1   4
ATOM      3  O   UNL     1       3.375   2.577  20.559  0.00  0.00    +0.000 OA
ATOM      4  S   UNL     1       2.840   2.968  19.274  0.00  0.00    +0.000 S 
ATOM      5  O   UNL     1       2.167   2.041  18.394  0.00  0.00    +0.000 OA
BRANCH   4   6
ATOM      6  C   UNL     1       4.157   3.752  18.375  0.00  0.00    +0.000 A 
ATOM      7  C   UNL     1       5.278   4.260  19.056  0.00  0.00    +0.000 A 
ATOM      8  C   UNL     1       6.349   4.791  18.326  0.00  0.00    +0.000 A 
ATOM      9  C   UNL     1       6.279   4.771  16.940  0.00  0.00    +0.000 A 
ATOM     10  C   UNL     1       5.164   4.252  16.276  0.00  0.00    +0.000 A 
ATOM     11  C   UNL     1       4.078   3.770  16.978  0.00  0.00    +0.000 A 
ATOM     12  C   UNL     1       5.322   4.318  14.793  0.00  0.00    +0.000 C 
ATOM     13  C   UNL     1       6.803   4.693  14.640  0.00  0.00    +0.000 C 
ATOM     14  C   UNL     1       7.273   5.315  15.964  0.00  0.00    +0.000 C 
ENDBRANCH   4   6
ENDBRANCH   1   4
BRANCH   1  15
ATOM     15  C   UNL     1       2.278   5.287  20.495  0.00  0.00    +0.000 C 
BRANCH  15  16
ATOM     16  C   UNL     1       2.063   6.701  20.014  0.00  0.00    +0.000 A 
ATOM     17  C   UNL     1       2.449   7.081  18.722  0.00  0.00    +0.000 A 
ATOM     18  C   UNL     1       2.161   8.360  18.242  0.00  0.00    +0.000 A 
ATOM     19  C   UNL     1       1.455   9.281  19.027  0.00  0.00    +0.000 A 
ATOM     20  C   UNL     1       1.100   8.912  20.332  0.00  0.00    +0.000 A 
ATOM     21  C   UNL     1       1.404   7.636  20.822  0.00  0.00    +0.000 A 
BRANCH  19  22
ATOM     22  C   UNL     1       1.108  10.653  18.482  0.00  0.00    +0.000 C 
BRANCH  22  23
ATOM     23  N   UNL     1       1.618  11.828  19.195  0.00  0.00    +0.000 NA
ATOM     24  C   UNL     1       0.625  12.634  19.898  0.00  0.00    +0.000 C 
ATOM     25  C   UNL     1       0.395  13.848  19.020  0.00  0.00    +0.000 C 
ATOM     26  C   UNL     1       1.749  14.087  18.381  0.00  0.00    +0.000 C 
ATOM     27  C   UNL     1       2.457  12.738  18.416  0.00  0.00    +0.000 C 
ENDBRANCH  22  23
ENDBRANCH  19  22
ENDBRANCH  15  16
ENDBRANCH   1  15
TORSDOF 6
ENDMDL
MODEL 5
REMARK VINA RESULT:      -7.6      0.897      1.020
REMARK  Name = 
REMARK  6 active torsions:
REMARK  status: ('A' for Active; 'I' for Inactive)
REMARK    1  A    between atoms: S_2  and  N_4
REMARK    2  A    between atoms: S_2  and  C_18
REMARK    3  A    between atoms: N_4  and  C_5
REMARK    4  A    between atoms: C_5  and  C_6
REMARK    5  A    between atoms: C_9  and  C_10
REMARK    6  A    between atoms: C_10  and  N_11
REMARK                            x       y       z     vdW  Elec       q    Type
REMARK                         _______ _______ _______ _____ _____    ______ ____
ROOT
ATOM      1  N   UNL     1       1.913   4.450  19.630  0.00  0.00    +0.000 NA
ATOM      2  H   UNL     1       1.042   4.022  19.941  0.00  0.00    +0.000 HD
ENDROOT
BRANCH   1   4
ATOM      3  O   UNL     1       3.603   2.703  20.334  0.00  0.00    +0.000 OA
ATOM      4  S   UNL     1       3.042   3.291  19.138  0.00  0.00    +0.000 S 
ATOM      5  O   UNL     1       2.442   2.502  18.088  0.00  0.00    +0.000 OA
BRANCH   4   6
ATOM      6  C   UNL     1       4.299   4.325  18.424  0.00  0.00    +0.000 A 
ATOM      7  C   UNL     1       4.071   4.977  17.199  0.00  0.00    +0.000 A 
ATOM      8  C   UNL     1       5.034   5.862  16.697  0.00  0.00    +0.000 A 
ATOM      9  C   UNL     1       6.179   6.090  17.448  0.00  0.00    +0.000 A 
ATOM     10  C   UNL     1       6.386   5.445  18.670  0.00  0.00    +0.000 A 
ATOM     11  C   UNL     1       5.472   4.533  19.157  0.00  0.00    +0.000 A 
ATOM     12  C   UNL     1       7.672   5.861  19.304  0.00  0.00    +0.000 C 
ATOM     13  C   UNL     1       8.092   7.056  18.437  0.00  0.00    +0.000 C 
ATOM     14  C   UNL     1       7.350   6.950  17.095  0.00  0.00    +0.000 C 
ENDBRANCH   4   6
ENDBRANCH   1   4
BRANCH   1  15
ATOM     15  C   UNL     1       2.432   5.538  20.465  0.00  0.00    +0.000 C 
BRANCH  15  16
ATOM     16  C   UNL     1       1.958   6.900  20.018  0.00  0.00    +0.000 A 
ATOM     17  C   UNL     1       1.247   7.730  20.893  0.00  0.00    +0.000 A 
ATOM     18  C   UNL     1       0.894   9.027  20.515  0.00  0.00    +0.000 A 
ATOM     19  C   UNL     1       1.269   9.538  19.265  0.00  0.00    +0.000 A 
ATOM     20  C   UNL     1       1.951   8.695  18.376  0.00  0.00    +0.000 A 
ATOM     21  C   UNL     1       2.289   7.387  18.747  0.00  0.00    +0.000 A 
BRANCH  19  22
ATOM     22  C   UNL     1       0.921  10.962  18.878  0.00  0.00    +0.000 C 
BRANCH  22  23
ATOM     23  N   UNL     1       1.869  12.024  19.231  0.00  0.00    +0.000 NA
ATOM     24  C   UNL     1       1.573  12.771  20.449  0.00  0.00    +0.000 C 
ATOM     25  C   UNL     1       0.990  14.089  19.982  0.00  0.00    +0.000 C 
ATOM     26  C   UNL     1       1.716  14.360  18.679  0.00  0.00    +0.000 C 
ATOM     27  C   UNL     1       2.168  12.993  18.177  0.00  0.00    +0.000 C 
ENDBRANCH  22  23
ENDBRANCH  19  22
ENDBRANCH  15  16
ENDBRANCH   1  15
TORSDOF 6
ENDMDL
MODEL 6
REMARK VINA RESULT:      -7.5      0.986      1.728
REMARK  Name = 
REMARK  6 active torsions:
REMARK  status: ('A' for Active; 'I' for Inactive)
REMARK    1  A    between atoms: S_2  and  N_4
REMARK    2  A    between atoms: S_2  and  C_18
REMARK    3  A    between atoms: N_4  and  C_5
REMARK    4  A    between atoms: C_5  and  C_6
REMARK    5  A    between atoms: C_9  and  C_10
REMARK    6  A    between atoms: C_10  and  N_11
REMARK                            x       y       z     vdW  Elec       q    Type
REMARK                         _______ _______ _______ _____ _____    ______ ____
ROOT
ATOM      1  N   UNL     1       2.788   4.010  21.003  0.00  0.00    +0.000 NA
ATOM      2  H   UNL     1       3.536   4.651  21.260  0.00  0.00    +0.000 HD
ENDROOT
BRANCH   1   4
ATOM      3  O   UNL     1       4.301   1.982  21.044  0.00  0.00    +0.000 OA
ATOM      4  S   UNL     1       3.374   2.661  20.167  0.00  0.00    +0.000 S 
ATOM      5  O   UNL     1       2.250   1.994  19.554  0.00  0.00    +0.000 OA
BRANCH   4   6
ATOM      6  C   UNL     1       4.335   3.444  18.894  0.00  0.00    +0.000 A 
ATOM      7  C   UNL     1       3.996   3.271  17.539  0.00  0.00    +0.000 A 
ATOM      8  C   UNL     1       4.706   3.969  16.554  0.00  0.00    +0.000 A 
ATOM      9  C   UNL     1       5.711   4.839  16.954  0.00  0.00    +0.000 A 
ATOM     10  C   UNL     1       6.029   5.010  18.304  0.00  0.00    +0.000 A 
ATOM     11  C   UNL     1       5.374   4.295  19.286  0.00  0.00    +0.000 A 
ATOM     12  C   UNL     1       7.124   6.007  18.492  0.00  0.00    +0.000 C 
ATOM     13  C   UNL     1       7.244   6.628  17.093  0.00  0.00    +0.000 C 
ATOM     14  C   UNL     1       6.621   5.649  16.086  0.00  0.00    +0.000 C 
ENDBRANCH   4   6
ENDBRANCH   1   4
BRANCH   1  15
ATOM     15  C   UNL     1       1.569   4.621  20.462  0.00  0.00    +0.000 C 
BRANCH  15  16
ATOM     16  C   UNL     1       1.795   6.018  19.938  0.00  0.00    +0.000 A 
ATOM     17  C   UNL     1       2.215   6.225  18.618  0.00  0.00    +0.000 A 
ATOM     18  C   UNL     1       2.328   7.518  18.102  0.00  0.00    +0.000 A 
ATOM     19  C   UNL     1       1.996   8.634  18.881  0.00  0.00    +0.000 A 
ATOM     20  C   UNL     1       1.608   8.428  20.212  0.00  0.00    +0.000 A 
ATOM     21  C   UNL     1       1.513   7.133  20.737  0.00  0.00    +0.000 A 
BRANCH  19  22
ATOM     22  C   UNL     1       2.079  10.032  18.300  0.00  0.00    +0.000 C 
BRANCH  22  23
ATOM     23  N   UNL     1       0.826  10.756  18.061  0.00  0.00    +0.000 NA
ATOM     24  C   UNL     1       0.513  11.827  19.003  0.00  0.00    +0.000 C 
ATOM     25  C   UNL     1      -0.540  11.254  19.930  0.00  0.00    +0.000 C 
ATOM     26  C   UNL     1      -1.326  10.312  19.039  0.00  0.00    +0.000 C 
ATOM     27  C   UNL     1      -0.373   9.932  17.912  0.00  0.00    +0.000 C 
ENDBRANCH  22  23
ENDBRANCH  19  22
ENDBRANCH  15  16
ENDBRANCH   1  15
TORSDOF 6
ENDMDL
MODEL 7
REMARK VINA RESULT:      -7.5      3.671      8.716
REMARK  Name = 
REMARK  6 active torsions:
REMARK  status: ('A' for Active; 'I' for Inactive)
REMARK    1  A    between atoms: S_2  and  N_4
REMARK    2  A    between atoms: S_2  and  C_18
REMARK    3  A    between atoms: N_4  and  C_5
REMARK    4  A    between atoms: C_5  and  C_6
REMARK    5  A    between atoms: C_9  and  C_10
REMARK    6  A    between atoms: C_10  and  N_11
REMARK                            x       y       z     vdW  Elec       q    Type
REMARK                         _______ _______ _______ _____ _____    ______ ____
ROOT
ATOM      1  N   UNL     1       1.548   9.202  17.770  0.00  0.00    +0.000 NA
ATOM      2  H   UNL     1       1.245   9.606  16.886  0.00  0.00    +0.000 HD
ENDROOT
BRANCH   1   4
ATOM      3  O   UNL     1       0.955   9.241  20.230  0.00  0.00    +0.000 OA
ATOM      4  S   UNL     1       1.041  10.128  19.091  0.00  0.00    +0.000 S 
ATOM      5  O   UNL     1       1.820  11.344  19.107  0.00  0.00    +0.000 OA
BRANCH   4   6
ATOM      6  C   UNL     1      -0.622  10.525  18.609  0.00  0.00    +0.000 A 
ATOM      7  C   UNL     1      -1.372  11.461  19.344  0.00  0.00    +0.000 A 
ATOM      8  C   UNL     1      -2.647  11.831  18.897  0.00  0.00    +0.000 A 
ATOM      9  C   UNL     1      -3.120  11.278  17.716  0.00  0.00    +0.000 A 
ATOM     10  C   UNL     1      -2.360  10.358  16.989  0.00  0.00    +0.000 A 
ATOM     11  C   UNL     1      -1.122   9.944  17.438  0.00  0.00    +0.000 A 
ATOM     12  C   UNL     1      -3.062   9.917  15.747  0.00  0.00    +0.000 C 
ATOM     13  C   UNL     1      -4.238  10.902  15.671  0.00  0.00    +0.000 C 
ATOM     14  C   UNL     1      -4.454  11.490  17.074  0.00  0.00    +0.000 C 
ENDBRANCH   4   6
ENDBRANCH   1   4
BRANCH   1  15
ATOM     15  C   UNL     1       2.930   8.715  17.820  0.00  0.00    +0.000 C 
BRANCH  15  16
ATOM     16  C   UNL     1       3.022   7.210  17.873  0.00  0.00    +0.000 A 
ATOM     17  C   UNL     1       1.872   6.431  18.049  0.00  0.00    +0.000 A 
ATOM     18  C   UNL     1       1.942   5.037  17.999  0.00  0.00    +0.000 A 
ATOM     19  C   UNL     1       3.157   4.387  17.741  0.00  0.00    +0.000 A 
ATOM     20  C   UNL     1       4.313   5.166  17.598  0.00  0.00    +0.000 A 
ATOM     21  C   UNL     1       4.248   6.563  17.668  0.00  0.00    +0.000 A 
BRANCH  19  22
ATOM     22  C   UNL     1       3.217   2.875  17.645  0.00  0.00    +0.000 C 
BRANCH  22  23
ATOM     23  N   UNL     1       3.071   2.098  18.880  0.00  0.00    +0.000 NA
ATOM     24  C   UNL     1       1.704   1.790  19.287  0.00  0.00    +0.000 C 
ATOM     25  C   UNL     1       1.391   2.757  20.411  0.00  0.00    +0.000 C 
ATOM     26  C   UNL     1       2.726   2.943  21.105  0.00  0.00    +0.000 C 
ATOM     27  C   UNL     1       3.778   2.615  20.051  0.00  0.00    +0.000 C 
ENDBRANCH  22  23
ENDBRANCH  19  22
ENDBRANCH  15  16
ENDBRANCH   1  15
TORSDOF 6
ENDMDL
MODEL 8
REMARK VINA RESULT:      -7.5      1.385      2.254
REMARK  Name = 
REMARK  6 active torsions:
REMARK  status: ('A' for Active; 'I' for Inactive)
REMARK    1  A    between atoms: S_2  and  N_4
REMARK    2  A    between atoms: S_2  and  C_18
REMARK    3  A    between atoms: N_4  and  C_5
REMARK    4  A    between atoms: C_5  and  C_6
REMARK    5  A    between atoms: C_9  and  C_10
REMARK    6  A    between atoms: C_10  and  N_11
REMARK                            x       y       z     vdW  Elec       q    Type
REMARK                         _______ _______ _______ _____ _____    ______ ____
ROOT
ATOM      1  N   UNL     1       2.970   3.251  20.680  0.00  0.00    +0.000 NA
ATOM      2  H   UNL     1       3.502   3.941  21.207  0.00  0.00    +0.000 HD
ENDROOT
BRANCH   1   4
ATOM      3  O   UNL     1       5.012   1.760  20.567  0.00  0.00    +0.000 OA
ATOM      4  S   UNL     1       3.972   2.290  19.713  0.00  0.00    +0.000 S 
ATOM      5  O   UNL     1       3.129   1.448  18.897  0.00  0.00    +0.000 OA
BRANCH   4   6
ATOM      6  C   UNL     1       4.723   3.520  18.675  0.00  0.00    +0.000 A 
ATOM      7  C   UNL     1       5.432   4.594  19.244  0.00  0.00    +0.000 A 
ATOM      8  C   UNL     1       6.096   5.503  18.411  0.00  0.00    +0.000 A 
ATOM      9  C   UNL     1       6.057   5.294  17.039  0.00  0.00    +0.000 A 
ATOM     10  C   UNL     1       5.360   4.216  16.488  0.00  0.00    +0.000 A 
ATOM     11  C   UNL     1       4.658   3.338  17.289  0.00  0.00    +0.000 A 
ATOM     12  C   UNL     1       5.476   4.184  15.000  0.00  0.00    +0.000 C 
ATOM     13  C   UNL     1       6.568   5.230  14.736  0.00  0.00    +0.000 C 
ATOM     14  C   UNL     1       6.651   6.148  15.965  0.00  0.00    +0.000 C 
ENDBRANCH   4   6
ENDBRANCH   1   4
BRANCH   1  15
ATOM     15  C   UNL     1       1.737   3.730  20.047  0.00  0.00    +0.000 C 
BRANCH  15  16
ATOM     16  C   UNL     1       1.849   5.145  19.537  0.00  0.00    +0.000 A 
ATOM     17  C   UNL     1       1.902   6.223  20.430  0.00  0.00    +0.000 A 
ATOM     18  C   UNL     1       2.105   7.524  19.963  0.00  0.00    +0.000 A 
ATOM     19  C   UNL     1       2.290   7.777  18.598  0.00  0.00    +0.000 A 
ATOM     20  C   UNL     1       2.203   6.703  17.702  0.00  0.00    +0.000 A 
ATOM     21  C   UNL     1       1.980   5.400  18.166  0.00  0.00    +0.000 A 
BRANCH  19  22
ATOM     22  C   UNL     1       2.554   9.186  18.104  0.00  0.00    +0.000 C 
BRANCH  22  23
ATOM     23  N   UNL     1       1.417  10.107  18.003  0.00  0.00    +0.000 NA
ATOM     24  C   UNL     1       1.607  11.427  18.595  0.00  0.00    +0.000 C 
ATOM     25  C   UNL     1       0.859  11.390  19.913  0.00  0.00    +0.000 C 
ATOM     26  C   UNL     1      -0.314  10.471  19.632  0.00  0.00    +0.000 C 
ATOM     27  C   UNL     1       0.130   9.591  18.470  0.00  0.00    +0.000 C 
ENDBRANCH  22  23
ENDBRANCH  19  22
ENDBRANCH  15  16
ENDBRANCH   1  15
TORSDOF 6
ENDMDL
MODEL 9
REMARK VINA RESULT:      -7.4      0.941      1.752
REMARK  Name = 
REMARK  6 active torsions:
REMARK  status: ('A' for Active; 'I' for Inactive)
REMARK    1  A    between atoms: S_2  and  N_4
REMARK    2  A    between atoms: S_2  and  C_18
REMARK    3  A    between atoms: N_4  and  C_5
REMARK    4  A    between atoms: C_5  and  C_6
REMARK    5  A    between atoms: C_9  and  C_10
REMARK    6  A    between atoms: C_10  and  N_11
REMARK                            x       y       z     vdW  Elec       q    Type
REMARK                         _______ _______ _______ _____ _____    ______ ____
ROOT
ATOM      1  N   UNL     1       1.999   4.377  19.343  0.00  0.00    +0.000 NA
ATOM      2  H   UNL     1       1.040   4.090  19.526  0.00  0.00    +0.000 HD
ENDROOT
BRANCH   1   4
ATOM      3  O   UNL     1       3.585   2.716  20.408  0.00  0.00    +0.000 OA
ATOM      4  S   UNL     1       3.021   3.047  19.118  0.00  0.00    +0.000 S 
ATOM      5  O   UNL     1       2.322   2.082  18.302  0.00  0.00    +0.000 OA
BRANCH   4   6
ATOM      6  C   UNL     1       4.319   3.778  18.150  0.00  0.00    +0.000 A 
ATOM      7  C   UNL     1       5.512   4.200  18.764  0.00  0.00    +0.000 A 
ATOM      8  C   UNL     1       6.561   4.688  17.975  0.00  0.00    +0.000 A 
ATOM      9  C   UNL     1       6.398   4.710  16.597  0.00  0.00    +0.000 A 
ATOM     10  C   UNL     1       5.212   4.275  15.999  0.00  0.00    +0.000 A 
ATOM     11  C   UNL     1       4.149   3.837  16.762  0.00  0.00    +0.000 A 
ATOM     12  C   UNL     1       5.275   4.372  14.511  0.00  0.00    +0.000 C 
ATOM     13  C   UNL     1       6.762   4.664  14.266  0.00  0.00    +0.000 C 
ATOM     14  C   UNL     1       7.355   5.222  15.568  0.00  0.00    +0.000 C 
ENDBRANCH   4   6
ENDBRANCH   1   4
BRANCH   1  15
ATOM     15  C   UNL     1       2.525   5.454  20.188  0.00  0.00    +0.000 C 
BRANCH  15  16
ATOM     16  C   UNL     1       2.098   6.825  19.726  0.00  0.00    +0.000 A 
ATOM     17  C   UNL     1       1.450   7.704  20.604  0.00  0.00    +0.000 A 
ATOM     18  C   UNL     1       1.143   9.007  20.208  0.00  0.00    +0.000 A 
ATOM     19  C   UNL     1       1.503   9.476  18.937  0.00  0.00    +0.000 A 
ATOM     20  C   UNL     1       2.121   8.586  18.048  0.00  0.00    +0.000 A 
ATOM     21  C   UNL     1       2.412   7.273  18.436  0.00  0.00    +0.000 A 
BRANCH  19  22
ATOM     22  C   UNL     1       1.206  10.906  18.530  0.00  0.00    +0.000 C 
BRANCH  22  23
ATOM     23  N   UNL     1       0.485  11.758  19.481  0.00  0.00    +0.000 NA
ATOM     24  C   UNL     1      -0.688  12.453  18.959  0.00  0.00    +0.000 C 
ATOM     25  C   UNL     1      -0.241  13.884  18.733  0.00  0.00    +0.000 C 
ATOM     26  C   UNL     1       0.773  14.120  19.835  0.00  0.00    +0.000 C 
ATOM     27  C   UNL     1       1.293  12.736  20.208  0.00  0.00    +0.000 C 
ENDBRANCH  22  23
ENDBRANCH  19  22
ENDBRANCH  15  16
ENDBRANCH   1  15
TORSDOF 6
ENDMDL
