MODEL 1
REMARK VINA RESULT:      -8.8      0.000      0.000
REMARK  Name = 
REMARK  6 active torsions:
REMARK  status: ('A' for Active; 'I' for Inactive)
REMARK    1  A    between atoms: C_1  and  C_2
REMARK    2  A    between atoms: C_4  and  CA_5
REMARK    3  A    between atoms: CA_5  and  N_6
REMARK    4  A    between atoms: CA_5  and  C_19
REMARK    5  A    between atoms: C_7  and  C_9
REMARK    6  A    between atoms: C_19  and  OXT_21
REMARK                            x       y       z     vdW  Elec       q    Type
REMARK                         _______ _______ _______ _____ _____    ______ ____
ROOT
ATOM      1  N   UNL     1       5.438   5.712  18.254  0.00  0.00    +0.000 N 
ATOM      2  C   UNL     1       4.528   6.642  17.822  0.00  0.00    +0.000 C 
ATOM      3  O   UNL     1       4.867   7.445  16.949  0.00  0.00    +0.000 OA
ATOM      4  H   UNL     1       5.224   5.071  19.002  0.00  0.00    +0.000 HD
ENDROOT
BRANCH   2   5
ATOM      5  C   UNL     1       3.140   6.721  18.289  0.00  0.00    +0.000 C 
ATOM      6  C   UNL     1       2.006   5.849  17.832  0.00  0.00    +0.000 C 
ATOM      7  C   UNL     1       1.947   4.346  17.602  0.00  0.00    +0.000 C 
ATOM      8  C   UNL     1       1.856   3.777  18.994  0.00  0.00    +0.000 A 
ATOM      9  C   UNL     1       1.370   2.531  19.377  0.00  0.00    +0.000 A 
ATOM     10  C   UNL     1       1.250   2.248  20.740  0.00  0.00    +0.000 A 
ATOM     11  C   UNL     1       1.649   3.187  21.699  0.00  0.00    +0.000 A 
ATOM     12  C   UNL     1       2.131   4.439  21.299  0.00  0.00    +0.000 A 
ATOM     13  C   UNL     1       2.206   4.746  19.943  0.00  0.00    +0.000 A 
ATOM     14  C   UNL     1       2.296   6.107  19.336  0.00  0.00    +0.000 C 
ENDBRANCH   2   5
BRANCH   1  15
ATOM     15  CA  UNL     1       6.712   5.603  17.524  0.00  0.00    +0.000 C 
BRANCH  15  19
ATOM     16  C   UNL     1       7.852   5.275  12.575  0.00  0.00    +0.000 C 
ATOM     17  C   UNL     1       7.074   4.825  13.769  0.00  0.00    +0.000 A 
ATOM     18  C   UNL     1       7.311   5.359  15.038  0.00  0.00    +0.000 A 
ATOM     19  C   UNL     1       6.528   4.984  16.143  0.00  0.00    +0.000 A 
ATOM     20  C   UNL     1       5.525   4.008  15.954  0.00  0.00    +0.000 A 
ATOM     21  C   UNL     1       5.297   3.454  14.701  0.00  0.00    +0.000 A 
ATOM     22  C   UNL     1       6.071   3.858  13.620  0.00  0.00    +0.000 A 
ATOM     23  F   UNL     1       5.836   3.324  12.415  0.00  0.00    +0.000 F 
ENDBRANCH  15  19
BRANCH  15  24
ATOM     24  C   UNL     1       7.892   4.997  18.360  0.00  0.00    +0.000 C 
ATOM     25  O   UNL     1       8.233   5.345  19.482  0.00  0.00    +0.000 OA
BRANCH  24  26
ATOM     26  OXT UNL     1       8.499   3.935  17.764  0.00  0.00    +0.000 OA
ATOM     27  HXT UNL     1       9.401   3.753  18.129  0.00  0.00    +0.000 HD
ENDBRANCH  24  26
ENDBRANCH  15  24
ENDBRANCH   1  15
TORSDOF 5
ENDMDL
MODEL 2
REMARK VINA RESULT:      -8.3      3.574      6.900
REMARK  Name = 
REMARK  6 active torsions:
REMARK  status: ('A' for Active; 'I' for Inactive)
REMARK    1  A    between atoms: C_1  and  C_2
REMARK    2  A    between atoms: C_4  and  CA_5
REMARK    3  A    between atoms: CA_5  and  N_6
REMARK    4  A    between atoms: CA_5  and  C_19
REMARK    5  A    between atoms: C_7  and  C_9
REMARK    6  A    between atoms: C_19  and  OXT_21
REMARK                            x       y       z     vdW  Elec       q    Type
REMARK                         _______ _______ _______ _____ _____    ______ ____
ROOT
ATOM      1  N   UNL     1       3.549   4.087  19.276  0.00  0.00    +0.000 N 
ATOM      2  C   UNL     1       3.758   3.877  17.938  0.00  0.00    +0.000 C 
ATOM      3  O   UNL     1       2.781   3.759  17.194  0.00  0.00    +0.000 OA
ATOM      4  H   UNL     1       4.316   4.136  19.930  0.00  0.00    +0.000 HD
ENDROOT
BRANCH   2   5
ATOM      5  C   UNL     1       5.081   3.837  17.303  0.00  0.00    +0.000 C 
ATOM      6  C   UNL     1       5.575   4.775  16.239  0.00  0.00    +0.000 C 
ATOM      7  C   UNL     1       5.455   6.287  16.123  0.00  0.00    +0.000 C 
ATOM      8  C   UNL     1       6.489   6.801  17.090  0.00  0.00    +0.000 A 
ATOM      9  C   UNL     1       7.103   8.049  17.101  0.00  0.00    +0.000 A 
ATOM     10  C   UNL     1       8.138   8.280  18.012  0.00  0.00    +0.000 A 
ATOM     11  C   UNL     1       8.519   7.286  18.920  0.00  0.00    +0.000 A 
ATOM     12  C   UNL     1       7.897   6.033  18.894  0.00  0.00    +0.000 A 
ATOM     13  C   UNL     1       6.900   5.780  17.956  0.00  0.00    +0.000 A 
ATOM     14  C   UNL     1       6.414   4.442  17.503  0.00  0.00    +0.000 C 
ENDBRANCH   2   5
BRANCH   1  15
ATOM     15  CA  UNL     1       2.170   4.341  19.728  0.00  0.00    +0.000 C 
BRANCH  15  19
ATOM     16  C   UNL     1       2.199   9.064  17.832  0.00  0.00    +0.000 C 
ATOM     17  C   UNL     1       1.884   8.099  18.929  0.00  0.00    +0.000 A 
ATOM     18  C   UNL     1       2.102   6.727  18.777  0.00  0.00    +0.000 A 
ATOM     19  C   UNL     1       1.872   5.832  19.836  0.00  0.00    +0.000 A 
ATOM     20  C   UNL     1       1.359   6.346  21.047  0.00  0.00    +0.000 A 
ATOM     21  C   UNL     1       1.117   7.705  21.200  0.00  0.00    +0.000 A 
ATOM     22  C   UNL     1       1.374   8.572  20.145  0.00  0.00    +0.000 A 
ATOM     23  F   UNL     1       1.145   9.881  20.306  0.00  0.00    +0.000 F 
ENDBRANCH  15  19
BRANCH  15  24
ATOM     24  C   UNL     1       1.723   3.493  20.967  0.00  0.00    +0.000 C 
ATOM     25  O   UNL     1       2.333   3.381  22.022  0.00  0.00    +0.000 OA
BRANCH  24  26
ATOM     26  OXT UNL     1       0.495   2.923  20.829  0.00  0.00    +0.000 OA
ATOM     27  HXT UNL     1      -0.244   3.548  21.034  0.00  0.00    +0.000 HD
ENDBRANCH  24  26
ENDBRANCH  15  24
ENDBRANCH   1  15
TORSDOF 5
ENDMDL
MODEL 3
REMARK VINA RESULT:      -8.2      5.326      7.927
REMARK  Name = 
REMARK  6 active torsions:
REMARK  status: ('A' for Active; 'I' for Inactive)
REMARK    1  A    between atoms: C_1  and  C_2
REMARK    2  A    between atoms: C_4  and  CA_5
REMARK    3  A    between atoms: CA_5  and  N_6
REMARK    4  A    between atoms: CA_5  and  C_19
REMARK    5  A    between atoms: C_7  and  C_9
REMARK    6  A    between atoms: C_19  and  OXT_21
REMARK                            x       y       z     vdW  Elec       q    Type
REMARK                         _______ _______ _______ _____ _____    ______ ____
ROOT
ATOM      1  N   UNL     1       1.298   9.414  18.426  0.00  0.00    +0.000 N 
ATOM      2  C   UNL     1       1.862   8.266  18.920  0.00  0.00    +0.000 C 
ATOM      3  O   UNL     1       1.751   8.019  20.124  0.00  0.00    +0.000 OA
ATOM      4  H   UNL     1       1.408   9.684  17.461  0.00  0.00    +0.000 HD
ENDROOT
BRANCH   2   5
ATOM      5  C   UNL     1       2.550   7.263  18.100  0.00  0.00    +0.000 C 
ATOM      6  C   UNL     1       3.633   6.335  18.570  0.00  0.00    +0.000 C 
ATOM      7  C   UNL     1       3.745   5.513  19.846  0.00  0.00    +0.000 C 
ATOM      8  C   UNL     1       2.820   4.349  19.601  0.00  0.00    +0.000 A 
ATOM      9  C   UNL     1       2.835   3.102  20.217  0.00  0.00    +0.000 A 
ATOM     10  C   UNL     1       1.967   2.112  19.749  0.00  0.00    +0.000 A 
ATOM     11  C   UNL     1       1.075   2.385  18.705  0.00  0.00    +0.000 A 
ATOM     12  C   UNL     1       1.076   3.642  18.090  0.00  0.00    +0.000 A 
ATOM     13  C   UNL     1       1.972   4.617  18.519  0.00  0.00    +0.000 A 
ATOM     14  C   UNL     1       2.405   5.831  17.764  0.00  0.00    +0.000 C 
ENDBRANCH   2   5
BRANCH   1  15
ATOM     15  CA  UNL     1       0.436  10.201  19.324  0.00  0.00    +0.000 C 
BRANCH  15  19
ATOM     16  C   UNL     1      -2.918   9.836  15.514  0.00  0.00    +0.000 C 
ATOM     17  C   UNL     1      -2.509  10.374  16.847  0.00  0.00    +0.000 A 
ATOM     18  C   UNL     1      -1.312   9.985  17.454  0.00  0.00    +0.000 A 
ATOM     19  C   UNL     1      -0.898  10.548  18.673  0.00  0.00    +0.000 A 
ATOM     20  C   UNL     1      -1.750  11.481  19.304  0.00  0.00    +0.000 A 
ATOM     21  C   UNL     1      -2.953  11.857  18.720  0.00  0.00    +0.000 A 
ATOM     22  C   UNL     1      -3.329  11.302  17.503  0.00  0.00    +0.000 A 
ATOM     23  F   UNL     1      -4.486  11.678  16.945  0.00  0.00    +0.000 F 
ENDBRANCH  15  19
BRANCH  15  24
ATOM     24  C   UNL     1       1.153  11.404  20.028  0.00  0.00    +0.000 C 
ATOM     25  O   UNL     1       1.262  11.570  21.235  0.00  0.00    +0.000 OA
BRANCH  24  26
ATOM     26  OXT UNL     1       1.763  12.261  19.166  0.00  0.00    +0.000 OA
ATOM     27  HXT UNL     1       2.031  13.112  19.595  0.00  0.00    +0.000 HD
ENDBRANCH  24  26
ENDBRANCH  15  24
ENDBRANCH   1  15
TORSDOF 5
ENDMDL
MODEL 4
REMARK VINA RESULT:      -8.2      5.525      8.701
REMARK  Name = 
REMARK  6 active torsions:
REMARK  status: ('A' for Active; 'I' for Inactive)
REMARK    1  A    between atoms: C_1  and  C_2
REMARK    2  A    between atoms: C_4  and  CA_5
REMARK    3  A    between atoms: CA_5  and  N_6
REMARK    4  A    between atoms: CA_5  and  C_19
REMARK    5  A    between atoms: C_7  and  C_9
REMARK    6  A    between atoms: C_19  and  OXT_21
REMARK                            x       y       z     vdW  Elec       q    Type
REMARK                         _______ _______ _______ _____ _____    ______ ____
ROOT
ATOM      1  N   UNL     1       0.397   8.881  18.221  0.00  0.00    +0.000 N 
ATOM      2  C   UNL     1       1.714   9.025  17.869  0.00  0.00    +0.000 C 
ATOM      3  O   UNL     1       2.104  10.122  17.462  0.00  0.00    +0.000 OA
ATOM      4  H   UNL     1       0.021   7.989  18.509  0.00  0.00    +0.000 HD
ENDROOT
BRANCH   2   5
ATOM      5  C   UNL     1       2.725   7.970  17.996  0.00  0.00    +0.000 C 
ATOM      6  C   UNL     1       3.109   7.266  19.265  0.00  0.00    +0.000 C 
ATOM      7  C   UNL     1       2.243   6.707  20.385  0.00  0.00    +0.000 C 
ATOM      8  C   UNL     1       1.702   5.424  19.809  0.00  0.00    +0.000 A 
ATOM      9  C   UNL     1       1.211   4.320  20.497  0.00  0.00    +0.000 A 
ATOM     10  C   UNL     1       0.876   3.173  19.772  0.00  0.00    +0.000 A 
ATOM     11  C   UNL     1       0.997   3.153  18.378  0.00  0.00    +0.000 A 
ATOM     12  C   UNL     1       1.499   4.270  17.700  0.00  0.00    +0.000 A 
ATOM     13  C   UNL     1       1.881   5.398  18.420  0.00  0.00    +0.000 A 
ATOM     14  C   UNL     1       2.784   6.494  17.958  0.00  0.00    +0.000 C 
ENDBRANCH   2   5
BRANCH   1  15
ATOM     15  CA  UNL     1      -0.442  10.090  18.266  0.00  0.00    +0.000 C 
BRANCH  15  19
ATOM     16  C   UNL     1      -0.116   9.556  23.317  0.00  0.00    +0.000 C 
ATOM     17  C   UNL     1      -0.434  10.375  22.107  0.00  0.00    +0.000 A 
ATOM     18  C   UNL     1      -0.223   9.883  20.817  0.00  0.00    +0.000 A 
ATOM     19  C   UNL     1      -0.590  10.629  19.684  0.00  0.00    +0.000 A 
ATOM     20  C   UNL     1      -1.129  11.920  19.878  0.00  0.00    +0.000 A 
ATOM     21  C   UNL     1      -1.320  12.428  21.156  0.00  0.00    +0.000 A 
ATOM     22  C   UNL     1      -0.970  11.661  22.261  0.00  0.00    +0.000 A 
ATOM     23  F   UNL     1      -1.168  12.157  23.488  0.00  0.00    +0.000 F 
ENDBRANCH  15  19
BRANCH  15  24
ATOM     24  C   UNL     1      -1.785   9.982  17.465  0.00  0.00    +0.000 C 
ATOM     25  O   UNL     1      -2.799   9.405  17.832  0.00  0.00    +0.000 OA
BRANCH  24  26
ATOM     26  OXT UNL     1      -1.789  10.688  16.301  0.00  0.00    +0.000 OA
ATOM     27  HXT UNL     1      -2.003  11.645  16.433  0.00  0.00    +0.000 HD
ENDBRANCH  24  26
ENDBRANCH  15  24
ENDBRANCH   1  15
TORSDOF 5
ENDMDL
MODEL 5
REMARK VINA RESULT:      -8.1      3.680      7.247
REMARK  Name = 
REMARK  6 active torsions:
REMARK  status: ('A' for Active; 'I' for Inactive)
REMARK    1  A    between atoms: C_1  and  C_2
REMARK    2  A    between atoms: C_4  and  CA_5
REMARK    3  A    between atoms: CA_5  and  N_6
REMARK    4  A    between atoms: CA_5  and  C_19
REMARK    5  A    between atoms: C_7  and  C_9
REMARK    6  A    between atoms: C_19  and  OXT_21
REMARK                            x       y       z     vdW  Elec       q    Type
REMARK                         _______ _______ _______ _____ _____    ______ ____
ROOT
ATOM      1  N   UNL     1       3.535   4.397  19.323  0.00  0.00    +0.000 N 
ATOM      2  C   UNL     1       3.728   4.030  18.016  0.00  0.00    +0.000 C 
ATOM      3  O   UNL     1       2.744   3.773  17.319  0.00  0.00    +0.000 OA
ATOM      4  H   UNL     1       4.311   4.565  19.945  0.00  0.00    +0.000 HD
ENDROOT
BRANCH   2   5
ATOM      5  C   UNL     1       5.038   3.973  17.357  0.00  0.00    +0.000 C 
ATOM      6  C   UNL     1       5.526   4.906  16.287  0.00  0.00    +0.000 C 
ATOM      7  C   UNL     1       5.428   6.421  16.178  0.00  0.00    +0.000 C 
ATOM      8  C   UNL     1       6.487   6.916  17.128  0.00  0.00    +0.000 A 
ATOM      9  C   UNL     1       7.119   8.155  17.131  0.00  0.00    +0.000 A 
ATOM     10  C   UNL     1       8.174   8.367  18.023  0.00  0.00    +0.000 A 
ATOM     11  C   UNL     1       8.557   7.365  18.922  0.00  0.00    +0.000 A 
ATOM     12  C   UNL     1       7.915   6.121  18.903  0.00  0.00    +0.000 A 
ATOM     13  C   UNL     1       6.897   5.886  17.983  0.00  0.00    +0.000 A 
ATOM     14  C   UNL     1       6.384   4.557  17.535  0.00  0.00    +0.000 C 
ENDBRANCH   2   5
BRANCH   1  15
ATOM     15  CA  UNL     1       2.155   4.642  19.774  0.00  0.00    +0.000 C 
BRANCH  15  19
ATOM     16  C   UNL     1      -0.038   8.562  22.166  0.00  0.00    +0.000 C 
ATOM     17  C   UNL     1       0.805   8.012  21.061  0.00  0.00    +0.000 A 
ATOM     18  C   UNL     1       1.123   6.653  20.994  0.00  0.00    +0.000 A 
ATOM     19  C   UNL     1       1.856   6.130  19.915  0.00  0.00    +0.000 A 
ATOM     20  C   UNL     1       2.315   7.022  18.922  0.00  0.00    +0.000 A 
ATOM     21  C   UNL     1       2.024   8.378  18.992  0.00  0.00    +0.000 A 
ATOM     22  C   UNL     1       1.278   8.867  20.058  0.00  0.00    +0.000 A 
ATOM     23  F   UNL     1       0.996  10.175  20.110  0.00  0.00    +0.000 F 
ENDBRANCH  15  19
BRANCH  15  24
ATOM     24  C   UNL     1       1.702   3.766  20.993  0.00  0.00    +0.000 C 
ATOM     25  O   UNL     1       2.263   3.698  22.078  0.00  0.00    +0.000 OA
BRANCH  24  26
ATOM     26  OXT UNL     1       0.526   3.112  20.793  0.00  0.00    +0.000 OA
ATOM     27  HXT UNL     1       0.206   3.173  19.859  0.00  0.00    +0.000 HD
ENDBRANCH  24  26
ENDBRANCH  15  24
ENDBRANCH   1  15
TORSDOF 5
ENDMDL
MODEL 6
REMARK VINA RESULT:      -8.1      1.089      1.846
REMARK  Name = 
REMARK  6 active torsions:
REMARK  status: ('A' for Active; 'I' for Inactive)
REMARK    1  A    between atoms: C_1  and  C_2
REMARK    2  A    between atoms: C_4  and  CA_5
REMARK    3  A    between atoms: CA_5  and  N_6
REMARK    4  A    between atoms: CA_5  and  C_19
REMARK    5  A    between atoms: C_7  and  C_9
REMARK    6  A    between atoms: C_19  and  OXT_21
REMARK                            x       y       z     vdW  Elec       q    Type
REMARK                         _______ _______ _______ _____ _____    ______ ____
ROOT
ATOM      1  N   UNL     1       4.983   5.210  16.599  0.00  0.00    +0.000 N 
ATOM      2  C   UNL     1       4.306   6.151  17.330  0.00  0.00    +0.000 C 
ATOM      3  O   UNL     1       4.895   7.184  17.661  0.00  0.00    +0.000 OA
ATOM      4  H   UNL     1       4.559   4.328  16.351  0.00  0.00    +0.000 HD
ENDROOT
BRANCH   2   5
ATOM      5  C   UNL     1       2.892   6.047  17.708  0.00  0.00    +0.000 C 
ATOM      6  C   UNL     1       2.006   4.857  17.482  0.00  0.00    +0.000 C 
ATOM      7  C   UNL     1       2.273   3.373  17.691  0.00  0.00    +0.000 C 
ATOM      8  C   UNL     1       2.166   3.199  19.183  0.00  0.00    +0.000 A 
ATOM      9  C   UNL     1       1.907   2.030  19.891  0.00  0.00    +0.000 A 
ATOM     10  C   UNL     1       1.719   2.110  21.273  0.00  0.00    +0.000 A 
ATOM     11  C   UNL     1       1.829   3.339  21.935  0.00  0.00    +0.000 A 
ATOM     12  C   UNL     1       2.084   4.508  21.210  0.00  0.00    +0.000 A 
ATOM     13  C   UNL     1       2.223   4.442  19.826  0.00  0.00    +0.000 A 
ATOM     14  C   UNL     1       2.094   5.572  18.858  0.00  0.00    +0.000 C 
ENDBRANCH   2   5
BRANCH   1  15
ATOM     15  CA  UNL     1       6.320   5.561  16.092  0.00  0.00    +0.000 C 
BRANCH  15  19
ATOM     16  C   UNL     1       4.980   2.726  12.083  0.00  0.00    +0.000 C 
ATOM     17  C   UNL     1       5.898   3.703  12.744  0.00  0.00    +0.000 A 
ATOM     18  C   UNL     1       5.636   4.199  14.024  0.00  0.00    +0.000 A 
ATOM     19  C   UNL     1       6.539   5.062  14.668  0.00  0.00    +0.000 A 
ATOM     20  C   UNL     1       7.697   5.464  13.968  0.00  0.00    +0.000 A 
ATOM     21  C   UNL     1       7.955   4.995  12.686  0.00  0.00    +0.000 A 
ATOM     22  C   UNL     1       7.057   4.125  12.080  0.00  0.00    +0.000 A 
ATOM     23  F   UNL     1       7.319   3.672  10.847  0.00  0.00    +0.000 F 
ENDBRANCH  15  19
BRANCH  15  24
ATOM     24  C   UNL     1       7.495   5.249  17.082  0.00  0.00    +0.000 C 
ATOM     25  O   UNL     1       8.097   4.188  17.174  0.00  0.00    +0.000 OA
BRANCH  24  26
ATOM     26  OXT UNL     1       7.892   6.321  17.818  0.00  0.00    +0.000 OA
ATOM     27  HXT UNL     1       7.216   6.603  18.484  0.00  0.00    +0.000 HD
ENDBRANCH  24  26
ENDBRANCH  15  24
ENDBRANCH   1  15
TORSDOF 5
ENDMDL
MODEL 7
REMARK VINA RESULT:      -7.9      5.149      7.762
REMARK  Name = 
REMARK  6 active torsions:
REMARK  status: ('A' for Active; 'I' for Inactive)
REMARK    1  A    between atoms: C_1  and  C_2
REMARK    2  A    between atoms: C_4  and  CA_5
REMARK    3  A    between atoms: CA_5  and  N_6
REMARK    4  A    between atoms: CA_5  and  C_19
REMARK    5  A    between atoms: C_7  and  C_9
REMARK    6  A    between atoms: C_19  and  OXT_21
REMARK                            x       y       z     vdW  Elec       q    Type
REMARK                         _______ _______ _______ _____ _____    ______ ____
ROOT
ATOM      1  N   UNL     1       1.816   9.528  17.976  0.00  0.00    +0.000 N 
ATOM      2  C   UNL     1       1.989   8.318  18.596  0.00  0.00    +0.000 C 
ATOM      3  O   UNL     1       1.816   8.243  19.815  0.00  0.00    +0.000 OA
ATOM      4  H   UNL     1       1.998   9.648  16.991  0.00  0.00    +0.000 HD
ENDROOT
BRANCH   2   5
ATOM      5  C   UNL     1       2.317   7.069  17.898  0.00  0.00    +0.000 C 
ATOM      6  C   UNL     1       3.486   6.175  18.197  0.00  0.00    +0.000 C 
ATOM      7  C   UNL     1       4.047   5.694  19.527  0.00  0.00    +0.000 C 
ATOM      8  C   UNL     1       3.083   4.617  19.952  0.00  0.00    +0.000 A 
ATOM      9  C   UNL     1       3.307   3.573  20.842  0.00  0.00    +0.000 A 
ATOM     10  C   UNL     1       2.316   2.601  20.999  0.00  0.00    +0.000 A 
ATOM     11  C   UNL     1       1.107   2.699  20.301  0.00  0.00    +0.000 A 
ATOM     12  C   UNL     1       0.898   3.752  19.403  0.00  0.00    +0.000 A 
ATOM     13  C   UNL     1       1.901   4.697  19.205  0.00  0.00    +0.000 A 
ATOM     14  C   UNL     1       2.042   5.625  18.043  0.00  0.00    +0.000 C 
ENDBRANCH   2   5
BRANCH   1  15
ATOM     15  CA  UNL     1       1.255  10.635  18.768  0.00  0.00    +0.000 C 
BRANCH  15  19
ATOM     16  C   UNL     1      -3.035   9.676  16.204  0.00  0.00    +0.000 C 
ATOM     17  C   UNL     1      -2.311  10.309  17.348  0.00  0.00    +0.000 A 
ATOM     18  C   UNL     1      -0.940  10.114  17.541  0.00  0.00    +0.000 A 
ATOM     19  C   UNL     1      -0.252  10.768  18.577  0.00  0.00    +0.000 A 
ATOM     20  C   UNL     1      -0.988  11.588  19.458  0.00  0.00    +0.000 A 
ATOM     21  C   UNL     1      -2.355  11.770  19.289  0.00  0.00    +0.000 A 
ATOM     22  C   UNL     1      -3.009  11.129  18.243  0.00  0.00    +0.000 A 
ATOM     23  F   UNL     1      -4.325  11.319  18.084  0.00  0.00    +0.000 F 
ENDBRANCH  15  19
BRANCH  15  24
ATOM     24  C   UNL     1       2.049  11.982  18.660  0.00  0.00    +0.000 C 
ATOM     25  O   UNL     1       2.300  12.747  19.582  0.00  0.00    +0.000 OA
BRANCH  24  26
ATOM     26  OXT UNL     1       2.553  12.225  17.420  0.00  0.00    +0.000 OA
ATOM     27  HXT UNL     1       2.077  12.954  16.948  0.00  0.00    +0.000 HD
ENDBRANCH  24  26
ENDBRANCH  15  24
ENDBRANCH   1  15
TORSDOF 5
ENDMDL
MODEL 8
REMARK VINA RESULT:      -7.8      5.392      8.130
REMARK  Name = 
REMARK  6 active torsions:
REMARK  status: ('A' for Active; 'I' for Inactive)
REMARK    1  A    between atoms: C_1  and  C_2
REMARK    2  A    between atoms: C_4  and  CA_5
REMARK    3  A    between atoms: CA_5  and  N_6
REMARK    4  A    between atoms: CA_5  and  C_19
REMARK    5  A    between atoms: C_7  and  C_9
REMARK    6  A    between atoms: C_19  and  OXT_21
REMARK                            x       y       z     vdW  Elec       q    Type
REMARK                         _______ _______ _______ _____ _____    ______ ____
ROOT
ATOM      1  N   UNL     1       1.398   9.509  18.374  0.00  0.00    +0.000 N 
ATOM      2  C   UNL     1       1.879   8.328  18.876  0.00  0.00    +0.000 C 
ATOM      3  O   UNL     1       1.702   8.074  20.070  0.00  0.00    +0.000 OA
ATOM      4  H   UNL     1       1.565   9.783  17.417  0.00  0.00    +0.000 HD
ENDROOT
BRANCH   2   5
ATOM      5  C   UNL     1       2.553   7.300  18.075  0.00  0.00    +0.000 C 
ATOM      6  C   UNL     1       3.621   6.364  18.562  0.00  0.00    +0.000 C 
ATOM      7  C   UNL     1       3.718   5.562  19.852  0.00  0.00    +0.000 C 
ATOM      8  C   UNL     1       2.776   4.409  19.626  0.00  0.00    +0.000 A 
ATOM      9  C   UNL     1       2.771   3.173  20.264  0.00  0.00    +0.000 A 
ATOM     10  C   UNL     1       1.888   2.188  19.811  0.00  0.00    +0.000 A 
ATOM     11  C   UNL     1       1.002   2.457  18.762  0.00  0.00    +0.000 A 
ATOM     12  C   UNL     1       1.022   3.703  18.126  0.00  0.00    +0.000 A 
ATOM     13  C   UNL     1       1.933   4.671  18.539  0.00  0.00    +0.000 A 
ATOM     14  C   UNL     1       2.386   5.865  17.764  0.00  0.00    +0.000 C 
ENDBRANCH   2   5
BRANCH   1  15
ATOM     15  CA  UNL     1       0.536  10.328  19.242  0.00  0.00    +0.000 C 
BRANCH  15  19
ATOM     16  C   UNL     1      -4.132  12.354  19.337  0.00  0.00    +0.000 C 
ATOM     17  C   UNL     1      -3.088  11.509  18.682  0.00  0.00    +0.000 A 
ATOM     18  C   UNL     1      -1.803  11.390  19.219  0.00  0.00    +0.000 A 
ATOM     19  C   UNL     1      -0.848  10.538  18.638  0.00  0.00    +0.000 A 
ATOM     20  C   UNL     1      -1.198   9.842  17.461  0.00  0.00    +0.000 A 
ATOM     21  C   UNL     1      -2.465   9.972  16.906  0.00  0.00    +0.000 A 
ATOM     22  C   UNL     1      -3.399  10.804  17.512  0.00  0.00    +0.000 A 
ATOM     23  F   UNL     1      -4.620  10.914  16.974  0.00  0.00    +0.000 F 
ENDBRANCH  15  19
BRANCH  15  24
ATOM     24  C   UNL     1       1.214  11.631  19.791  0.00  0.00    +0.000 C 
ATOM     25  O   UNL     1       1.650  12.554  19.117  0.00  0.00    +0.000 OA
BRANCH  24  26
ATOM     26  OXT UNL     1       1.208  11.724  21.148  0.00  0.00    +0.000 OA
ATOM     27  HXT UNL     1       0.727  10.976  21.583  0.00  0.00    +0.000 HD
ENDBRANCH  24  26
ENDBRANCH  15  24
ENDBRANCH   1  15
TORSDOF 5
ENDMDL
MODEL 9
REMARK VINA RESULT:      -7.7      4.312      5.971
REMARK  Name = 
REMARK  6 active torsions:
REMARK  status: ('A' for Active; 'I' for Inactive)
REMARK    1  A    between atoms: C_1  and  C_2
REMARK    2  A    between atoms: C_4  and  CA_5
REMARK    3  A    between atoms: CA_5  and  N_6
REMARK    4  A    between atoms: CA_5  and  C_19
REMARK    5  A    between atoms: C_7  and  C_9
REMARK    6  A    between atoms: C_19  and  OXT_21
REMARK                            x       y       z     vdW  Elec       q    Type
REMARK                         _______ _______ _______ _____ _____    ______ ____
ROOT
ATOM      1  N   UNL     1       2.228   6.864  17.863  0.00  0.00    +0.000 N 
ATOM      2  C   UNL     1       2.028   7.993  18.615  0.00  0.00    +0.000 C 
ATOM      3  O   UNL     1       2.098   7.909  19.844  0.00  0.00    +0.000 OA
ATOM      4  H   UNL     1       2.129   6.874  16.859  0.00  0.00    +0.000 HD
ENDROOT
BRANCH   2   5
ATOM      5  C   UNL     1       1.789   9.328  18.057  0.00  0.00    +0.000 C 
ATOM      6  C   UNL     1       0.445   9.951  17.809  0.00  0.00    +0.000 C 
ATOM      7  C   UNL     1      -0.805   9.981  18.678  0.00  0.00    +0.000 C 
ATOM      8  C   UNL     1      -0.488  11.022  19.720  0.00  0.00    +0.000 A 
ATOM      9  C   UNL     1      -1.381  11.752  20.497  0.00  0.00    +0.000 A 
ATOM     10  C   UNL     1      -0.882  12.768  21.316  0.00  0.00    +0.000 A 
ATOM     11  C   UNL     1       0.494  13.018  21.381  0.00  0.00    +0.000 A 
ATOM     12  C   UNL     1       1.381  12.279  20.589  0.00  0.00    +0.000 A 
ATOM     13  C   UNL     1       0.885  11.299  19.733  0.00  0.00    +0.000 A 
ATOM     14  C   UNL     1       1.581  10.705  18.553  0.00  0.00    +0.000 C 
ENDBRANCH   2   5
BRANCH   1  15
ATOM     15  CA  UNL     1       2.695   5.650  18.553  0.00  0.00    +0.000 C 
BRANCH  15  19
ATOM     16  C   UNL     1       6.268   3.983  15.334  0.00  0.00    +0.000 C 
ATOM     17  C   UNL     1       5.859   4.521  16.667  0.00  0.00    +0.000 A 
ATOM     18  C   UNL     1       4.535   4.882  16.933  0.00  0.00    +0.000 A 
ATOM     19  C   UNL     1       4.143   5.320  18.210  0.00  0.00    +0.000 A 
ATOM     20  C   UNL     1       5.133   5.441  19.210  0.00  0.00    +0.000 A 
ATOM     21  C   UNL     1       6.455   5.107  18.948  0.00  0.00    +0.000 A 
ATOM     22  C   UNL     1       6.813   4.655  17.684  0.00  0.00    +0.000 A 
ATOM     23  F   UNL     1       8.089   4.327  17.446  0.00  0.00    +0.000 F 
ENDBRANCH  15  19
BRANCH  15  24
ATOM     24  C   UNL     1       1.710   4.433  18.468  0.00  0.00    +0.000 C 
ATOM     25  O   UNL     1       1.168   4.014  17.455  0.00  0.00    +0.000 OA
BRANCH  24  26
ATOM     26  OXT UNL     1       1.552   3.771  19.646  0.00  0.00    +0.000 OA
ATOM     27  HXT UNL     1       1.579   4.373  20.432  0.00  0.00    +0.000 HD
ENDBRANCH  24  26
ENDBRANCH  15  24
ENDBRANCH   1  15
TORSDOF 5
ENDMDL
