MODEL 1
REMARK VINA RESULT:      -8.4      0.000      0.000
REMARK  Name = 
REMARK  3 active torsions:
REMARK  status: ('A' for Active; 'I' for Inactive)
REMARK    1  A    between atoms: C_2  and  C_3
REMARK    2  A    between atoms: N_8  and  C_9
REMARK    3  A    between atoms: C_22  and  O_23
REMARK                            x       y       z     vdW  Elec       q    Type
REMARK                         _______ _______ _______ _____ _____    ______ ____
ROOT
ATOM      1  C   UNL     1       7.363   5.885  18.328  0.00  0.00    +0.000 C 
ATOM      2  C   UNL     1       7.676   4.678  17.456  0.00  0.00    +0.000 C 
ATOM      3  C   UNL     1       6.483   4.268  16.622  0.00  0.00    +0.000 C 
ATOM      4  C   UNL     1       5.236   4.004  17.427  0.00  0.00    +0.000 C 
ATOM      5  O   UNL     1       4.388   3.259  16.925  0.00  0.00    +0.000 OA
ATOM      6  N   UNL     1       5.086   4.690  18.638  0.00  0.00    +0.000 N 
ATOM      7  C   UNL     1       6.095   5.639  19.154  0.00  0.00    +0.000 C 
ENDROOT
BRANCH   1   9
ATOM      8  O   UNL     1       6.598   7.249  16.487  0.00  0.00    +0.000 OA
ATOM      9  C   UNL     1       7.260   7.188  17.526  0.00  0.00    +0.000 C 
ATOM     10  N   UNL     1       7.890   8.309  18.009  0.00  0.00    +0.000 N 
ATOM     11  C   UNL     1       8.883   8.410  19.082  0.00  0.00    +0.000 C 
ATOM     12  C   UNL     1       9.197   9.874  19.133  0.00  0.00    +0.000 A 
ATOM     13  C   UNL     1      10.009  10.570  20.014  0.00  0.00    +0.000 A 
ATOM     14  C   UNL     1      10.122  11.959  19.859  0.00  0.00    +0.000 A 
ATOM     15  C   UNL     1       9.431  12.613  18.833  0.00  0.00    +0.000 A 
ATOM     16  C   UNL     1       8.629  11.912  17.939  0.00  0.00    +0.000 A 
ATOM     17  C   UNL     1       8.521  10.541  18.104  0.00  0.00    +0.000 A 
ATOM     18  C   UNL     1       7.733   9.575  17.288  0.00  0.00    +0.000 C 
BRANCH  15  19
ATOM     19  O   UNL     1       9.514  13.965  18.672  0.00  0.00    +0.000 OA
ATOM     20  H   UNL     1       9.678  14.161  17.735  0.00  0.00    +0.000 HD
ENDBRANCH  15  19
ENDBRANCH   1   9
BRANCH   6  21
ATOM     21  C   UNL     1       3.934   4.432  19.485  0.00  0.00    +0.000 A 
ATOM     22  C   UNL     1       3.687   3.156  20.024  0.00  0.00    +0.000 A 
ATOM     23  C   UNL     1       2.563   2.889  20.818  0.00  0.00    +0.000 A 
ATOM     24  C   UNL     1       1.656   3.903  21.094  0.00  0.00    +0.000 A 
ATOM     25  C   UNL     1       1.896   5.172  20.591  0.00  0.00    +0.000 A 
ATOM     26  F   UNL     1       1.024   6.156  20.849  0.00  0.00    +0.000 F 
ATOM     27  C   UNL     1       3.021   5.447  19.808  0.00  0.00    +0.000 A 
ENDBRANCH   6  21
TORSDOF 3
ENDMDL
MODEL 2
REMARK VINA RESULT:      -8.2      0.868      1.277
REMARK  Name = 
REMARK  3 active torsions:
REMARK  status: ('A' for Active; 'I' for Inactive)
REMARK    1  A    between atoms: C_2  and  C_3
REMARK    2  A    between atoms: N_8  and  C_9
REMARK    3  A    between atoms: C_22  and  O_23
REMARK                            x       y       z     vdW  Elec       q    Type
REMARK                         _______ _______ _______ _____ _____    ______ ____
ROOT
ATOM      1  C   UNL     1       7.354   5.937  18.420  0.00  0.00    +0.000 C 
ATOM      2  C   UNL     1       7.684   4.693  17.608  0.00  0.00    +0.000 C 
ATOM      3  C   UNL     1       6.529   4.282  16.723  0.00  0.00    +0.000 C 
ATOM      4  C   UNL     1       5.233   4.076  17.464  0.00  0.00    +0.000 C 
ATOM      5  O   UNL     1       4.396   3.335  16.940  0.00  0.00    +0.000 OA
ATOM      6  N   UNL     1       5.033   4.809  18.641  0.00  0.00    +0.000 N 
ATOM      7  C   UNL     1       6.036   5.751  19.180  0.00  0.00    +0.000 C 
ENDROOT
BRANCH   1   9
ATOM      8  O   UNL     1       6.739   7.249  16.487  0.00  0.00    +0.000 OA
ATOM      9  C   UNL     1       7.330   7.213  17.569  0.00  0.00    +0.000 C 
ATOM     10  N   UNL     1       7.949   8.339  18.054  0.00  0.00    +0.000 N 
ATOM     11  C   UNL     1       8.872   8.459  19.187  0.00  0.00    +0.000 C 
ATOM     12  C   UNL     1       9.210   9.919  19.209  0.00  0.00    +0.000 A 
ATOM     13  C   UNL     1       9.977  10.631  20.117  0.00  0.00    +0.000 A 
ATOM     14  C   UNL     1      10.128  12.011  19.924  0.00  0.00    +0.000 A 
ATOM     15  C   UNL     1       9.518  12.641  18.833  0.00  0.00    +0.000 A 
ATOM     16  C   UNL     1       8.763  11.924  17.912  0.00  0.00    +0.000 A 
ATOM     17  C   UNL     1       8.616  10.561  18.115  0.00  0.00    +0.000 A 
ATOM     18  C   UNL     1       7.865   9.581  17.282  0.00  0.00    +0.000 C 
BRANCH  15  19
ATOM     19  O   UNL     1       9.638  13.985  18.632  0.00  0.00    +0.000 OA
ATOM     20  H   UNL     1      10.122  14.138  17.804  0.00  0.00    +0.000 HD
ENDBRANCH  15  19
ENDBRANCH   1   9
BRANCH   6  21
ATOM     21  C   UNL     1       3.830   4.609  19.429  0.00  0.00    +0.000 A 
ATOM     22  C   UNL     1       2.903   5.648  19.636  0.00  0.00    +0.000 A 
ATOM     23  C   UNL     1       1.754   5.475  20.419  0.00  0.00    +0.000 A 
ATOM     24  C   UNL     1       1.503   4.246  21.014  0.00  0.00    +0.000 A 
ATOM     25  C   UNL     1       2.392   3.204  20.801  0.00  0.00    +0.000 A 
ATOM     26  F   UNL     1       2.160   2.016  21.376  0.00  0.00    +0.000 F 
ATOM     27  C   UNL     1       3.534   3.368  20.012  0.00  0.00    +0.000 A 
ENDBRANCH   6  21
TORSDOF 3
ENDMDL
MODEL 3
REMARK VINA RESULT:      -8.0      6.437      8.995
REMARK  Name = 
REMARK  3 active torsions:
REMARK  status: ('A' for Active; 'I' for Inactive)
REMARK    1  A    between atoms: C_2  and  C_3
REMARK    2  A    between atoms: N_8  and  C_9
REMARK    3  A    between atoms: C_22  and  O_23
REMARK                            x       y       z     vdW  Elec       q    Type
REMARK                         _______ _______ _______ _____ _____    ______ ____
ROOT
ATOM      1  C   UNL     1       1.211   9.948  18.143  0.00  0.00    +0.000 C 
ATOM      2  C   UNL     1       1.823  11.295  18.499  0.00  0.00    +0.000 C 
ATOM      3  C   UNL     1       1.051  11.984  19.602  0.00  0.00    +0.000 C 
ATOM      4  C   UNL     1      -0.417  12.155  19.306  0.00  0.00    +0.000 C 
ATOM      5  O   UNL     1      -1.009  13.064  19.898  0.00  0.00    +0.000 OA
ATOM      6  N   UNL     1      -1.023  11.220  18.459  0.00  0.00    +0.000 N 
ATOM      7  C   UNL     1      -0.284  10.097  17.842  0.00  0.00    +0.000 C 
ENDROOT
BRANCH   1   9
ATOM      8  O   UNL     1       0.907   8.942  20.318  0.00  0.00    +0.000 OA
ATOM      9  C   UNL     1       1.458   8.881  19.217  0.00  0.00    +0.000 C 
ATOM     10  N   UNL     1       2.281   7.823  18.916  0.00  0.00    +0.000 N 
ATOM     11  C   UNL     1       3.187   7.665  17.774  0.00  0.00    +0.000 C 
ATOM     12  C   UNL     1       3.810   6.322  18.005  0.00  0.00    +0.000 A 
ATOM     13  C   UNL     1       4.686   5.608  17.203  0.00  0.00    +0.000 A 
ATOM     14  C   UNL     1       5.113   4.347  17.641  0.00  0.00    +0.000 A 
ATOM     15  C   UNL     1       4.662   3.835  18.864  0.00  0.00    +0.000 A 
ATOM     16  C   UNL     1       3.797   4.558  19.677  0.00  0.00    +0.000 A 
ATOM     17  C   UNL     1       3.377   5.801  19.232  0.00  0.00    +0.000 A 
ATOM     18  C   UNL     1       2.461   6.762  19.909  0.00  0.00    +0.000 C 
BRANCH  15  19
ATOM     19  O   UNL     1       5.053   2.604  19.304  0.00  0.00    +0.000 OA
ATOM     20  H   UNL     1       4.328   2.208  19.814  0.00  0.00    +0.000 HD
ENDBRANCH  15  19
ENDBRANCH   1   9
BRANCH   6  21
ATOM     21  C   UNL     1      -2.421  11.367  18.091  0.00  0.00    +0.000 A 
ATOM     22  C   UNL     1      -2.870  11.104  16.784  0.00  0.00    +0.000 A 
ATOM     23  C   UNL     1      -4.211  11.270  16.411  0.00  0.00    +0.000 A 
ATOM     24  C   UNL     1      -5.139  11.704  17.347  0.00  0.00    +0.000 A 
ATOM     25  C   UNL     1      -4.719  11.946  18.645  0.00  0.00    +0.000 A 
ATOM     26  F   UNL     1      -5.607  12.369  19.554  0.00  0.00    +0.000 F 
ATOM     27  C   UNL     1      -3.385  11.770  19.026  0.00  0.00    +0.000 A 
ENDBRANCH   6  21
TORSDOF 3
ENDMDL
MODEL 4
REMARK VINA RESULT:      -8.0      6.372      8.977
REMARK  Name = 
REMARK  3 active torsions:
REMARK  status: ('A' for Active; 'I' for Inactive)
REMARK    1  A    between atoms: C_2  and  C_3
REMARK    2  A    between atoms: N_8  and  C_9
REMARK    3  A    between atoms: C_22  and  O_23
REMARK                            x       y       z     vdW  Elec       q    Type
REMARK                         _______ _______ _______ _____ _____    ______ ____
ROOT
ATOM      1  C   UNL     1       1.297   9.900  18.137  0.00  0.00    +0.000 C 
ATOM      2  C   UNL     1       1.874  11.255  18.520  0.00  0.00    +0.000 C 
ATOM      3  C   UNL     1       1.053  11.927  19.597  0.00  0.00    +0.000 C 
ATOM      4  C   UNL     1      -0.406  12.077  19.249  0.00  0.00    +0.000 C 
ATOM      5  O   UNL     1      -1.034  12.973  19.822  0.00  0.00    +0.000 OA
ATOM      6  N   UNL     1      -0.966  11.137  18.376  0.00  0.00    +0.000 N 
ATOM      7  C   UNL     1      -0.188  10.028  17.782  0.00  0.00    +0.000 C 
ENDROOT
BRANCH   1   9
ATOM      8  O   UNL     1       0.973   8.910  20.316  0.00  0.00    +0.000 OA
ATOM      9  C   UNL     1       1.522   8.833  19.215  0.00  0.00    +0.000 C 
ATOM     10  N   UNL     1       2.321   7.756  18.918  0.00  0.00    +0.000 N 
ATOM     11  C   UNL     1       3.224   7.574  17.777  0.00  0.00    +0.000 C 
ATOM     12  C   UNL     1       3.818   6.219  18.012  0.00  0.00    +0.000 A 
ATOM     13  C   UNL     1       4.678   5.484  17.213  0.00  0.00    +0.000 A 
ATOM     14  C   UNL     1       5.078   4.215  17.656  0.00  0.00    +0.000 A 
ATOM     15  C   UNL     1       4.617   3.718  18.881  0.00  0.00    +0.000 A 
ATOM     16  C   UNL     1       3.768   4.463  19.691  0.00  0.00    +0.000 A 
ATOM     17  C   UNL     1       3.375   5.713  19.241  0.00  0.00    +0.000 A 
ATOM     18  C   UNL     1       2.480   6.695  19.915  0.00  0.00    +0.000 C 
BRANCH  15  19
ATOM     19  O   UNL     1       4.982   2.481  19.325  0.00  0.00    +0.000 OA
ATOM     20  H   UNL     1       5.922   2.340  19.129  0.00  0.00    +0.000 HD
ENDBRANCH  15  19
ENDBRANCH   1   9
BRANCH   6  21
ATOM     21  C   UNL     1      -2.352  11.263  17.959  0.00  0.00    +0.000 A 
ATOM     22  C   UNL     1      -3.340  11.766  18.826  0.00  0.00    +0.000 A 
ATOM     23  C   UNL     1      -4.685  11.864  18.443  0.00  0.00    +0.000 A 
ATOM     24  C   UNL     1      -5.072  11.463  17.172  0.00  0.00    +0.000 A 
ATOM     25  C   UNL     1      -4.109  10.987  16.297  0.00  0.00    +0.000 A 
ATOM     26  F   UNL     1      -4.475  10.593  15.070  0.00  0.00    +0.000 F 
ATOM     27  C   UNL     1      -2.764  10.897  16.669  0.00  0.00    +0.000 A 
ENDBRANCH   6  21
TORSDOF 3
ENDMDL
MODEL 5
REMARK VINA RESULT:      -7.7      6.385      9.409
REMARK  Name = 
REMARK  3 active torsions:
REMARK  status: ('A' for Active; 'I' for Inactive)
REMARK    1  A    between atoms: C_2  and  C_3
REMARK    2  A    between atoms: N_8  and  C_9
REMARK    3  A    between atoms: C_22  and  O_23
REMARK                            x       y       z     vdW  Elec       q    Type
REMARK                         _______ _______ _______ _____ _____    ______ ____
ROOT
ATOM      1  C   UNL     1       1.161  10.166  19.707  0.00  0.00    +0.000 C 
ATOM      2  C   UNL     1       1.024  11.436  20.536  0.00  0.00    +0.000 C 
ATOM      3  C   UNL     1      -0.372  11.589  21.096  0.00  0.00    +0.000 C 
ATOM      4  C   UNL     1      -1.458  11.545  20.051  0.00  0.00    +0.000 C 
ATOM      5  O   UNL     1      -2.529  12.093  20.329  0.00  0.00    +0.000 OA
ATOM      6  N   UNL     1      -1.209  10.811  18.886  0.00  0.00    +0.000 N 
ATOM      7  C   UNL     1       0.063  10.099  18.639  0.00  0.00    +0.000 C 
ENDROOT
BRANCH   1   9
ATOM      8  O   UNL     1       0.721   8.889  21.709  0.00  0.00    +0.000 OA
ATOM      9  C   UNL     1       1.180   8.896  20.565  0.00  0.00    +0.000 C 
ATOM     10  N   UNL     1       1.688   7.742  20.019  0.00  0.00    +0.000 N 
ATOM     11  C   UNL     1       2.463   7.577  18.786  0.00  0.00    +0.000 C 
ATOM     12  C   UNL     1       2.732   6.104  18.735  0.00  0.00    +0.000 A 
ATOM     13  C   UNL     1       3.353   5.355  17.748  0.00  0.00    +0.000 A 
ATOM     14  C   UNL     1       3.464   3.970  17.933  0.00  0.00    +0.000 A 
ATOM     15  C   UNL     1       2.960   3.371  19.094  0.00  0.00    +0.000 A 
ATOM     16  C   UNL     1       2.352   4.124  20.092  0.00  0.00    +0.000 A 
ATOM     17  C   UNL     1       2.243   5.491  19.896  0.00  0.00    +0.000 A 
ATOM     18  C   UNL     1       1.640   6.506  20.805  0.00  0.00    +0.000 C 
BRANCH  15  19
ATOM     19  O   UNL     1       3.044   2.023  19.289  0.00  0.00    +0.000 OA
ATOM     20  H   UNL     1       2.670   1.807  20.159  0.00  0.00    +0.000 HD
ENDBRANCH  15  19
ENDBRANCH   1   9
BRANCH   6  21
ATOM     21  C   UNL     1      -2.195  10.781  17.819  0.00  0.00    +0.000 A 
ATOM     22  C   UNL     1      -2.023   9.972  16.679  0.00  0.00    +0.000 A 
ATOM     23  C   UNL     1      -2.953   9.958  15.631  0.00  0.00    +0.000 A 
ATOM     24  C   UNL     1      -4.087  10.756  15.702  0.00  0.00    +0.000 A 
ATOM     25  C   UNL     1      -4.284  11.540  16.827  0.00  0.00    +0.000 A 
ATOM     26  F   UNL     1      -5.373  12.318  16.902  0.00  0.00    +0.000 F 
ATOM     27  C   UNL     1      -3.365  11.551  17.881  0.00  0.00    +0.000 A 
ENDBRANCH   6  21
TORSDOF 3
ENDMDL
MODEL 6
REMARK VINA RESULT:      -7.7      6.374      9.446
REMARK  Name = 
REMARK  3 active torsions:
REMARK  status: ('A' for Active; 'I' for Inactive)
REMARK    1  A    between atoms: C_2  and  C_3
REMARK    2  A    between atoms: N_8  and  C_9
REMARK    3  A    between atoms: C_22  and  O_23
REMARK                            x       y       z     vdW  Elec       q    Type
REMARK                         _______ _______ _______ _____ _____    ______ ____
ROOT
ATOM      1  C   UNL     1       1.117  10.171  19.781  0.00  0.00    +0.000 C 
ATOM      2  C   UNL     1       1.055  11.426  20.639  0.00  0.00    +0.000 C 
ATOM      3  C   UNL     1      -0.323  11.631  21.228  0.00  0.00    +0.000 C 
ATOM      4  C   UNL     1      -1.428  11.662  20.203  0.00  0.00    +0.000 C 
ATOM      5  O   UNL     1      -2.467  12.253  20.512  0.00  0.00    +0.000 OA
ATOM      6  N   UNL     1      -1.234  10.943  19.017  0.00  0.00    +0.000 N 
ATOM      7  C   UNL     1      -0.001  10.179  18.732  0.00  0.00    +0.000 C 
ENDROOT
BRANCH   1   9
ATOM      8  O   UNL     1       0.567   8.848  21.726  0.00  0.00    +0.000 OA
ATOM      9  C   UNL     1       1.092   8.882  20.611  0.00  0.00    +0.000 C 
ATOM     10  N   UNL     1       1.634   7.741  20.070  0.00  0.00    +0.000 N 
ATOM     11  C   UNL     1       2.481   7.605  18.880  0.00  0.00    +0.000 C 
ATOM     12  C   UNL     1       2.757   6.134  18.813  0.00  0.00    +0.000 A 
ATOM     13  C   UNL     1       3.437   5.409  17.848  0.00  0.00    +0.000 A 
ATOM     14  C   UNL     1       3.543   4.021  18.009  0.00  0.00    +0.000 A 
ATOM     15  C   UNL     1       2.975   3.395  19.125  0.00  0.00    +0.000 A 
ATOM     16  C   UNL     1       2.307   4.124  20.102  0.00  0.00    +0.000 A 
ATOM     17  C   UNL     1       2.205   5.495  19.931  0.00  0.00    +0.000 A 
ATOM     18  C   UNL     1       1.546   6.489  20.825  0.00  0.00    +0.000 C 
BRANCH  15  19
ATOM     19  O   UNL     1       3.052   2.044  19.295  0.00  0.00    +0.000 OA
ATOM     20  H   UNL     1       2.156   1.671  19.265  0.00  0.00    +0.000 HD
ENDBRANCH  15  19
ENDBRANCH   1   9
BRANCH   6  21
ATOM     21  C   UNL     1      -2.239  10.982  17.969  0.00  0.00    +0.000 A 
ATOM     22  C   UNL     1      -3.530  11.490  18.204  0.00  0.00    +0.000 A 
ATOM     23  C   UNL     1      -4.516  11.506  17.207  0.00  0.00    +0.000 A 
ATOM     24  C   UNL     1      -4.227  11.013  15.942  0.00  0.00    +0.000 A 
ATOM     25  C   UNL     1      -2.953  10.531  15.686  0.00  0.00    +0.000 A 
ATOM     26  F   UNL     1      -2.667  10.048  14.469  0.00  0.00    +0.000 F 
ATOM     27  C   UNL     1      -1.963  10.523  16.673  0.00  0.00    +0.000 A 
ENDBRANCH   6  21
TORSDOF 3
ENDMDL
MODEL 7
REMARK VINA RESULT:      -7.6      5.802      9.563
REMARK  Name = 
REMARK  3 active torsions:
REMARK  status: ('A' for Active; 'I' for Inactive)
REMARK    1  A    between atoms: C_2  and  C_3
REMARK    2  A    between atoms: N_8  and  C_9
REMARK    3  A    between atoms: C_22  and  O_23
REMARK                            x       y       z     vdW  Elec       q    Type
REMARK                         _______ _______ _______ _____ _____    ______ ____
ROOT
ATOM      1  C   UNL     1       1.053   9.753  19.946  0.00  0.00    +0.000 C 
ATOM      2  C   UNL     1      -0.468   9.748  19.893  0.00  0.00    +0.000 C 
ATOM      3  C   UNL     1      -0.987  10.479  18.676  0.00  0.00    +0.000 C 
ATOM      4  C   UNL     1      -0.479  11.892  18.548  0.00  0.00    +0.000 C 
ATOM      5  O   UNL     1      -1.164  12.680  17.887  0.00  0.00    +0.000 OA
ATOM      6  N   UNL     1       0.771  12.186  19.105  0.00  0.00    +0.000 N 
ATOM      7  C   UNL     1       1.592  11.182  19.814  0.00  0.00    +0.000 C 
ENDROOT
BRANCH   1   9
ATOM      8  O   UNL     1       1.957   9.220  17.770  0.00  0.00    +0.000 OA
ATOM      9  C   UNL     1       1.686   8.822  18.905  0.00  0.00    +0.000 C 
ATOM     10  N   UNL     1       1.986   7.532  19.273  0.00  0.00    +0.000 N 
ATOM     11  C   UNL     1       1.564   6.801  20.471  0.00  0.00    +0.000 C 
ATOM     12  C   UNL     1       2.196   5.453  20.299  0.00  0.00    +0.000 A 
ATOM     13  C   UNL     1       2.212   4.371  21.165  0.00  0.00    +0.000 A 
ATOM     14  C   UNL     1       2.898   3.214  20.773  0.00  0.00    +0.000 A 
ATOM     15  C   UNL     1       3.544   3.164  19.531  0.00  0.00    +0.000 A 
ATOM     16  C   UNL     1       3.514   4.243  18.655  0.00  0.00    +0.000 A 
ATOM     17  C   UNL     1       2.836   5.383  19.055  0.00  0.00    +0.000 A 
ATOM     18  C   UNL     1       2.660   6.660  18.308  0.00  0.00    +0.000 C 
BRANCH  15  19
ATOM     19  O   UNL     1       4.231   2.054  19.134  0.00  0.00    +0.000 OA
ATOM     20  H   UNL     1       4.939   2.323  18.527  0.00  0.00    +0.000 HD
ENDBRANCH  15  19
ENDBRANCH   1   9
BRANCH   6  21
ATOM     21  C   UNL     1       1.286  13.544  19.065  0.00  0.00    +0.000 A 
ATOM     22  C   UNL     1       0.802  14.542  19.932  0.00  0.00    +0.000 A 
ATOM     23  C   UNL     1       1.271  15.862  19.881  0.00  0.00    +0.000 A 
ATOM     24  C   UNL     1       2.245  16.214  18.957  0.00  0.00    +0.000 A 
ATOM     25  C   UNL     1       2.749  15.239  18.111  0.00  0.00    +0.000 A 
ATOM     26  F   UNL     1       3.686  15.571  17.212  0.00  0.00    +0.000 F 
ATOM     27  C   UNL     1       2.294  13.918  18.164  0.00  0.00    +0.000 A 
ENDBRANCH   6  21
TORSDOF 3
ENDMDL
MODEL 8
REMARK VINA RESULT:      -7.6      6.697      9.255
REMARK  Name = 
REMARK  3 active torsions:
REMARK  status: ('A' for Active; 'I' for Inactive)
REMARK    1  A    between atoms: C_2  and  C_3
REMARK    2  A    between atoms: N_8  and  C_9
REMARK    3  A    between atoms: C_22  and  O_23
REMARK                            x       y       z     vdW  Elec       q    Type
REMARK                         _______ _______ _______ _____ _____    ______ ____
ROOT
ATOM      1  C   UNL     1       0.300  10.254  19.375  0.00  0.00    +0.000 C 
ATOM      2  C   UNL     1       1.284  11.404  19.215  0.00  0.00    +0.000 C 
ATOM      3  C   UNL     1       1.543  12.104  20.530  0.00  0.00    +0.000 C 
ATOM      4  C   UNL     1       0.295  12.597  21.217  0.00  0.00    +0.000 C 
ATOM      5  O   UNL     1       0.421  13.532  22.013  0.00  0.00    +0.000 OA
ATOM      6  N   UNL     1      -0.897  11.903  20.975  0.00  0.00    +0.000 N 
ATOM      7  C   UNL     1      -0.977  10.732  20.076  0.00  0.00    +0.000 C 
ENDROOT
BRANCH   1   9
ATOM      8  O   UNL     1       0.602   8.770  21.257  0.00  0.00    +0.000 OA
ATOM      9  C   UNL     1       0.910   9.046  20.095  0.00  0.00    +0.000 C 
ATOM     10  N   UNL     1       1.785   8.243  19.405  0.00  0.00    +0.000 N 
ATOM     11  C   UNL     1       2.442   8.498  18.119  0.00  0.00    +0.000 C 
ATOM     12  C   UNL     1       3.275   7.272  17.902  0.00  0.00    +0.000 A 
ATOM     13  C   UNL     1       4.049   6.915  16.810  0.00  0.00    +0.000 A 
ATOM     14  C   UNL     1       4.726   5.688  16.844  0.00  0.00    +0.000 A 
ATOM     15  C   UNL     1       4.618   4.855  17.964  0.00  0.00    +0.000 A 
ATOM     16  C   UNL     1       3.855   5.220  19.068  0.00  0.00    +0.000 A 
ATOM     17  C   UNL     1       3.186   6.432  19.020  0.00  0.00    +0.000 A 
ATOM     18  C   UNL     1       2.314   7.045  20.062  0.00  0.00    +0.000 C 
BRANCH  15  19
ATOM     19  O   UNL     1       5.255   3.650  18.015  0.00  0.00    +0.000 OA
ATOM     20  H   UNL     1       6.214   3.800  17.991  0.00  0.00    +0.000 HD
ENDBRANCH  15  19
ENDBRANCH   1   9
BRANCH   6  21
ATOM     21  C   UNL     1      -2.142  12.366  21.563  0.00  0.00    +0.000 A 
ATOM     22  C   UNL     1      -3.068  13.126  20.824  0.00  0.00    +0.000 A 
ATOM     23  C   UNL     1      -4.258  13.603  21.389  0.00  0.00    +0.000 A 
ATOM     24  C   UNL     1      -4.553  13.323  22.717  0.00  0.00    +0.000 A 
ATOM     25  C   UNL     1      -3.664  12.556  23.453  0.00  0.00    +0.000 A 
ATOM     26  F   UNL     1      -3.938  12.285  24.736  0.00  0.00    +0.000 F 
ATOM     27  C   UNL     1      -2.480  12.068  22.891  0.00  0.00    +0.000 A 
ENDBRANCH   6  21
TORSDOF 3
ENDMDL
MODEL 9
REMARK VINA RESULT:      -7.5      1.280      1.311
REMARK  Name = 
REMARK  3 active torsions:
REMARK  status: ('A' for Active; 'I' for Inactive)
REMARK    1  A    between atoms: C_2  and  C_3
REMARK    2  A    between atoms: N_8  and  C_9
REMARK    3  A    between atoms: C_22  and  O_23
REMARK                            x       y       z     vdW  Elec       q    Type
REMARK                         _______ _______ _______ _____ _____    ______ ____
ROOT
ATOM      1  C   UNL     1       7.284   6.270  18.585  0.00  0.00    +0.000 C 
ATOM      2  C   UNL     1       8.074   5.095  18.028  0.00  0.00    +0.000 C 
ATOM      3  C   UNL     1       7.387   4.478  16.831  0.00  0.00    +0.000 C 
ATOM      4  C   UNL     1       5.965   4.053  17.094  0.00  0.00    +0.000 C 
ATOM      5  O   UNL     1       5.497   3.170  16.369  0.00  0.00    +0.000 OA
ATOM      6  N   UNL     1       5.249   4.751  18.075  0.00  0.00    +0.000 N 
ATOM      7  C   UNL     1       5.832   5.862  18.858  0.00  0.00    +0.000 C 
ENDROOT
BRANCH   1   9
ATOM      8  O   UNL     1       6.798   7.539  16.589  0.00  0.00    +0.000 OA
ATOM      9  C   UNL     1       7.353   7.512  17.688  0.00  0.00    +0.000 C 
ATOM     10  N   UNL     1       8.019   8.621  18.152  0.00  0.00    +0.000 N 
ATOM     11  C   UNL     1       8.913   8.735  19.308  0.00  0.00    +0.000 C 
ATOM     12  C   UNL     1       9.329  10.174  19.289  0.00  0.00    +0.000 A 
ATOM     13  C   UNL     1      10.106  10.878  20.194  0.00  0.00    +0.000 A 
ATOM     14  C   UNL     1      10.337  12.240  19.956  0.00  0.00    +0.000 A 
ATOM     15  C   UNL     1       9.795  12.860  18.824  0.00  0.00    +0.000 A 
ATOM     16  C   UNL     1       9.029  12.150  17.906  0.00  0.00    +0.000 A 
ATOM     17  C   UNL     1       8.803  10.806  18.154  0.00  0.00    +0.000 A 
ATOM     18  C   UNL     1       8.025   9.836  17.334  0.00  0.00    +0.000 C 
BRANCH  15  19
ATOM     19  O   UNL     1       9.994  14.187  18.580  0.00  0.00    +0.000 OA
ATOM     20  H   UNL     1      10.760  14.491  19.094  0.00  0.00    +0.000 HD
ENDBRANCH  15  19
ENDBRANCH   1   9
BRANCH   6  21
ATOM     21  C   UNL     1       3.894   4.349  18.413  0.00  0.00    +0.000 A 
ATOM     22  C   UNL     1       3.610   3.637  19.593  0.00  0.00    +0.000 A 
ATOM     23  C   UNL     1       2.311   3.220  19.915  0.00  0.00    +0.000 A 
ATOM     24  C   UNL     1       1.260   3.511  19.057  0.00  0.00    +0.000 A 
ATOM     25  C   UNL     1       1.518   4.232  17.902  0.00  0.00    +0.000 A 
ATOM     26  F   UNL     1       0.509   4.513  17.065  0.00  0.00    +0.000 F 
ATOM     27  C   UNL     1       2.809   4.661  17.581  0.00  0.00    +0.000 A 
ENDBRANCH   6  21
TORSDOF 3
ENDMDL
