MODEL 1
REMARK VINA RESULT:      -9.5      0.000      0.000
REMARK  Name = 
REMARK  6 active torsions:
REMARK  status: ('A' for Active; 'I' for Inactive)
REMARK    1  A    between atoms: C_1  and  C_2
REMARK    2  A    between atoms: C_2  and  C_3
REMARK    3  A    between atoms: C_7  and  C_8
REMARK    4  A    between atoms: C_11  and  C_12
REMARK    5  A    between atoms: C_12  and  C_13
REMARK    6  A    between atoms: C_13  and  C_14
REMARK                            x       y       z     vdW  Elec       q    Type
REMARK                         _______ _______ _______ _____ _____    ______ ____
ROOT
ATOM      1  C   UNL     1       4.762   3.991  17.170  0.00  0.00    +0.000 A 
ATOM      2  C   UNL     1       4.929   3.731  15.799  0.00  0.00    +0.000 A 
ATOM      3  C   UNL     1       5.867   4.434  15.038  0.00  0.00    +0.000 A 
ATOM      4  C   UNL     1       6.668   5.401  15.636  0.00  0.00    +0.000 A 
ATOM      5  C   UNL     1       6.543   5.665  17.000  0.00  0.00    +0.000 A 
ATOM      6  C   UNL     1       5.617   4.935  17.764  0.00  0.00    +0.000 A 
ENDROOT
BRANCH   1   8
ATOM      7  C   UNL     1       2.428   3.011  17.148  0.00  0.00    +0.000 C 
ATOM      8  C   UNL     1       3.666   3.303  17.983  0.00  0.00    +0.000 C 
ATOM      9  N   UNL     1       4.171   2.115  18.647  0.00  0.00    +0.000 N 
ATOM     10  C   UNL     1       4.485   2.354  19.962  0.00  0.00    +0.000 C 
ATOM     11  O   UNL     1       5.063   1.568  20.694  0.00  0.00    +0.000 OA
ATOM     12  N   UNL     1       4.013   3.568  20.307  0.00  0.00    +0.000 N 
ATOM     13  C   UNL     1       3.331   4.111  19.264  0.00  0.00    +0.000 C 
ATOM     14  O   UNL     1       2.630   5.112  19.341  0.00  0.00    +0.000 OA
ATOM     15  H   UNL     1       4.535   1.290  18.189  0.00  0.00    +0.000 HD
ATOM     16  H   UNL     1       4.026   3.932  21.244  0.00  0.00    +0.000 HD
ENDBRANCH   1   8
BRANCH   5  17
ATOM     17  C   UNL     1       7.322   6.709  17.641  0.00  0.00    +0.000 A 
ATOM     18  N   UNL     1       8.064   6.531  18.745  0.00  0.00    +0.000 NA
ATOM     19  O   UNL     1       8.625   7.783  18.964  0.00  0.00    +0.000 OA
ATOM     20  C   UNL     1       8.172   8.594  17.965  0.00  0.00    +0.000 A 
ATOM     21  N   UNL     1       7.375   7.985  17.124  0.00  0.00    +0.000 NA
BRANCH  20  22
ATOM     22  C   UNL     1       8.602  10.013  17.971  0.00  0.00    +0.000 C 
BRANCH  22  23
ATOM     23  C   UNL     1       9.365  10.354  19.246  0.00  0.00    +0.000 C 
BRANCH  23  24
ATOM     24  C   UNL     1       9.516  11.860  19.539  0.00  0.00    +0.000 C 
ATOM     25  C   UNL     1       9.925  12.692  18.316  0.00  0.00    +0.000 C 
ATOM     26  C   UNL     1      11.336  12.336  17.854  0.00  0.00    +0.000 C 
ATOM     27  C   UNL     1      12.333  12.403  19.013  0.00  0.00    +0.000 C 
ATOM     28  N   UNL     1      11.896  11.633  20.178  0.00  0.00    +0.000 NA
ATOM     29  C   UNL     1      10.573  12.051  20.643  0.00  0.00    +0.000 C 
ATOM     30  H   UNL     1      12.575  11.738  20.932  0.00  0.00    +0.000 HD
ENDBRANCH  23  24
ENDBRANCH  22  23
ENDBRANCH  20  22
ENDBRANCH   5  17
TORSDOF 5
ENDMDL
MODEL 2
REMARK VINA RESULT:      -9.4      1.544      2.113
REMARK  Name = 
REMARK  6 active torsions:
REMARK  status: ('A' for Active; 'I' for Inactive)
REMARK    1  A    between atoms: C_1  and  C_2
REMARK    2  A    between atoms: C_2  and  C_3
REMARK    3  A    between atoms: C_7  and  C_8
REMARK    4  A    between atoms: C_11  and  C_12
REMARK    5  A    between atoms: C_12  and  C_13
REMARK    6  A    between atoms: C_13  and  C_14
REMARK                            x       y       z     vdW  Elec       q    Type
REMARK                         _______ _______ _______ _____ _____    ______ ____
ROOT
ATOM      1  C   UNL     1       3.654   4.321  18.422  0.00  0.00    +0.000 A 
ATOM      2  C   UNL     1       3.632   3.648  17.188  0.00  0.00    +0.000 A 
ATOM      3  C   UNL     1       4.617   3.874  16.223  0.00  0.00    +0.000 A 
ATOM      4  C   UNL     1       5.654   4.765  16.479  0.00  0.00    +0.000 A 
ATOM      5  C   UNL     1       5.718   5.430  17.704  0.00  0.00    +0.000 A 
ATOM      6  C   UNL     1       4.737   5.177  18.679  0.00  0.00    +0.000 A 
ENDROOT
BRANCH   1   8
ATOM      7  C   UNL     1       2.391   5.371  20.349  0.00  0.00    +0.000 C 
ATOM      8  C   UNL     1       2.522   4.160  19.437  0.00  0.00    +0.000 C 
ATOM      9  N   UNL     1       1.271   3.830  18.779  0.00  0.00    +0.000 N 
ATOM     10  C   UNL     1       1.005   2.484  18.822  0.00  0.00    +0.000 C 
ATOM     11  O   UNL     1       0.099   1.934  18.219  0.00  0.00    +0.000 OA
ATOM     12  N   UNL     1       1.878   1.896  19.665  0.00  0.00    +0.000 N 
ATOM     13  C   UNL     1       2.674   2.839  20.235  0.00  0.00    +0.000 C 
ATOM     14  O   UNL     1       3.425   2.630  21.180  0.00  0.00    +0.000 OA
ATOM     15  H   UNL     1       0.775   4.416  18.121  0.00  0.00    +0.000 HD
ATOM     16  H   UNL     1       1.827   0.932  19.944  0.00  0.00    +0.000 HD
ENDBRANCH   1   8
BRANCH   5  17
ATOM     17  C   UNL     1       6.753   6.410  17.978  0.00  0.00    +0.000 A 
ATOM     18  N   UNL     1       7.767   6.220  18.836  0.00  0.00    +0.000 NA
ATOM     19  O   UNL     1       8.491   7.403  18.749  0.00  0.00    +0.000 OA
ATOM     20  C   UNL     1       7.846   8.189  17.839  0.00  0.00    +0.000 A 
ATOM     21  N   UNL     1       6.778   7.627  17.332  0.00  0.00    +0.000 NA
BRANCH  20  22
ATOM     22  C   UNL     1       8.399   9.537  17.568  0.00  0.00    +0.000 C 
BRANCH  22  23
ATOM     23  C   UNL     1       9.117  10.096  18.792  0.00  0.00    +0.000 C 
BRANCH  23  24
ATOM     24  C   UNL     1       9.319  11.624  18.794  0.00  0.00    +0.000 C 
ATOM     25  C   UNL     1      10.490  12.098  17.920  0.00  0.00    +0.000 C 
ATOM     26  C   UNL     1      11.826  11.621  18.483  0.00  0.00    +0.000 C 
ATOM     27  C   UNL     1      11.967  11.986  19.963  0.00  0.00    +0.000 C 
ATOM     28  N   UNL     1      10.819  11.558  20.762  0.00  0.00    +0.000 NA
ATOM     29  C   UNL     1       9.560  12.095  20.241  0.00  0.00    +0.000 C 
ATOM     30  H   UNL     1      10.945  11.854  21.730  0.00  0.00    +0.000 HD
ENDBRANCH  23  24
ENDBRANCH  22  23
ENDBRANCH  20  22
ENDBRANCH   5  17
TORSDOF 5
ENDMDL
MODEL 3
REMARK VINA RESULT:      -9.4      0.872      1.292
REMARK  Name = 
REMARK  6 active torsions:
REMARK  status: ('A' for Active; 'I' for Inactive)
REMARK    1  A    between atoms: C_1  and  C_2
REMARK    2  A    between atoms: C_2  and  C_3
REMARK    3  A    between atoms: C_7  and  C_8
REMARK    4  A    between atoms: C_11  and  C_12
REMARK    5  A    between atoms: C_12  and  C_13
REMARK    6  A    between atoms: C_13  and  C_14
REMARK                            x       y       z     vdW  Elec       q    Type
REMARK                         _______ _______ _______ _____ _____    ______ ____
ROOT
ATOM      1  C   UNL     1       4.885   4.021  17.162  0.00  0.00    +0.000 A 
ATOM      2  C   UNL     1       5.130   3.704  15.815  0.00  0.00    +0.000 A 
ATOM      3  C   UNL     1       6.097   4.388  15.075  0.00  0.00    +0.000 A 
ATOM      4  C   UNL     1       6.851   5.394  15.671  0.00  0.00    +0.000 A 
ATOM      5  C   UNL     1       6.648   5.716  17.013  0.00  0.00    +0.000 A 
ATOM      6  C   UNL     1       5.691   5.004  17.758  0.00  0.00    +0.000 A 
ENDROOT
BRANCH   1   8
ATOM      7  C   UNL     1       2.560   3.024  17.062  0.00  0.00    +0.000 C 
ATOM      8  C   UNL     1       3.756   3.351  17.944  0.00  0.00    +0.000 C 
ATOM      9  N   UNL     1       4.237   2.188  18.667  0.00  0.00    +0.000 N 
ATOM     10  C   UNL     1       4.488   2.469  19.987  0.00  0.00    +0.000 C 
ATOM     11  O   UNL     1       5.035   1.711  20.770  0.00  0.00    +0.000 OA
ATOM     12  N   UNL     1       3.993   3.691  20.273  0.00  0.00    +0.000 N 
ATOM     13  C   UNL     1       3.357   4.196  19.182  0.00  0.00    +0.000 C 
ATOM     14  O   UNL     1       2.648   5.194  19.195  0.00  0.00    +0.000 OA
ATOM     15  H   UNL     1       4.626   1.351  18.254  0.00  0.00    +0.000 HD
ATOM     16  H   UNL     1       3.961   4.084  21.197  0.00  0.00    +0.000 HD
ENDBRANCH   1   8
BRANCH   5  17
ATOM     17  C   UNL     1       7.375   6.800  17.647  0.00  0.00    +0.000 A 
ATOM     18  N   UNL     1       8.108   6.669  18.763  0.00  0.00    +0.000 NA
ATOM     19  O   UNL     1       8.615   7.946  18.971  0.00  0.00    +0.000 OA
ATOM     20  C   UNL     1       8.144   8.723  17.953  0.00  0.00    +0.000 A 
ATOM     21  N   UNL     1       7.384   8.069  17.111  0.00  0.00    +0.000 NA
BRANCH  20  22
ATOM     22  C   UNL     1       8.516  10.158  17.942  0.00  0.00    +0.000 C 
BRANCH  22  23
ATOM     23  C   UNL     1       9.543  10.471  19.025  0.00  0.00    +0.000 C 
BRANCH  23  24
ATOM     24  C   UNL     1      10.713  11.369  18.580  0.00  0.00    +0.000 C 
ATOM     25  C   UNL     1      11.579  11.883  19.739  0.00  0.00    +0.000 C 
ATOM     26  C   UNL     1      10.793  12.840  20.632  0.00  0.00    +0.000 C 
ATOM     27  C   UNL     1      10.132  13.949  19.810  0.00  0.00    +0.000 C 
ATOM     28  N   UNL     1       9.348  13.431  18.689  0.00  0.00    +0.000 NA
ATOM     29  C   UNL     1      10.150  12.579  17.810  0.00  0.00    +0.000 C 
ATOM     30  H   UNL     1       8.959  14.208  18.155  0.00  0.00    +0.000 HD
ENDBRANCH  23  24
ENDBRANCH  22  23
ENDBRANCH  20  22
ENDBRANCH   5  17
TORSDOF 5
ENDMDL
MODEL 4
REMARK VINA RESULT:      -9.4      1.272      1.846
REMARK  Name = 
REMARK  6 active torsions:
REMARK  status: ('A' for Active; 'I' for Inactive)
REMARK    1  A    between atoms: C_1  and  C_2
REMARK    2  A    between atoms: C_2  and  C_3
REMARK    3  A    between atoms: C_7  and  C_8
REMARK    4  A    between atoms: C_11  and  C_12
REMARK    5  A    between atoms: C_12  and  C_13
REMARK    6  A    between atoms: C_13  and  C_14
REMARK                            x       y       z     vdW  Elec       q    Type
REMARK                         _______ _______ _______ _____ _____    ______ ____
ROOT
ATOM      1  C   UNL     1       4.491   3.911  18.014  0.00  0.00    +0.000 A 
ATOM      2  C   UNL     1       4.400   3.567  16.655  0.00  0.00    +0.000 A 
ATOM      3  C   UNL     1       5.176   4.215  15.691  0.00  0.00    +0.000 A 
ATOM      4  C   UNL     1       6.073   5.209  16.069  0.00  0.00    +0.000 A 
ATOM      5  C   UNL     1       6.205   5.556  17.414  0.00  0.00    +0.000 A 
ATOM      6  C   UNL     1       5.439   4.880  18.380  0.00  0.00    +0.000 A 
ENDROOT
BRANCH   1   8
ATOM      7  C   UNL     1       4.109   1.960  19.582  0.00  0.00    +0.000 C 
ATOM      8  C   UNL     1       3.568   3.282  19.058  0.00  0.00    +0.000 C 
ATOM      9  N   UNL     1       3.273   4.217  20.129  0.00  0.00    +0.000 N 
ATOM     10  C   UNL     1       2.056   4.829  19.958  0.00  0.00    +0.000 C 
ATOM     11  O   UNL     1       1.641   5.757  20.632  0.00  0.00    +0.000 OA
ATOM     12  N   UNL     1       1.393   4.207  18.961  0.00  0.00    +0.000 N 
ATOM     13  C   UNL     1       2.121   3.149  18.514  0.00  0.00    +0.000 C 
ATOM     14  O   UNL     1       1.696   2.288  17.755  0.00  0.00    +0.000 OA
ATOM     15  H   UNL     1       3.945   4.615  20.770  0.00  0.00    +0.000 HD
ATOM     16  H   UNL     1       0.440   4.402  18.711  0.00  0.00    +0.000 HD
ENDBRANCH   1   8
BRANCH   5  17
ATOM     17  C   UNL     1       7.087   6.629  17.833  0.00  0.00    +0.000 A 
ATOM     18  N   UNL     1       8.005   6.518  18.806  0.00  0.00    +0.000 NA
ATOM     19  O   UNL     1       8.602   7.773  18.833  0.00  0.00    +0.000 OA
ATOM     20  C   UNL     1       7.991   8.517  17.866  0.00  0.00    +0.000 A 
ATOM     21  N   UNL     1       7.059   7.862  17.220  0.00  0.00    +0.000 NA
BRANCH  20  22
ATOM     22  C   UNL     1       8.423   9.924  17.693  0.00  0.00    +0.000 C 
BRANCH  22  23
ATOM     23  C   UNL     1       9.193  10.420  18.912  0.00  0.00    +0.000 C 
BRANCH  23  24
ATOM     24  C   UNL     1       9.521  11.926  18.914  0.00  0.00    +0.000 C 
ATOM     25  C   UNL     1      10.628  12.322  17.926  0.00  0.00    +0.000 C 
ATOM     26  C   UNL     1      11.971  11.724  18.334  0.00  0.00    +0.000 C 
ATOM     27  C   UNL     1      12.299  12.042  19.795  0.00  0.00    +0.000 C 
ATOM     28  N   UNL     1      11.211  11.692  20.708  0.00  0.00    +0.000 NA
ATOM     29  C   UNL     1       9.954  12.342  20.333  0.00  0.00    +0.000 C 
ATOM     30  H   UNL     1      11.464  11.955  21.660  0.00  0.00    +0.000 HD
ENDBRANCH  23  24
ENDBRANCH  22  23
ENDBRANCH  20  22
ENDBRANCH   5  17
TORSDOF 5
ENDMDL
MODEL 5
REMARK VINA RESULT:      -9.3      1.419      1.791
REMARK  Name = 
REMARK  6 active torsions:
REMARK  status: ('A' for Active; 'I' for Inactive)
REMARK    1  A    between atoms: C_1  and  C_2
REMARK    2  A    between atoms: C_2  and  C_3
REMARK    3  A    between atoms: C_7  and  C_8
REMARK    4  A    between atoms: C_11  and  C_12
REMARK    5  A    between atoms: C_12  and  C_13
REMARK    6  A    between atoms: C_13  and  C_14
REMARK                            x       y       z     vdW  Elec       q    Type
REMARK                         _______ _______ _______ _____ _____    ______ ____
ROOT
ATOM      1  C   UNL     1       3.936   4.514  17.824  0.00  0.00    +0.000 A 
ATOM      2  C   UNL     1       4.230   3.697  16.720  0.00  0.00    +0.000 A 
ATOM      3  C   UNL     1       5.433   3.829  16.021  0.00  0.00    +0.000 A 
ATOM      4  C   UNL     1       6.374   4.772  16.424  0.00  0.00    +0.000 A 
ATOM      5  C   UNL     1       6.121   5.582  17.531  0.00  0.00    +0.000 A 
ATOM      6  C   UNL     1       4.920   5.423  18.244  0.00  0.00    +0.000 A 
ENDROOT
BRANCH   1   8
ATOM      7  C   UNL     1       1.420   4.590  17.548  0.00  0.00    +0.000 C 
ATOM      8  C   UNL     1       2.578   4.448  18.525  0.00  0.00    +0.000 C 
ATOM      9  N   UNL     1       2.465   3.251  19.338  0.00  0.00    +0.000 N 
ATOM     10  C   UNL     1       2.723   3.501  20.663  0.00  0.00    +0.000 C 
ATOM     11  O   UNL     1       2.839   2.646  21.524  0.00  0.00    +0.000 OA
ATOM     12  N   UNL     1       2.781   4.836  20.849  0.00  0.00    +0.000 N 
ATOM     13  C   UNL     1       2.498   5.476  19.683  0.00  0.00    +0.000 C 
ATOM     14  O   UNL     1       2.285   6.678  19.588  0.00  0.00    +0.000 OA
ATOM     15  H   UNL     1       2.485   2.298  18.998  0.00  0.00    +0.000 HD
ATOM     16  H   UNL     1       2.858   5.276  21.749  0.00  0.00    +0.000 HD
ENDBRANCH   1   8
BRANCH   5  17
ATOM     17  C   UNL     1       7.056   6.614  17.938  0.00  0.00    +0.000 A 
ATOM     18  N   UNL     1       7.991   6.457  18.888  0.00  0.00    +0.000 NA
ATOM     19  O   UNL     1       8.639   7.686  18.912  0.00  0.00    +0.000 OA
ATOM     20  C   UNL     1       8.036   8.464  17.967  0.00  0.00    +0.000 A 
ATOM     21  N   UNL     1       7.063   7.854  17.338  0.00  0.00    +0.000 NA
BRANCH  20  22
ATOM     22  C   UNL     1       8.520   9.854  17.797  0.00  0.00    +0.000 C 
BRANCH  22  23
ATOM     23  C   UNL     1       9.186  10.368  19.069  0.00  0.00    +0.000 C 
BRANCH  23  24
ATOM     24  C   UNL     1      10.462  11.205  18.851  0.00  0.00    +0.000 C 
ATOM     25  C   UNL     1      11.064  11.769  20.145  0.00  0.00    +0.000 C 
ATOM     26  C   UNL     1      10.136  12.802  20.780  0.00  0.00    +0.000 C 
ATOM     27  C   UNL     1       9.723  13.873  19.768  0.00  0.00    +0.000 C 
ATOM     28  N   UNL     1       9.191  13.304  18.529  0.00  0.00    +0.000 NA
ATOM     29  C   UNL     1      10.136  12.376  17.905  0.00  0.00    +0.000 C 
ATOM     30  H   UNL     1       8.964  14.055  17.878  0.00  0.00    +0.000 HD
ENDBRANCH  23  24
ENDBRANCH  22  23
ENDBRANCH  20  22
ENDBRANCH   5  17
TORSDOF 5
ENDMDL
MODEL 6
REMARK VINA RESULT:      -9.3      1.473      2.215
REMARK  Name = 
REMARK  6 active torsions:
REMARK  status: ('A' for Active; 'I' for Inactive)
REMARK    1  A    between atoms: C_1  and  C_2
REMARK    2  A    between atoms: C_2  and  C_3
REMARK    3  A    between atoms: C_7  and  C_8
REMARK    4  A    between atoms: C_11  and  C_12
REMARK    5  A    between atoms: C_12  and  C_13
REMARK    6  A    between atoms: C_13  and  C_14
REMARK                            x       y       z     vdW  Elec       q    Type
REMARK                         _______ _______ _______ _____ _____    ______ ____
ROOT
ATOM      1  C   UNL     1       4.564   4.001  17.925  0.00  0.00    +0.000 A 
ATOM      2  C   UNL     1       4.464   3.717  16.552  0.00  0.00    +0.000 A 
ATOM      3  C   UNL     1       5.239   4.402  15.613  0.00  0.00    +0.000 A 
ATOM      4  C   UNL     1       6.144   5.374  16.029  0.00  0.00    +0.000 A 
ATOM      5  C   UNL     1       6.284   5.662  17.387  0.00  0.00    +0.000 A 
ATOM      6  C   UNL     1       5.519   4.949  18.327  0.00  0.00    +0.000 A 
ENDROOT
BRANCH   1   8
ATOM      7  C   UNL     1       4.199   2.004  19.438  0.00  0.00    +0.000 C 
ATOM      8  C   UNL     1       3.643   3.332  18.945  0.00  0.00    +0.000 C 
ATOM      9  N   UNL     1       3.328   4.234  20.038  0.00  0.00    +0.000 N 
ATOM     10  C   UNL     1       2.103   4.833  19.874  0.00  0.00    +0.000 C 
ATOM     11  O   UNL     1       1.671   5.737  20.570  0.00  0.00    +0.000 OA
ATOM     12  N   UNL     1       1.456   4.228  18.857  0.00  0.00    +0.000 N 
ATOM     13  C   UNL     1       2.202   3.193  18.388  0.00  0.00    +0.000 C 
ATOM     14  O   UNL     1       1.794   2.346  17.603  0.00  0.00    +0.000 OA
ATOM     15  H   UNL     1       3.990   4.624  20.694  0.00  0.00    +0.000 HD
ATOM     16  H   UNL     1       0.502   4.417  18.606  0.00  0.00    +0.000 HD
ENDBRANCH   1   8
BRANCH   5  17
ATOM     17  C   UNL     1       7.174   6.711  17.848  0.00  0.00    +0.000 A 
ATOM     18  N   UNL     1       8.085   6.558  18.821  0.00  0.00    +0.000 NA
ATOM     19  O   UNL     1       8.694   7.805  18.895  0.00  0.00    +0.000 OA
ATOM     20  C   UNL     1       8.094   8.588  17.951  0.00  0.00    +0.000 A 
ATOM     21  N   UNL     1       7.160   7.966  17.278  0.00  0.00    +0.000 NA
BRANCH  20  22
ATOM     22  C   UNL     1       8.541   9.996  17.830  0.00  0.00    +0.000 C 
BRANCH  22  23
ATOM     23  C   UNL     1       9.306  10.443  19.071  0.00  0.00    +0.000 C 
BRANCH  23  24
ATOM     24  C   UNL     1      10.536  11.332  18.800  0.00  0.00    +0.000 C 
ATOM     25  C   UNL     1      11.204  11.872  20.072  0.00  0.00    +0.000 C 
ATOM     26  C   UNL     1      10.288  12.849  20.803  0.00  0.00    +0.000 C 
ATOM     27  C   UNL     1       9.772  13.939  19.861  0.00  0.00    +0.000 C 
ATOM     28  N   UNL     1       9.178  13.395  18.640  0.00  0.00    +0.000 NA
ATOM     29  C   UNL     1      10.109  12.523  17.921  0.00  0.00    +0.000 C 
ATOM     30  H   UNL     1       8.883  14.159  18.032  0.00  0.00    +0.000 HD
ENDBRANCH  23  24
ENDBRANCH  22  23
ENDBRANCH  20  22
ENDBRANCH   5  17
TORSDOF 5
ENDMDL
MODEL 7
REMARK VINA RESULT:      -9.2      5.364      7.374
REMARK  Name = 
REMARK  6 active torsions:
REMARK  status: ('A' for Active; 'I' for Inactive)
REMARK    1  A    between atoms: C_1  and  C_2
REMARK    2  A    between atoms: C_2  and  C_3
REMARK    3  A    between atoms: C_7  and  C_8
REMARK    4  A    between atoms: C_11  and  C_12
REMARK    5  A    between atoms: C_12  and  C_13
REMARK    6  A    between atoms: C_13  and  C_14
REMARK                            x       y       z     vdW  Elec       q    Type
REMARK                         _______ _______ _______ _____ _____    ______ ____
ROOT
ATOM      1  C   UNL     1       3.581   3.981  18.407  0.00  0.00    +0.000 A 
ATOM      2  C   UNL     1       4.687   3.960  17.540  0.00  0.00    +0.000 A 
ATOM      3  C   UNL     1       5.127   5.121  16.899  0.00  0.00    +0.000 A 
ATOM      4  C   UNL     1       4.480   6.331  17.126  0.00  0.00    +0.000 A 
ATOM      5  C   UNL     1       3.395   6.390  18.000  0.00  0.00    +0.000 A 
ATOM      6  C   UNL     1       2.975   5.223  18.661  0.00  0.00    +0.000 A 
ENDROOT
BRANCH   1   8
ATOM      7  C   UNL     1       3.494   1.454  18.280  0.00  0.00    +0.000 C 
ATOM      8  C   UNL     1       3.029   2.697  19.025  0.00  0.00    +0.000 C 
ATOM      9  N   UNL     1       3.326   2.627  20.444  0.00  0.00    +0.000 N 
ATOM     10  C   UNL     1       2.259   3.019  21.214  0.00  0.00    +0.000 C 
ATOM     11  O   UNL     1       2.296   3.193  22.421  0.00  0.00    +0.000 OA
ATOM     12  N   UNL     1       1.173   3.135  20.423  0.00  0.00    +0.000 N 
ATOM     13  C   UNL     1       1.485   2.759  19.154  0.00  0.00    +0.000 C 
ATOM     14  O   UNL     1       0.663   2.574  18.265  0.00  0.00    +0.000 OA
ATOM     15  H   UNL     1       4.249   2.586  20.856  0.00  0.00    +0.000 HD
ATOM     16  H   UNL     1       0.244   3.311  20.764  0.00  0.00    +0.000 HD
ENDBRANCH   1   8
BRANCH   5  17
ATOM     17  C   UNL     1       2.662   7.625  18.211  0.00  0.00    +0.000 A 
ATOM     18  N   UNL     1       2.512   8.584  17.284  0.00  0.00    +0.000 NA
ATOM     19  O   UNL     1       1.739   9.541  17.929  0.00  0.00    +0.000 OA
ATOM     20  C   UNL     1       1.491   9.062  19.183  0.00  0.00    +0.000 A 
ATOM     21  N   UNL     1       2.029   7.890  19.406  0.00  0.00    +0.000 NA
BRANCH  20  22
ATOM     22  C   UNL     1       0.697   9.907  20.106  0.00  0.00    +0.000 C 
BRANCH  22  23
ATOM     23  C   UNL     1       0.041  11.069  19.368  0.00  0.00    +0.000 C 
BRANCH  23  24
ATOM     24  C   UNL     1      -1.500  11.064  19.371  0.00  0.00    +0.000 C 
ATOM     25  C   UNL     1      -2.119   9.860  18.647  0.00  0.00    +0.000 C 
ATOM     26  C   UNL     1      -1.826   9.908  17.150  0.00  0.00    +0.000 C 
ATOM     27  C   UNL     1      -2.214  11.261  16.550  0.00  0.00    +0.000 C 
ATOM     28  N   UNL     1      -1.643  12.389  17.286  0.00  0.00    +0.000 NA
ATOM     29  C   UNL     1      -2.006  12.357  18.704  0.00  0.00    +0.000 C 
ATOM     30  H   UNL     1      -1.958  13.265  16.870  0.00  0.00    +0.000 HD
ENDBRANCH  23  24
ENDBRANCH  22  23
ENDBRANCH  20  22
ENDBRANCH   5  17
TORSDOF 5
ENDMDL
MODEL 8
REMARK VINA RESULT:      -9.2      1.175      1.236
REMARK  Name = 
REMARK  6 active torsions:
REMARK  status: ('A' for Active; 'I' for Inactive)
REMARK    1  A    between atoms: C_1  and  C_2
REMARK    2  A    between atoms: C_2  and  C_3
REMARK    3  A    between atoms: C_7  and  C_8
REMARK    4  A    between atoms: C_11  and  C_12
REMARK    5  A    between atoms: C_12  and  C_13
REMARK    6  A    between atoms: C_13  and  C_14
REMARK                            x       y       z     vdW  Elec       q    Type
REMARK                         _______ _______ _______ _____ _____    ______ ____
ROOT
ATOM      1  C   UNL     1       3.990   4.500  17.801  0.00  0.00    +0.000 A 
ATOM      2  C   UNL     1       4.300   3.680  16.703  0.00  0.00    +0.000 A 
ATOM      3  C   UNL     1       5.485   3.852  15.983  0.00  0.00    +0.000 A 
ATOM      4  C   UNL     1       6.392   4.838  16.356  0.00  0.00    +0.000 A 
ATOM      5  C   UNL     1       6.125   5.652  17.457  0.00  0.00    +0.000 A 
ATOM      6  C   UNL     1       4.943   5.455  18.192  0.00  0.00    +0.000 A 
ENDROOT
BRANCH   1   8
ATOM      7  C   UNL     1       1.469   4.491  17.569  0.00  0.00    +0.000 C 
ATOM      8  C   UNL     1       2.648   4.388  18.525  0.00  0.00    +0.000 C 
ATOM      9  N   UNL     1       2.590   3.188  19.340  0.00  0.00    +0.000 N 
ATOM     10  C   UNL     1       2.862   3.449  20.660  0.00  0.00    +0.000 C 
ATOM     11  O   UNL     1       3.022   2.598  21.520  0.00  0.00    +0.000 OA
ATOM     12  N   UNL     1       2.878   4.784  20.845  0.00  0.00    +0.000 N 
ATOM     13  C   UNL     1       2.553   5.414  19.685  0.00  0.00    +0.000 C 
ATOM     14  O   UNL     1       2.298   6.608  19.593  0.00  0.00    +0.000 OA
ATOM     15  H   UNL     1       2.636   2.237  18.999  0.00  0.00    +0.000 HD
ATOM     16  H   UNL     1       2.956   5.227  21.743  0.00  0.00    +0.000 HD
ENDBRANCH   1   8
BRANCH   5  17
ATOM     17  C   UNL     1       7.023   6.728  17.835  0.00  0.00    +0.000 A 
ATOM     18  N   UNL     1       8.015   6.607  18.730  0.00  0.00    +0.000 NA
ATOM     19  O   UNL     1       8.596   7.869  18.744  0.00  0.00    +0.000 OA
ATOM     20  C   UNL     1       7.900   8.628  17.848  0.00  0.00    +0.000 A 
ATOM     21  N   UNL     1       6.930   7.976  17.259  0.00  0.00    +0.000 NA
BRANCH  20  22
ATOM     22  C   UNL     1       8.299  10.046  17.680  0.00  0.00    +0.000 C 
BRANCH  22  23
ATOM     23  C   UNL     1       9.619  10.337  18.386  0.00  0.00    +0.000 C 
BRANCH  23  24
ATOM     24  C   UNL     1       9.727  11.735  19.026  0.00  0.00    +0.000 C 
ATOM     25  C   UNL     1       9.674  12.888  18.013  0.00  0.00    +0.000 C 
ATOM     26  C   UNL     1      10.901  12.881  17.106  0.00  0.00    +0.000 C 
ATOM     27  C   UNL     1      12.195  12.829  17.921  0.00  0.00    +0.000 C 
ATOM     28  N   UNL     1      12.199  11.746  18.905  0.00  0.00    +0.000 NA
ATOM     29  C   UNL     1      11.050  11.825  19.809  0.00  0.00    +0.000 C 
ATOM     30  H   UNL     1      13.064  11.776  19.445  0.00  0.00    +0.000 HD
ENDBRANCH  23  24
ENDBRANCH  22  23
ENDBRANCH  20  22
ENDBRANCH   5  17
TORSDOF 5
ENDMDL
MODEL 9
REMARK VINA RESULT:      -9.1      5.833      8.766
REMARK  Name = 
REMARK  6 active torsions:
REMARK  status: ('A' for Active; 'I' for Inactive)
REMARK    1  A    between atoms: C_1  and  C_2
REMARK    2  A    between atoms: C_2  and  C_3
REMARK    3  A    between atoms: C_7  and  C_8
REMARK    4  A    between atoms: C_11  and  C_12
REMARK    5  A    between atoms: C_12  and  C_13
REMARK    6  A    between atoms: C_13  and  C_14
REMARK                            x       y       z     vdW  Elec       q    Type
REMARK                         _______ _______ _______ _____ _____    ______ ____
ROOT
ATOM      1  C   UNL     1       4.875   5.979  17.995  0.00  0.00    +0.000 A 
ATOM      2  C   UNL     1       4.534   5.015  18.959  0.00  0.00    +0.000 A 
ATOM      3  C   UNL     1       3.391   5.156  19.750  0.00  0.00    +0.000 A 
ATOM      4  C   UNL     1       2.556   6.256  19.581  0.00  0.00    +0.000 A 
ATOM      5  C   UNL     1       2.855   7.218  18.615  0.00  0.00    +0.000 A 
ATOM      6  C   UNL     1       3.992   7.054  17.806  0.00  0.00    +0.000 A 
ENDROOT
BRANCH   1   8
ATOM      7  C   UNL     1       6.067   4.934  16.020  0.00  0.00    +0.000 C 
ATOM      8  C   UNL     1       6.180   5.885  17.203  0.00  0.00    +0.000 C 
ATOM      9  N   UNL     1       6.649   7.200  16.806  0.00  0.00    +0.000 N 
ATOM     10  C   UNL     1       7.624   7.676  17.647  0.00  0.00    +0.000 C 
ATOM     11  O   UNL     1       8.075   8.808  17.621  0.00  0.00    +0.000 OA
ATOM     12  N   UNL     1       8.018   6.677  18.463  0.00  0.00    +0.000 N 
ATOM     13  C   UNL     1       7.370   5.528  18.131  0.00  0.00    +0.000 C 
ATOM     14  O   UNL     1       7.662   4.420  18.562  0.00  0.00    +0.000 OA
ATOM     15  H   UNL     1       6.166   7.841  16.190  0.00  0.00    +0.000 HD
ATOM     16  H   UNL     1       8.791   6.743  19.101  0.00  0.00    +0.000 HD
ENDBRANCH   1   8
BRANCH   5  17
ATOM     17  C   UNL     1       2.037   8.406  18.456  0.00  0.00    +0.000 A 
ATOM     18  N   UNL     1       2.039   9.186  17.364  0.00  0.00    +0.000 NA
ATOM     19  O   UNL     1       1.104  10.168  17.665  0.00  0.00    +0.000 OA
ATOM     20  C   UNL     1       0.622   9.880  18.909  0.00  0.00    +0.000 A 
ATOM     21  N   UNL     1       1.156   8.808  19.436  0.00  0.00    +0.000 NA
BRANCH  20  22
ATOM     22  C   UNL     1      -0.387  10.796  19.493  0.00  0.00    +0.000 C 
BRANCH  22  23
ATOM     23  C   UNL     1      -1.405  11.238  18.448  0.00  0.00    +0.000 C 
BRANCH  23  24
ATOM     24  C   UNL     1      -2.489  10.197  18.105  0.00  0.00    +0.000 C 
ATOM     25  C   UNL     1      -2.349   9.594  16.700  0.00  0.00    +0.000 C 
ATOM     26  C   UNL     1      -2.597  10.646  15.623  0.00  0.00    +0.000 C 
ATOM     27  C   UNL     1      -3.919  11.380  15.856  0.00  0.00    +0.000 C 
ATOM     28  N   UNL     1      -4.040  11.907  17.215  0.00  0.00    +0.000 NA
ATOM     29  C   UNL     1      -3.874  10.860  18.224  0.00  0.00    +0.000 C 
ATOM     30  H   UNL     1      -4.949  12.354  17.329  0.00  0.00    +0.000 HD
ENDBRANCH  23  24
ENDBRANCH  22  23
ENDBRANCH  20  22
ENDBRANCH   5  17
TORSDOF 5
ENDMDL
