MODEL 1
REMARK VINA RESULT:      -9.3      0.000      0.000
REMARK  Name = 
REMARK  4 active torsions:
REMARK  status: ('A' for Active; 'I' for Inactive)
REMARK    1  A    between atoms: C_2  and  O_3
REMARK    2  A    between atoms: C_2  and  C_19
REMARK    3  A    between atoms: O_3  and  C_4
REMARK    4  A    between atoms: C_4  and  C_5
REMARK                            x       y       z     vdW  Elec       q    Type
REMARK                         _______ _______ _______ _____ _____    ______ ____
ROOT
ATOM      1  C   UNL     1       1.846   8.624  18.990  0.00  0.00    +0.000 C 
ENDROOT
BRANCH   1   2
ATOM      2  C   UNL     1       0.902   9.409  19.881  0.00  0.00    +0.000 A 
ATOM      3  C   UNL     1       0.969   9.317  21.219  0.00  0.00    +0.000 A 
ATOM      4  C   UNL     1       0.073  10.144  22.063  0.00  0.00    +0.000 A 
ATOM      5  O   UNL     1       0.167  10.054  23.284  0.00  0.00    +0.000 OA
ATOM      6  N   UNL     1      -0.779  10.961  21.357  0.00  0.00    +0.000 N 
ATOM      7  C   UNL     1      -0.736  10.971  19.978  0.00  0.00    +0.000 A 
ATOM      8  N   UNL     1       0.038  10.259  19.230  0.00  0.00    +0.000 NA
ATOM      9  S   UNL     1      -1.888  12.106  19.298  0.00  0.00    +0.000 S 
ATOM     10  C   UNL     1      -2.439  12.552  20.920  0.00  0.00    +0.000 A 
ATOM     11  C   UNL     1      -3.434  13.466  21.234  0.00  0.00    +0.000 A 
ATOM     12  C   UNL     1      -3.743  13.673  22.577  0.00  0.00    +0.000 A 
ATOM     13  C   UNL     1      -3.051  12.975  23.576  0.00  0.00    +0.000 A 
ATOM     14  C   UNL     1      -2.042  12.060  23.246  0.00  0.00    +0.000 A 
ATOM     15  C   UNL     1      -1.740  11.846  21.906  0.00  0.00    +0.000 A 
ENDBRANCH   1   2
BRANCH   1  16
ATOM     16  O   UNL     1       2.273   7.394  19.601  0.00  0.00    +0.000 OA
BRANCH  16  18
ATOM     17  O   UNL     1       3.469   6.780  17.758  0.00  0.00    +0.000 OA
ATOM     18  C   UNL     1       2.844   6.483  18.769  0.00  0.00    +0.000 C 
BRANCH  18  19
ATOM     19  C   UNL     1       2.521   5.040  19.182  0.00  0.00    +0.000 C 
ATOM     20  C   UNL     1       3.827   4.311  19.585  0.00  0.00    +0.000 C 
ATOM     21  C   UNL     1       3.548   2.839  19.940  0.00  0.00    +0.000 C 
ATOM     22  C   UNL     1       2.564   2.787  21.119  0.00  0.00    +0.000 C 
ATOM     23  C   UNL     1       1.248   3.481  20.734  0.00  0.00    +0.000 C 
ATOM     24  C   UNL     1       0.638   2.767  19.515  0.00  0.00    +0.000 C 
ATOM     25  C   UNL     1       1.613   2.828  18.328  0.00  0.00    +0.000 C 
ATOM     26  C   UNL     1       2.925   2.132  18.726  0.00  0.00    +0.000 C 
ATOM     27  C   UNL     1       1.903   4.299  17.973  0.00  0.00    +0.000 C 
ATOM     28  C   UNL     1       1.531   4.950  20.370  0.00  0.00    +0.000 C 
ENDBRANCH  18  19
ENDBRANCH  16  18
ENDBRANCH   1  16
TORSDOF 4
ENDMDL
MODEL 2
REMARK VINA RESULT:      -9.3      0.145      1.468
REMARK  Name = 
REMARK  4 active torsions:
REMARK  status: ('A' for Active; 'I' for Inactive)
REMARK    1  A    between atoms: C_2  and  O_3
REMARK    2  A    between atoms: C_2  and  C_19
REMARK    3  A    between atoms: O_3  and  C_4
REMARK    4  A    between atoms: C_4  and  C_5
REMARK                            x       y       z     vdW  Elec       q    Type
REMARK                         _______ _______ _______ _____ _____    ______ ____
ROOT
ATOM      1  C   UNL     1       1.822   8.590  18.898  0.00  0.00    +0.000 C 
ENDROOT
BRANCH   1   2
ATOM      2  C   UNL     1       0.900   9.386  19.802  0.00  0.00    +0.000 A 
ATOM      3  C   UNL     1       0.992   9.302  21.139  0.00  0.00    +0.000 A 
ATOM      4  C   UNL     1       0.118  10.140  21.995  0.00  0.00    +0.000 A 
ATOM      5  O   UNL     1       0.235  10.056  23.214  0.00  0.00    +0.000 OA
ATOM      6  N   UNL     1      -0.743  10.957  21.301  0.00  0.00    +0.000 N 
ATOM      7  C   UNL     1      -0.727  10.958  19.921  0.00  0.00    +0.000 A 
ATOM      8  N   UNL     1       0.029  10.237  19.163  0.00  0.00    +0.000 NA
ATOM      9  S   UNL     1      -1.884  12.096  19.256  0.00  0.00    +0.000 S 
ATOM     10  C   UNL     1      -2.402  12.556  20.886  0.00  0.00    +0.000 A 
ATOM     11  C   UNL     1      -3.384  13.478  21.214  0.00  0.00    +0.000 A 
ATOM     12  C   UNL     1      -3.666  13.695  22.561  0.00  0.00    +0.000 A 
ATOM     13  C   UNL     1      -2.959  12.999  23.551  0.00  0.00    +0.000 A 
ATOM     14  C   UNL     1      -1.963  12.075  23.207  0.00  0.00    +0.000 A 
ATOM     15  C   UNL     1      -1.688  11.851  21.863  0.00  0.00    +0.000 A 
ENDBRANCH   1   2
BRANCH   1  16
ATOM     16  O   UNL     1       2.371   7.437  19.561  0.00  0.00    +0.000 OA
BRANCH  16  18
ATOM     17  O   UNL     1       3.676   6.838  17.789  0.00  0.00    +0.000 OA
ATOM     18  C   UNL     1       2.998   6.534  18.762  0.00  0.00    +0.000 C 
BRANCH  18  19
ATOM     19  C   UNL     1       2.665   5.086  19.155  0.00  0.00    +0.000 C 
ATOM     20  C   UNL     1       1.873   4.408  18.009  0.00  0.00    +0.000 C 
ATOM     21  C   UNL     1       1.464   2.975  18.398  0.00  0.00    +0.000 C 
ATOM     22  C   UNL     1       2.731   2.153  18.684  0.00  0.00    +0.000 C 
ATOM     23  C   UNL     1       3.521   2.793  19.837  0.00  0.00    +0.000 C 
ATOM     24  C   UNL     1       2.634   2.838  21.094  0.00  0.00    +0.000 C 
ATOM     25  C   UNL     1       1.371   3.670  20.818  0.00  0.00    +0.000 C 
ATOM     26  C   UNL     1       0.591   3.021  19.663  0.00  0.00    +0.000 C 
ATOM     27  C   UNL     1       1.774   5.103  20.419  0.00  0.00    +0.000 C 
ATOM     28  C   UNL     1       3.921   4.229  19.450  0.00  0.00    +0.000 C 
ENDBRANCH  18  19
ENDBRANCH  16  18
ENDBRANCH   1  16
TORSDOF 4
ENDMDL
MODEL 3
REMARK VINA RESULT:      -9.2      1.121      1.677
REMARK  Name = 
REMARK  4 active torsions:
REMARK  status: ('A' for Active; 'I' for Inactive)
REMARK    1  A    between atoms: C_2  and  O_3
REMARK    2  A    between atoms: C_2  and  C_19
REMARK    3  A    between atoms: O_3  and  C_4
REMARK    4  A    between atoms: C_4  and  C_5
REMARK                            x       y       z     vdW  Elec       q    Type
REMARK                         _______ _______ _______ _____ _____    ______ ____
ROOT
ATOM      1  C   UNL     1       2.611   7.959  17.852  0.00  0.00    +0.000 C 
ENDROOT
BRANCH   1   2
ATOM      2  C   UNL     1       1.722   8.673  18.852  0.00  0.00    +0.000 A 
ATOM      3  C   UNL     1       1.780   8.389  20.164  0.00  0.00    +0.000 A 
ATOM      4  C   UNL     1       0.942   9.149  21.123  0.00  0.00    +0.000 A 
ATOM      5  O   UNL     1       1.029   8.882  22.318  0.00  0.00    +0.000 OA
ATOM      6  N   UNL     1       0.150  10.114  20.546  0.00  0.00    +0.000 N 
ATOM      7  C   UNL     1       0.196  10.315  19.181  0.00  0.00    +0.000 A 
ATOM      8  N   UNL     1       0.920   9.664  18.335  0.00  0.00    +0.000 NA
ATOM      9  S   UNL     1      -0.874  11.611  18.677  0.00  0.00    +0.000 S 
ATOM     10  C   UNL     1      -1.396  11.861  20.351  0.00  0.00    +0.000 A 
ATOM     11  C   UNL     1      -2.325  12.787  20.798  0.00  0.00    +0.000 A 
ATOM     12  C   UNL     1      -2.621  12.824  22.159  0.00  0.00    +0.000 A 
ATOM     13  C   UNL     1      -1.980  11.946  23.044  0.00  0.00    +0.000 A 
ATOM     14  C   UNL     1      -1.037  11.020  22.581  0.00  0.00    +0.000 A 
ATOM     15  C   UNL     1      -0.749  10.976  21.222  0.00  0.00    +0.000 A 
ENDBRANCH   1   2
BRANCH   1  16
ATOM     16  O   UNL     1       3.510   7.033  18.489  0.00  0.00    +0.000 OA
BRANCH  16  18
ATOM     17  O   UNL     1       4.302   5.781  16.754  0.00  0.00    +0.000 OA
ATOM     18  C   UNL     1       3.723   5.863  17.830  0.00  0.00    +0.000 C 
BRANCH  18  19
ATOM     19  C   UNL     1       3.057   4.672  18.536  0.00  0.00    +0.000 C 
ATOM     20  C   UNL     1       2.874   4.997  20.040  0.00  0.00    +0.000 C 
ATOM     21  C   UNL     1       2.270   3.797  20.791  0.00  0.00    +0.000 C 
ATOM     22  C   UNL     1       0.899   3.464  20.183  0.00  0.00    +0.000 C 
ATOM     23  C   UNL     1       1.058   3.112  18.695  0.00  0.00    +0.000 C 
ATOM     24  C   UNL     1       1.996   1.899  18.560  0.00  0.00    +0.000 C 
ATOM     25  C   UNL     1       3.374   2.230  19.156  0.00  0.00    +0.000 C 
ATOM     26  C   UNL     1       3.202   2.582  20.642  0.00  0.00    +0.000 C 
ATOM     27  C   UNL     1       3.980   3.437  18.413  0.00  0.00    +0.000 C 
ATOM     28  C   UNL     1       1.671   4.310  17.947  0.00  0.00    +0.000 C 
ENDBRANCH  18  19
ENDBRANCH  16  18
ENDBRANCH   1  16
TORSDOF 4
ENDMDL
MODEL 4
REMARK VINA RESULT:      -9.2      1.178      1.523
REMARK  Name = 
REMARK  4 active torsions:
REMARK  status: ('A' for Active; 'I' for Inactive)
REMARK    1  A    between atoms: C_2  and  O_3
REMARK    2  A    between atoms: C_2  and  C_19
REMARK    3  A    between atoms: O_3  and  C_4
REMARK    4  A    between atoms: C_4  and  C_5
REMARK                            x       y       z     vdW  Elec       q    Type
REMARK                         _______ _______ _______ _____ _____    ______ ____
ROOT
ATOM      1  C   UNL     1       2.672   7.930  17.667  0.00  0.00    +0.000 C 
ENDROOT
BRANCH   1   2
ATOM      2  C   UNL     1       1.798   8.606  18.707  0.00  0.00    +0.000 A 
ATOM      3  C   UNL     1       1.863   8.261  20.003  0.00  0.00    +0.000 A 
ATOM      4  C   UNL     1       1.041   8.984  21.003  0.00  0.00    +0.000 A 
ATOM      5  O   UNL     1       1.133   8.659  22.184  0.00  0.00    +0.000 OA
ATOM      6  N   UNL     1       0.255   9.982  20.479  0.00  0.00    +0.000 N 
ATOM      7  C   UNL     1       0.292  10.246  19.124  0.00  0.00    +0.000 A 
ATOM      8  N   UNL     1       1.003   9.628  18.243  0.00  0.00    +0.000 NA
ATOM      9  S   UNL     1      -0.766  11.576  18.690  0.00  0.00    +0.000 S 
ATOM     10  C   UNL     1      -1.273  11.753  20.377  0.00  0.00    +0.000 A 
ATOM     11  C   UNL     1      -2.189  12.667  20.874  0.00  0.00    +0.000 A 
ATOM     12  C   UNL     1      -2.475  12.643  22.238  0.00  0.00    +0.000 A 
ATOM     13  C   UNL     1      -1.837  11.718  23.077  0.00  0.00    +0.000 A 
ATOM     14  C   UNL     1      -0.907  10.804  22.563  0.00  0.00    +0.000 A 
ATOM     15  C   UNL     1      -0.629  10.822  21.201  0.00  0.00    +0.000 A 
ENDBRANCH   1   2
BRANCH   1  16
ATOM     16  O   UNL     1       3.684   7.100  18.266  0.00  0.00    +0.000 OA
BRANCH  16  18
ATOM     17  O   UNL     1       4.450   5.732  16.608  0.00  0.00    +0.000 OA
ATOM     18  C   UNL     1       3.880   5.888  17.682  0.00  0.00    +0.000 C 
BRANCH  18  19
ATOM     19  C   UNL     1       3.209   4.752  18.467  0.00  0.00    +0.000 C 
ATOM     20  C   UNL     1       4.040   3.453  18.313  0.00  0.00    +0.000 C 
ATOM     21  C   UNL     1       3.358   2.276  19.033  0.00  0.00    +0.000 C 
ATOM     22  C   UNL     1       3.228   2.611  20.527  0.00  0.00    +0.000 C 
ATOM     23  C   UNL     1       2.383   3.882  20.708  0.00  0.00    +0.000 C 
ATOM     24  C   UNL     1       0.987   3.652  20.102  0.00  0.00    +0.000 C 
ATOM     25  C   UNL     1       1.110   3.330  18.604  0.00  0.00    +0.000 C 
ATOM     26  C   UNL     1       1.957   2.058  18.437  0.00  0.00    +0.000 C 
ATOM     27  C   UNL     1       1.800   4.501  17.879  0.00  0.00    +0.000 C 
ATOM     28  C   UNL     1       3.063   5.056  19.978  0.00  0.00    +0.000 C 
ENDBRANCH  18  19
ENDBRANCH  16  18
ENDBRANCH   1  16
TORSDOF 4
ENDMDL
MODEL 5
REMARK VINA RESULT:      -9.2      1.121      2.034
REMARK  Name = 
REMARK  4 active torsions:
REMARK  status: ('A' for Active; 'I' for Inactive)
REMARK    1  A    between atoms: C_2  and  O_3
REMARK    2  A    between atoms: C_2  and  C_19
REMARK    3  A    between atoms: O_3  and  C_4
REMARK    4  A    between atoms: C_4  and  C_5
REMARK                            x       y       z     vdW  Elec       q    Type
REMARK                         _______ _______ _______ _____ _____    ______ ____
ROOT
ATOM      1  C   UNL     1       2.555   8.005  17.793  0.00  0.00    +0.000 C 
ENDROOT
BRANCH   1   2
ATOM      2  C   UNL     1       1.680   8.708  18.813  0.00  0.00    +0.000 A 
ATOM      3  C   UNL     1       1.750   8.403  20.119  0.00  0.00    +0.000 A 
ATOM      4  C   UNL     1       0.926   9.152  21.099  0.00  0.00    +0.000 A 
ATOM      5  O   UNL     1       1.022   8.865  22.289  0.00  0.00    +0.000 OA
ATOM      6  N   UNL     1       0.133  10.130  20.546  0.00  0.00    +0.000 N 
ATOM      7  C   UNL     1       0.166  10.352  19.184  0.00  0.00    +0.000 A 
ATOM      8  N   UNL     1       0.878   9.711  18.320  0.00  0.00    +0.000 NA
ATOM      9  S   UNL     1      -0.901  11.662  18.712  0.00  0.00    +0.000 S 
ATOM     10  C   UNL     1      -1.405  11.888  20.394  0.00  0.00    +0.000 A 
ATOM     11  C   UNL     1      -2.324  12.812  20.865  0.00  0.00    +0.000 A 
ATOM     12  C   UNL     1      -2.607  12.829  22.230  0.00  0.00    +0.000 A 
ATOM     13  C   UNL     1      -1.962  11.934  23.095  0.00  0.00    +0.000 A 
ATOM     14  C   UNL     1      -1.029  11.009  22.607  0.00  0.00    +0.000 A 
ATOM     15  C   UNL     1      -0.754  10.986  21.245  0.00  0.00    +0.000 A 
ENDBRANCH   1   2
BRANCH   1  16
ATOM     16  O   UNL     1       3.529   7.146  18.413  0.00  0.00    +0.000 OA
BRANCH  16  18
ATOM     17  O   UNL     1       4.400   5.936  16.686  0.00  0.00    +0.000 OA
ATOM     18  C   UNL     1       3.805   5.989  17.756  0.00  0.00    +0.000 C 
BRANCH  18  19
ATOM     19  C   UNL     1       3.187   4.767  18.454  0.00  0.00    +0.000 C 
ATOM     20  C   UNL     1       1.784   4.485  17.859  0.00  0.00    +0.000 C 
ATOM     21  C   UNL     1       1.108   3.308  18.584  0.00  0.00    +0.000 C 
ATOM     22  C   UNL     1       1.980   2.053  18.421  0.00  0.00    +0.000 C 
ATOM     23  C   UNL     1       3.371   2.299  19.029  0.00  0.00    +0.000 C 
ATOM     24  C   UNL     1       3.217   2.638  20.522  0.00  0.00    +0.000 C 
ATOM     25  C   UNL     1       2.356   3.899  20.690  0.00  0.00    +0.000 C 
ATOM     26  C   UNL     1       0.969   3.641  20.078  0.00  0.00    +0.000 C 
ATOM     27  C   UNL     1       3.024   5.080  19.960  0.00  0.00    +0.000 C 
ATOM     28  C   UNL     1       4.041   3.484  18.309  0.00  0.00    +0.000 C 
ENDBRANCH  18  19
ENDBRANCH  16  18
ENDBRANCH   1  16
TORSDOF 4
ENDMDL
MODEL 6
REMARK VINA RESULT:      -9.1      1.656      2.602
REMARK  Name = 
REMARK  4 active torsions:
REMARK  status: ('A' for Active; 'I' for Inactive)
REMARK    1  A    between atoms: C_2  and  O_3
REMARK    2  A    between atoms: C_2  and  C_19
REMARK    3  A    between atoms: O_3  and  C_4
REMARK    4  A    between atoms: C_4  and  C_5
REMARK                            x       y       z     vdW  Elec       q    Type
REMARK                         _______ _______ _______ _____ _____    ______ ____
ROOT
ATOM      1  C   UNL     1       2.417   8.087  17.965  0.00  0.00    +0.000 C 
ENDROOT
BRANCH   1   2
ATOM      2  C   UNL     1       1.464   9.034  18.669  0.00  0.00    +0.000 A 
ATOM      3  C   UNL     1       0.725   9.919  17.980  0.00  0.00    +0.000 A 
ATOM      4  C   UNL     1      -0.243  10.788  18.692  0.00  0.00    +0.000 A 
ATOM      5  O   UNL     1      -0.919  11.576  18.035  0.00  0.00    +0.000 OA
ATOM      6  N   UNL     1      -0.288  10.595  20.052  0.00  0.00    +0.000 N 
ATOM      7  C   UNL     1       0.518   9.638  20.637  0.00  0.00    +0.000 A 
ATOM      8  N   UNL     1       1.362   8.874  20.031  0.00  0.00    +0.000 NA
ATOM      9  S   UNL     1       0.269   9.549  22.371  0.00  0.00    +0.000 S 
ATOM     10  C   UNL     1      -0.934  10.845  22.288  0.00  0.00    +0.000 A 
ATOM     11  C   UNL     1      -1.633  11.394  23.352  0.00  0.00    +0.000 A 
ATOM     12  C   UNL     1      -2.533  12.426  23.091  0.00  0.00    +0.000 A 
ATOM     13  C   UNL     1      -2.723  12.881  21.778  0.00  0.00    +0.000 A 
ATOM     14  C   UNL     1      -2.016  12.312  20.711  0.00  0.00    +0.000 A 
ATOM     15  C   UNL     1      -1.112  11.290  20.972  0.00  0.00    +0.000 A 
ENDBRANCH   1   2
BRANCH   1  16
ATOM     16  O   UNL     1       2.867   7.028  18.830  0.00  0.00    +0.000 OA
BRANCH  16  18
ATOM     17  O   UNL     1       4.375   6.170  17.349  0.00  0.00    +0.000 OA
ATOM     18  C   UNL     1       3.534   6.010  18.226  0.00  0.00    +0.000 C 
BRANCH  18  19
ATOM     19  C   UNL     1       3.031   4.634  18.688  0.00  0.00    +0.000 C 
ATOM     20  C   UNL     1       1.891   4.820  19.721  0.00  0.00    +0.000 C 
ATOM     21  C   UNL     1       1.409   3.459  20.257  0.00  0.00    +0.000 C 
ATOM     22  C   UNL     1       0.887   2.616  19.084  0.00  0.00    +0.000 C 
ATOM     23  C   UNL     1       2.009   2.395  18.057  0.00  0.00    +0.000 C 
ATOM     24  C   UNL     1       3.183   1.669  18.739  0.00  0.00    +0.000 C 
ATOM     25  C   UNL     1       3.718   2.515  19.905  0.00  0.00    +0.000 C 
ATOM     26  C   UNL     1       2.587   2.729  20.924  0.00  0.00    +0.000 C 
ATOM     27  C   UNL     1       4.194   3.881  19.376  0.00  0.00    +0.000 C 
ATOM     28  C   UNL     1       2.496   3.757  17.529  0.00  0.00    +0.000 C 
ENDBRANCH  18  19
ENDBRANCH  16  18
ENDBRANCH   1  16
TORSDOF 4
ENDMDL
MODEL 7
REMARK VINA RESULT:      -9.1      1.558      1.999
REMARK  Name = 
REMARK  4 active torsions:
REMARK  status: ('A' for Active; 'I' for Inactive)
REMARK    1  A    between atoms: C_2  and  O_3
REMARK    2  A    between atoms: C_2  and  C_19
REMARK    3  A    between atoms: O_3  and  C_4
REMARK    4  A    between atoms: C_4  and  C_5
REMARK                            x       y       z     vdW  Elec       q    Type
REMARK                         _______ _______ _______ _____ _____    ______ ____
ROOT
ATOM      1  C   UNL     1       2.170   8.302  18.191  0.00  0.00    +0.000 C 
ENDROOT
BRANCH   1   2
ATOM      2  C   UNL     1       1.213   9.279  18.848  0.00  0.00    +0.000 A 
ATOM      3  C   UNL     1       0.511  10.163  18.120  0.00  0.00    +0.000 A 
ATOM      4  C   UNL     1      -0.462  11.062  18.786  0.00  0.00    +0.000 A 
ATOM      5  O   UNL     1      -1.105  11.848  18.094  0.00  0.00    +0.000 OA
ATOM      6  N   UNL     1      -0.551  10.895  20.148  0.00  0.00    +0.000 N 
ATOM      7  C   UNL     1       0.220   9.937  20.775  0.00  0.00    +0.000 A 
ATOM      8  N   UNL     1       1.068   9.147  20.209  0.00  0.00    +0.000 NA
ATOM      9  S   UNL     1      -0.082   9.886  22.502  0.00  0.00    +0.000 S 
ATOM     10  C   UNL     1      -1.260  11.200  22.358  0.00  0.00    +0.000 A 
ATOM     11  C   UNL     1      -1.981  11.781  23.390  0.00  0.00    +0.000 A 
ATOM     12  C   UNL     1      -2.854  12.823  23.082  0.00  0.00    +0.000 A 
ATOM     13  C   UNL     1      -2.997  13.256  21.756  0.00  0.00    +0.000 A 
ATOM     14  C   UNL     1      -2.268  12.654  20.722  0.00  0.00    +0.000 A 
ATOM     15  C   UNL     1      -1.390  11.622  21.030  0.00  0.00    +0.000 A 
ENDBRANCH   1   2
BRANCH   1  16
ATOM     16  O   UNL     1       2.657   7.314  19.117  0.00  0.00    +0.000 OA
BRANCH  16  18
ATOM     17  O   UNL     1       4.161   6.359  17.692  0.00  0.00    +0.000 OA
ATOM     18  C   UNL     1       3.311   6.256  18.568  0.00  0.00    +0.000 C 
BRANCH  18  19
ATOM     19  C   UNL     1       2.780   4.914  19.092  0.00  0.00    +0.000 C 
ATOM     20  C   UNL     1       3.970   4.002  19.481  0.00  0.00    +0.000 C 
ATOM     21  C   UNL     1       3.475   2.621  19.947  0.00  0.00    +0.000 C 
ATOM     22  C   UNL     1       2.565   2.803  21.172  0.00  0.00    +0.000 C 
ATOM     23  C   UNL     1       1.360   3.684  20.804  0.00  0.00    +0.000 C 
ATOM     24  C   UNL     1       0.573   3.011  19.665  0.00  0.00    +0.000 C 
ATOM     25  C   UNL     1       1.474   2.838  18.432  0.00  0.00    +0.000 C 
ATOM     26  C   UNL     1       2.676   1.958  18.814  0.00  0.00    +0.000 C 
ATOM     27  C   UNL     1       1.981   4.217  17.966  0.00  0.00    +0.000 C 
ATOM     28  C   UNL     1       1.859   5.061  20.328  0.00  0.00    +0.000 C 
ENDBRANCH  18  19
ENDBRANCH  16  18
ENDBRANCH   1  16
TORSDOF 4
ENDMDL
MODEL 8
REMARK VINA RESULT:      -9.1      1.569      2.473
REMARK  Name = 
REMARK  4 active torsions:
REMARK  status: ('A' for Active; 'I' for Inactive)
REMARK    1  A    between atoms: C_2  and  O_3
REMARK    2  A    between atoms: C_2  and  C_19
REMARK    3  A    between atoms: O_3  and  C_4
REMARK    4  A    between atoms: C_4  and  C_5
REMARK                            x       y       z     vdW  Elec       q    Type
REMARK                         _______ _______ _______ _____ _____    ______ ____
ROOT
ATOM      1  C   UNL     1       2.280   8.363  18.163  0.00  0.00    +0.000 C 
ENDROOT
BRANCH   1   2
ATOM      2  C   UNL     1       1.298   9.313  18.824  0.00  0.00    +0.000 A 
ATOM      3  C   UNL     1       0.586  10.193  18.100  0.00  0.00    +0.000 A 
ATOM      4  C   UNL     1      -0.411  11.064  18.769  0.00  0.00    +0.000 A 
ATOM      5  O   UNL     1      -1.061  11.847  18.081  0.00  0.00    +0.000 OA
ATOM      6  N   UNL     1      -0.509  10.879  20.127  0.00  0.00    +0.000 N 
ATOM      7  C   UNL     1       0.274   9.927  20.749  0.00  0.00    +0.000 A 
ATOM      8  N   UNL     1       1.143   9.161  20.182  0.00  0.00    +0.000 NA
ATOM      9  S   UNL     1      -0.042   9.848  22.473  0.00  0.00    +0.000 S 
ATOM     10  C   UNL     1      -1.243  11.141  22.334  0.00  0.00    +0.000 A 
ATOM     11  C   UNL     1      -1.985  11.695  23.366  0.00  0.00    +0.000 A 
ATOM     12  C   UNL     1      -2.875  12.724  23.064  0.00  0.00    +0.000 A 
ATOM     13  C   UNL     1      -3.014  13.171  21.742  0.00  0.00    +0.000 A 
ATOM     14  C   UNL     1      -2.264  12.597  20.707  0.00  0.00    +0.000 A 
ATOM     15  C   UNL     1      -1.370  11.578  21.010  0.00  0.00    +0.000 A 
ENDBRANCH   1   2
BRANCH   1  16
ATOM     16  O   UNL     1       2.535   7.200  18.971  0.00  0.00    +0.000 OA
BRANCH  16  18
ATOM     17  O   UNL     1       3.923   6.321  17.387  0.00  0.00    +0.000 OA
ATOM     18  C   UNL     1       3.179   6.176  18.351  0.00  0.00    +0.000 C 
BRANCH  18  19
ATOM     19  C   UNL     1       2.781   4.809  18.926  0.00  0.00    +0.000 C 
ATOM     20  C   UNL     1       2.001   4.003  17.856  0.00  0.00    +0.000 C 
ATOM     21  C   UNL     1       1.527   2.653  18.423  0.00  0.00    +0.000 C 
ATOM     22  C   UNL     1       2.752   1.838  18.867  0.00  0.00    +0.000 C 
ATOM     23  C   UNL     1       3.528   2.606  19.950  0.00  0.00    +0.000 C 
ATOM     24  C   UNL     1       2.602   2.854  21.154  0.00  0.00    +0.000 C 
ATOM     25  C   UNL     1       1.381   3.680  20.719  0.00  0.00    +0.000 C 
ATOM     26  C   UNL     1       0.615   2.902  19.636  0.00  0.00    +0.000 C 
ATOM     27  C   UNL     1       1.850   5.030  20.142  0.00  0.00    +0.000 C 
ATOM     28  C   UNL     1       3.993   3.961  19.383  0.00  0.00    +0.000 C 
ENDBRANCH  18  19
ENDBRANCH  16  18
ENDBRANCH   1  16
TORSDOF 4
ENDMDL
MODEL 9
REMARK VINA RESULT:      -9.1      1.823      2.847
REMARK  Name = 
REMARK  4 active torsions:
REMARK  status: ('A' for Active; 'I' for Inactive)
REMARK    1  A    between atoms: C_2  and  O_3
REMARK    2  A    between atoms: C_2  and  C_19
REMARK    3  A    between atoms: O_3  and  C_4
REMARK    4  A    between atoms: C_4  and  C_5
REMARK                            x       y       z     vdW  Elec       q    Type
REMARK                         _______ _______ _______ _____ _____    ______ ____
ROOT
ATOM      1  C   UNL     1       2.820   7.938  17.534  0.00  0.00    +0.000 C 
ENDROOT
BRANCH   1   2
ATOM      2  C   UNL     1       2.091   8.960  18.386  0.00  0.00    +0.000 A 
ATOM      3  C   UNL     1       1.939  10.230  17.974  0.00  0.00    +0.000 A 
ATOM      4  C   UNL     1       1.167  11.188  18.802  0.00  0.00    +0.000 A 
ATOM      5  O   UNL     1       1.028  12.338  18.393  0.00  0.00    +0.000 OA
ATOM      6  N   UNL     1       0.661  10.657  19.964  0.00  0.00    +0.000 N 
ATOM      7  C   UNL     1       0.878   9.327  20.264  0.00  0.00    +0.000 A 
ATOM      8  N   UNL     1       1.545   8.481  19.554  0.00  0.00    +0.000 NA
ATOM      9  S   UNL     1       0.117   8.867  21.776  0.00  0.00    +0.000 S 
ATOM     10  C   UNL     1      -0.485  10.517  22.001  0.00  0.00    +0.000 A 
ATOM     11  C   UNL     1      -1.231  10.987  23.071  0.00  0.00    +0.000 A 
ATOM     12  C   UNL     1      -1.601  12.330  23.081  0.00  0.00    +0.000 A 
ATOM     13  C   UNL     1      -1.229  13.172  22.024  0.00  0.00    +0.000 A 
ATOM     14  C   UNL     1      -0.481  12.683  20.944  0.00  0.00    +0.000 A 
ATOM     15  C   UNL     1      -0.104  11.346  20.939  0.00  0.00    +0.000 A 
ENDBRANCH   1   2
BRANCH   1  16
ATOM     16  O   UNL     1       3.535   6.978  18.332  0.00  0.00    +0.000 OA
BRANCH  16  18
ATOM     17  O   UNL     1       4.305   5.602  16.683  0.00  0.00    +0.000 OA
ATOM     18  C   UNL     1       3.739   5.763  17.758  0.00  0.00    +0.000 C 
BRANCH  18  19
ATOM     19  C   UNL     1       3.082   4.628  18.557  0.00  0.00    +0.000 C 
ATOM     20  C   UNL     1       1.704   4.286  17.936  0.00  0.00    +0.000 C 
ATOM     21  C   UNL     1       0.987   3.198  18.754  0.00  0.00    +0.000 C 
ATOM     22  C   UNL     1       1.855   1.930  18.770  0.00  0.00    +0.000 C 
ATOM     23  C   UNL     1       3.220   2.237  19.407  0.00  0.00    +0.000 C 
ATOM     24  C   UNL     1       3.004   2.739  20.846  0.00  0.00    +0.000 C 
ATOM     25  C   UNL     1       2.146   4.014  20.836  0.00  0.00    +0.000 C 
ATOM     26  C   UNL     1       0.786   3.694  20.195  0.00  0.00    +0.000 C 
ATOM     27  C   UNL     1       2.855   5.105  20.011  0.00  0.00    +0.000 C 
ATOM     28  C   UNL     1       3.931   3.333  18.593  0.00  0.00    +0.000 C 
ENDBRANCH  18  19
ENDBRANCH  16  18
ENDBRANCH   1  16
TORSDOF 4
ENDMDL
