MODEL 1
REMARK VINA RESULT:      -8.4      0.000      0.000
REMARK  Name = 
REMARK  7 active torsions:
REMARK  status: ('A' for Active; 'I' for Inactive)
REMARK    1  A    between atoms: C_1  and  N_2
REMARK    2  A    between atoms: C_6  and  C_7
REMARK    3  A    between atoms: C_8  and  C_9
REMARK    4  A    between atoms: C_8  and  C_11
REMARK    5  A    between atoms: C_9  and  O_10
REMARK    6  A    between atoms: C_15  and  N_16
REMARK    7  A    between atoms: C_24  and  C_25
REMARK                            x       y       z     vdW  Elec       q    Type
REMARK                         _______ _______ _______ _____ _____    ______ ____
ROOT
ATOM      1  C   UNL     1       1.882   8.118  19.171  0.00  0.00    +0.000 A 
ATOM      2  C   UNL     1       2.493   8.752  18.084  0.00  0.00    +0.000 A 
ATOM      3  C   UNL     1       3.223   8.007  17.163  0.00  0.00    +0.000 A 
ATOM      4  C   UNL     1       3.431   6.648  17.383  0.00  0.00    +0.000 A 
ATOM      5  C   UNL     1       3.014   6.065  18.592  0.00  0.00    +0.000 A 
ATOM      6  C   UNL     1       2.098   6.754  19.392  0.00  0.00    +0.000 A 
ENDROOT
BRANCH   5   7
ATOM      7  N   UNL     1       3.858   5.064  19.241  0.00  0.00    +0.000 N 
ATOM      8  C   UNL     1       5.241   5.589  19.405  0.00  0.00    +0.000 C 
ATOM      9  C   UNL     1       5.880   5.162  18.114  0.00  0.00    +0.000 A 
ATOM     10  C   UNL     1       5.216   4.002  17.691  0.00  0.00    +0.000 A 
ATOM     11  C   UNL     1       5.407   3.437  16.445  0.00  0.00    +0.000 A 
ATOM     12  C   UNL     1       6.283   4.096  15.596  0.00  0.00    +0.000 A 
ATOM     13  F   UNL     1       6.428   3.661  14.338  0.00  0.00    +0.000 F 
ATOM     14  C   UNL     1       6.952   5.267  15.987  0.00  0.00    +0.000 A 
ATOM     15  C   UNL     1       6.766   5.824  17.270  0.00  0.00    +0.000 A 
ATOM     16  C   UNL     1       4.008   3.844  18.534  0.00  0.00    +0.000 C 
ATOM     17  O   UNL     1       3.221   2.921  18.432  0.00  0.00    +0.000 OA
BRANCH  15  18
ATOM     18  C   UNL     1       7.415   7.144  17.598  0.00  0.00    +0.000 C 
ATOM     19  F   UNL     1       8.172   7.127  18.723  0.00  0.00    +0.000 F 
ATOM     20  F   UNL     1       8.241   7.566  16.602  0.00  0.00    +0.000 F 
ATOM     21  F   UNL     1       6.499   8.137  17.772  0.00  0.00    +0.000 F 
ENDBRANCH  15  18
ENDBRANCH   5   7
BRANCH   1  23
ATOM     22  C   UNL     1       0.788  10.163  19.847  0.00  0.00    +0.000 C 
ATOM     23  C   UNL     1       1.190   8.926  20.191  0.00  0.00    +0.000 C 
BRANCH  22  29
ATOM     24  C   UNL     1      -1.854  11.538  19.230  0.00  0.00    +0.000 C 
ATOM     25  N   UNL     1      -1.046  11.679  20.414  0.00  0.00    +0.000 N 
ATOM     26  C   UNL     1      -1.365  12.479  21.474  0.00  0.00    +0.000 A 
ATOM     27  N   UNL     1      -0.462  12.341  22.409  0.00  0.00    +0.000 NA
ATOM     28  N   UNL     1       0.467  11.437  21.963  0.00  0.00    +0.000 NA
ATOM     29  C   UNL     1       0.131  11.045  20.744  0.00  0.00    +0.000 A 
ENDBRANCH  22  29
BRANCH  23  30
ATOM     30  C   UNL     1       1.065   8.229  21.526  0.00  0.00    +0.000 C 
BRANCH  30  31
ATOM     31  O   UNL     1       1.992   8.815  22.436  0.00  0.00    +0.000 OA
ATOM     32  H   UNL     1       1.483   8.976  23.250  0.00  0.00    +0.000 HD
ENDBRANCH  30  31
ENDBRANCH  23  30
ENDBRANCH   1  23
TORSDOF 6
ENDMDL
MODEL 2
REMARK VINA RESULT:      -8.3      4.009      8.665
REMARK  Name = 
REMARK  7 active torsions:
REMARK  status: ('A' for Active; 'I' for Inactive)
REMARK    1  A    between atoms: C_1  and  N_2
REMARK    2  A    between atoms: C_6  and  C_7
REMARK    3  A    between atoms: C_8  and  C_9
REMARK    4  A    between atoms: C_8  and  C_11
REMARK    5  A    between atoms: C_9  and  O_10
REMARK    6  A    between atoms: C_15  and  N_16
REMARK    7  A    between atoms: C_24  and  C_25
REMARK                            x       y       z     vdW  Elec       q    Type
REMARK                         _______ _______ _______ _____ _____    ______ ____
ROOT
ATOM      1  C   UNL     1       2.313   7.049  19.465  0.00  0.00    +0.000 A 
ATOM      2  C   UNL     1       2.340   7.503  18.142  0.00  0.00    +0.000 A 
ATOM      3  C   UNL     1       1.936   8.800  17.842  0.00  0.00    +0.000 A 
ATOM      4  C   UNL     1       1.405   9.608  18.845  0.00  0.00    +0.000 A 
ATOM      5  C   UNL     1       1.164   9.068  20.121  0.00  0.00    +0.000 A 
ATOM      6  C   UNL     1       1.774   7.860  20.468  0.00  0.00    +0.000 A 
ENDROOT
BRANCH   5   7
ATOM      7  N   UNL     1      -0.045   9.448  20.849  0.00  0.00    +0.000 N 
ATOM      8  C   UNL     1      -1.235   9.328  19.964  0.00  0.00    +0.000 C 
ATOM      9  C   UNL     1      -1.288  10.695  19.343  0.00  0.00    +0.000 A 
ATOM     10  C   UNL     1      -0.721  11.587  20.263  0.00  0.00    +0.000 A 
ATOM     11  C   UNL     1      -0.426  12.901  19.955  0.00  0.00    +0.000 A 
ATOM     12  C   UNL     1      -0.693  13.306  18.656  0.00  0.00    +0.000 A 
ATOM     13  F   UNL     1      -0.329  14.533  18.264  0.00  0.00    +0.000 F 
ATOM     14  C   UNL     1      -1.247  12.430  17.709  0.00  0.00    +0.000 A 
ATOM     15  C   UNL     1      -1.565  11.096  18.039  0.00  0.00    +0.000 A 
ATOM     16  C   UNL     1      -0.073  10.783  21.326  0.00  0.00    +0.000 C 
ATOM     17  O   UNL     1       0.498  11.261  22.289  0.00  0.00    +0.000 OA
BRANCH  15  18
ATOM     18  C   UNL     1      -2.046  10.166  16.956  0.00  0.00    +0.000 C 
ATOM     19  F   UNL     1      -3.190   9.503  17.260  0.00  0.00    +0.000 F 
ATOM     20  F   UNL     1      -2.299  10.827  15.793  0.00  0.00    +0.000 F 
ATOM     21  F   UNL     1      -1.125   9.211  16.651  0.00  0.00    +0.000 F 
ENDBRANCH  15  18
ENDBRANCH   5   7
BRANCH   1  23
ATOM     22  C   UNL     1       3.588   5.051  18.994  0.00  0.00    +0.000 C 
ATOM     23  C   UNL     1       2.655   5.646  19.761  0.00  0.00    +0.000 C 
BRANCH  22  29
ATOM     24  C   UNL     1       2.310   2.713  17.528  0.00  0.00    +0.000 C 
ATOM     25  N   UNL     1       3.361   2.664  18.512  0.00  0.00    +0.000 N 
ATOM     26  C   UNL     1       3.961   1.515  18.942  0.00  0.00    +0.000 A 
ATOM     27  N   UNL     1       4.911   1.813  19.790  0.00  0.00    +0.000 NA
ATOM     28  N   UNL     1       4.940   3.177  19.922  0.00  0.00    +0.000 NA
ATOM     29  C   UNL     1       3.989   3.700  19.165  0.00  0.00    +0.000 A 
ENDBRANCH  22  29
BRANCH  23  30
ATOM     30  C   UNL     1       1.851   5.058  20.897  0.00  0.00    +0.000 C 
BRANCH  30  31
ATOM     31  O   UNL     1       0.779   4.294  20.352  0.00  0.00    +0.000 OA
ATOM     32  H   UNL     1       0.226   4.937  19.873  0.00  0.00    +0.000 HD
ENDBRANCH  30  31
ENDBRANCH  23  30
ENDBRANCH   1  23
TORSDOF 6
ENDMDL
MODEL 3
REMARK VINA RESULT:      -8.3      1.883      2.567
REMARK  Name = 
REMARK  7 active torsions:
REMARK  status: ('A' for Active; 'I' for Inactive)
REMARK    1  A    between atoms: C_1  and  N_2
REMARK    2  A    between atoms: C_6  and  C_7
REMARK    3  A    between atoms: C_8  and  C_9
REMARK    4  A    between atoms: C_8  and  C_11
REMARK    5  A    between atoms: C_9  and  O_10
REMARK    6  A    between atoms: C_15  and  N_16
REMARK    7  A    between atoms: C_24  and  C_25
REMARK                            x       y       z     vdW  Elec       q    Type
REMARK                         _______ _______ _______ _____ _____    ______ ____
ROOT
ATOM      1  C   UNL     1       1.003   8.959  19.978  0.00  0.00    +0.000 A 
ATOM      2  C   UNL     1       1.460   9.543  18.791  0.00  0.00    +0.000 A 
ATOM      3  C   UNL     1       2.213   8.794  17.891  0.00  0.00    +0.000 A 
ATOM      4  C   UNL     1       2.599   7.498  18.223  0.00  0.00    +0.000 A 
ATOM      5  C   UNL     1       2.336   7.000  19.511  0.00  0.00    +0.000 A 
ATOM      6  C   UNL     1       1.397   7.659  20.311  0.00  0.00    +0.000 A 
ENDROOT
BRANCH   5   7
ATOM      7  N   UNL     1       3.337   6.176  20.186  0.00  0.00    +0.000 N 
ATOM      8  C   UNL     1       4.527   5.997  19.311  0.00  0.00    +0.000 C 
ATOM      9  C   UNL     1       4.154   4.760  18.545  0.00  0.00    +0.000 A 
ATOM     10  C   UNL     1       3.304   4.007  19.367  0.00  0.00    +0.000 A 
ATOM     11  C   UNL     1       2.611   2.899  18.921  0.00  0.00    +0.000 A 
ATOM     12  C   UNL     1       2.770   2.568  17.583  0.00  0.00    +0.000 A 
ATOM     13  F   UNL     1       2.041   1.572  17.064  0.00  0.00    +0.000 F 
ATOM     14  C   UNL     1       3.603   3.312  16.733  0.00  0.00    +0.000 A 
ATOM     15  C   UNL     1       4.323   4.430  17.203  0.00  0.00    +0.000 A 
ATOM     16  C   UNL     1       2.920   4.861  20.515  0.00  0.00    +0.000 C 
ATOM     17  O   UNL     1       2.198   4.496  21.425  0.00  0.00    +0.000 OA
BRANCH  15  18
ATOM     18  C   UNL     1       5.109   5.262  16.224  0.00  0.00    +0.000 C 
ATOM     19  F   UNL     1       6.407   5.453  16.571  0.00  0.00    +0.000 F 
ATOM     20  F   UNL     1       5.137   4.699  14.985  0.00  0.00    +0.000 F 
ATOM     21  F   UNL     1       4.575   6.504  16.059  0.00  0.00    +0.000 F 
ENDBRANCH  15  18
ENDBRANCH   5   7
BRANCH   1  23
ATOM     22  C   UNL     1      -0.027  11.047  20.623  0.00  0.00    +0.000 C 
ATOM     23  C   UNL     1       0.285   9.784  20.966  0.00  0.00    +0.000 C 
BRANCH  22  29
ATOM     24  C   UNL     1      -2.644  12.432  19.928  0.00  0.00    +0.000 C 
ATOM     25  N   UNL     1      -1.861  12.583  21.128  0.00  0.00    +0.000 N 
ATOM     26  C   UNL     1      -2.198  13.401  22.170  0.00  0.00    +0.000 A 
ATOM     27  N   UNL     1      -1.317  13.269  23.126  0.00  0.00    +0.000 NA
ATOM     28  N   UNL     1      -0.385  12.352  22.713  0.00  0.00    +0.000 NA
ATOM     29  C   UNL     1      -0.697  11.946  21.493  0.00  0.00    +0.000 A 
ENDBRANCH  22  29
BRANCH  23  30
ATOM     30  C   UNL     1       0.034   9.071  22.275  0.00  0.00    +0.000 C 
BRANCH  30  31
ATOM     31  O   UNL     1       0.880   9.634  23.273  0.00  0.00    +0.000 OA
ATOM     32  H   UNL     1       1.669   9.063  23.292  0.00  0.00    +0.000 HD
ENDBRANCH  30  31
ENDBRANCH  23  30
ENDBRANCH   1  23
TORSDOF 6
ENDMDL
MODEL 4
REMARK VINA RESULT:      -8.1      2.021      2.818
REMARK  Name = 
REMARK  7 active torsions:
REMARK  status: ('A' for Active; 'I' for Inactive)
REMARK    1  A    between atoms: C_1  and  N_2
REMARK    2  A    between atoms: C_6  and  C_7
REMARK    3  A    between atoms: C_8  and  C_9
REMARK    4  A    between atoms: C_8  and  C_11
REMARK    5  A    between atoms: C_9  and  O_10
REMARK    6  A    between atoms: C_15  and  N_16
REMARK    7  A    between atoms: C_24  and  C_25
REMARK                            x       y       z     vdW  Elec       q    Type
REMARK                         _______ _______ _______ _____ _____    ______ ____
ROOT
ATOM      1  C   UNL     1       1.121   8.917  20.106  0.00  0.00    +0.000 A 
ATOM      2  C   UNL     1       1.521   9.433  18.868  0.00  0.00    +0.000 A 
ATOM      3  C   UNL     1       2.173   8.615  17.951  0.00  0.00    +0.000 A 
ATOM      4  C   UNL     1       2.521   7.316  18.308  0.00  0.00    +0.000 A 
ATOM      5  C   UNL     1       2.326   6.879  19.630  0.00  0.00    +0.000 A 
ATOM      6  C   UNL     1       1.478   7.613  20.464  0.00  0.00    +0.000 A 
ENDROOT
BRANCH   5   7
ATOM      7  N   UNL     1       3.333   6.033  20.268  0.00  0.00    +0.000 N 
ATOM      8  C   UNL     1       4.509   5.871  19.371  0.00  0.00    +0.000 C 
ATOM      9  C   UNL     1       4.119   4.657  18.578  0.00  0.00    +0.000 A 
ATOM     10  C   UNL     1       3.278   3.887  19.393  0.00  0.00    +0.000 A 
ATOM     11  C   UNL     1       2.572   2.794  18.928  0.00  0.00    +0.000 A 
ATOM     12  C   UNL     1       2.710   2.498  17.580  0.00  0.00    +0.000 A 
ATOM     13  F   UNL     1       1.968   1.520  17.045  0.00  0.00    +0.000 F 
ATOM     14  C   UNL     1       3.534   3.260  16.737  0.00  0.00    +0.000 A 
ATOM     15  C   UNL     1       4.267   4.362  17.226  0.00  0.00    +0.000 A 
ATOM     16  C   UNL     1       2.915   4.712  20.569  0.00  0.00    +0.000 C 
ATOM     17  O   UNL     1       2.205   4.326  21.479  0.00  0.00    +0.000 OA
BRANCH  15  18
ATOM     18  C   UNL     1       5.042   5.216  16.257  0.00  0.00    +0.000 C 
ATOM     19  F   UNL     1       4.557   6.475  16.114  0.00  0.00    +0.000 F 
ATOM     20  F   UNL     1       6.342   5.361  16.633  0.00  0.00    +0.000 F 
ATOM     21  F   UNL     1       5.072   4.677  15.006  0.00  0.00    +0.000 F 
ENDBRANCH  15  18
ENDBRANCH   5   7
BRANCH   1  23
ATOM     22  C   UNL     1      -0.016  10.971  20.675  0.00  0.00    +0.000 C 
ATOM     23  C   UNL     1       0.514   9.812  21.107  0.00  0.00    +0.000 C 
BRANCH  22  29
ATOM     24  C   UNL     1       1.151  13.730  21.201  0.00  0.00    +0.000 C 
ATOM     25  N   UNL     1      -0.032  13.151  21.784  0.00  0.00    +0.000 N 
ATOM     26  C   UNL     1      -0.834  13.785  22.690  0.00  0.00    +0.000 A 
ATOM     27  N   UNL     1      -1.852  13.017  22.979  0.00  0.00    +0.000 NA
ATOM     28  N   UNL     1      -1.724  11.861  22.254  0.00  0.00    +0.000 NA
ATOM     29  C   UNL     1      -0.611  11.926  21.541  0.00  0.00    +0.000 A 
ENDBRANCH  22  29
BRANCH  23  30
ATOM     30  C   UNL     1       0.617   9.290  22.521  0.00  0.00    +0.000 C 
BRANCH  30  31
ATOM     31  O   UNL     1      -0.692   8.981  22.992  0.00  0.00    +0.000 OA
ATOM     32  H   UNL     1      -0.563   8.631  23.891  0.00  0.00    +0.000 HD
ENDBRANCH  30  31
ENDBRANCH  23  30
ENDBRANCH   1  23
TORSDOF 6
ENDMDL
MODEL 5
REMARK VINA RESULT:      -8.0      0.744      1.030
REMARK  Name = 
REMARK  7 active torsions:
REMARK  status: ('A' for Active; 'I' for Inactive)
REMARK    1  A    between atoms: C_1  and  N_2
REMARK    2  A    between atoms: C_6  and  C_7
REMARK    3  A    between atoms: C_8  and  C_9
REMARK    4  A    between atoms: C_8  and  C_11
REMARK    5  A    between atoms: C_9  and  O_10
REMARK    6  A    between atoms: C_15  and  N_16
REMARK    7  A    between atoms: C_24  and  C_25
REMARK                            x       y       z     vdW  Elec       q    Type
REMARK                         _______ _______ _______ _____ _____    ______ ____
ROOT
ATOM      1  C   UNL     1       1.834   8.150  19.532  0.00  0.00    +0.000 A 
ATOM      2  C   UNL     1       2.389   8.809  18.429  0.00  0.00    +0.000 A 
ATOM      3  C   UNL     1       3.038   8.081  17.437  0.00  0.00    +0.000 A 
ATOM      4  C   UNL     1       3.227   6.711  17.596  0.00  0.00    +0.000 A 
ATOM      5  C   UNL     1       2.876   6.095  18.810  0.00  0.00    +0.000 A 
ATOM      6  C   UNL     1       2.031   6.775  19.692  0.00  0.00    +0.000 A 
ENDROOT
BRANCH   5   7
ATOM      7  N   UNL     1       3.737   5.053  19.367  0.00  0.00    +0.000 N 
ATOM      8  C   UNL     1       5.141   5.539  19.450  0.00  0.00    +0.000 C 
ATOM      9  C   UNL     1       5.678   5.138  18.106  0.00  0.00    +0.000 A 
ATOM     10  C   UNL     1       4.956   4.010  17.694  0.00  0.00    +0.000 A 
ATOM     11  C   UNL     1       5.045   3.480  16.421  0.00  0.00    +0.000 A 
ATOM     12  C   UNL     1       5.878   4.145  15.534  0.00  0.00    +0.000 A 
ATOM     13  F   UNL     1       5.923   3.748  14.256  0.00  0.00    +0.000 F 
ATOM     14  C   UNL     1       6.602   5.286  15.913  0.00  0.00    +0.000 A 
ATOM     15  C   UNL     1       6.520   5.806  17.222  0.00  0.00    +0.000 A 
ATOM     16  C   UNL     1       3.805   3.853  18.615  0.00  0.00    +0.000 C 
ATOM     17  O   UNL     1       2.989   2.954  18.539  0.00  0.00    +0.000 OA
BRANCH  15  18
ATOM     18  C   UNL     1       7.225   7.099  17.544  0.00  0.00    +0.000 C 
ATOM     19  F   UNL     1       8.090   7.514  16.585  0.00  0.00    +0.000 F 
ATOM     20  F   UNL     1       6.349   8.126  17.722  0.00  0.00    +0.000 F 
ATOM     21  F   UNL     1       7.946   7.018  18.696  0.00  0.00    +0.000 F 
ENDBRANCH  15  18
ENDBRANCH   5   7
BRANCH   1  23
ATOM     22  C   UNL     1       0.598  10.080  20.298  0.00  0.00    +0.000 C 
ATOM     23  C   UNL     1       1.230   8.936  20.622  0.00  0.00    +0.000 C 
BRANCH  22  29
ATOM     24  C   UNL     1       0.590  13.114  20.087  0.00  0.00    +0.000 C 
ATOM     25  N   UNL     1       0.045  12.305  21.147  0.00  0.00    +0.000 N 
ATOM     26  C   UNL     1      -0.584  12.805  22.253  0.00  0.00    +0.000 A 
ATOM     27  N   UNL     1      -1.012  11.816  22.992  0.00  0.00    +0.000 NA
ATOM     28  N   UNL     1      -0.665  10.646  22.368  0.00  0.00    +0.000 NA
ATOM     29  C   UNL     1      -0.005  10.934  21.258  0.00  0.00    +0.000 A 
ENDBRANCH  22  29
BRANCH  23  30
ATOM     30  C   UNL     1       1.452   8.335  21.991  0.00  0.00    +0.000 C 
BRANCH  30  31
ATOM     31  O   UNL     1       2.185   9.263  22.785  0.00  0.00    +0.000 OA
ATOM     32  H   UNL     1       2.238  10.073  22.247  0.00  0.00    +0.000 HD
ENDBRANCH  30  31
ENDBRANCH  23  30
ENDBRANCH   1  23
TORSDOF 6
ENDMDL
MODEL 6
REMARK VINA RESULT:      -8.0      3.873      8.744
REMARK  Name = 
REMARK  7 active torsions:
REMARK  status: ('A' for Active; 'I' for Inactive)
REMARK    1  A    between atoms: C_1  and  N_2
REMARK    2  A    between atoms: C_6  and  C_7
REMARK    3  A    between atoms: C_8  and  C_9
REMARK    4  A    between atoms: C_8  and  C_11
REMARK    5  A    between atoms: C_9  and  O_10
REMARK    6  A    between atoms: C_15  and  N_16
REMARK    7  A    between atoms: C_24  and  C_25
REMARK                            x       y       z     vdW  Elec       q    Type
REMARK                         _______ _______ _______ _____ _____    ______ ____
ROOT
ATOM      1  C   UNL     1       2.087   7.384  19.330  0.00  0.00    +0.000 A 
ATOM      2  C   UNL     1       2.309   8.095  18.146  0.00  0.00    +0.000 A 
ATOM      3  C   UNL     1       2.085   9.468  18.106  0.00  0.00    +0.000 A 
ATOM      4  C   UNL     1       1.540  10.112  19.213  0.00  0.00    +0.000 A 
ATOM      5  C   UNL     1       1.103   9.356  20.315  0.00  0.00    +0.000 A 
ATOM      6  C   UNL     1       1.534   8.033  20.439  0.00  0.00    +0.000 A 
ENDROOT
BRANCH   5   7
ATOM      7  N   UNL     1      -0.129   9.732  21.006  0.00  0.00    +0.000 N 
ATOM      8  C   UNL     1      -1.296   9.571  20.097  0.00  0.00    +0.000 C 
ATOM      9  C   UNL     1      -1.357  10.922  19.442  0.00  0.00    +0.000 A 
ATOM     10  C   UNL     1      -0.827  11.845  20.354  0.00  0.00    +0.000 A 
ATOM     11  C   UNL     1      -0.547  13.156  20.022  0.00  0.00    +0.000 A 
ATOM     12  C   UNL     1      -0.790  13.526  18.708  0.00  0.00    +0.000 A 
ATOM     13  F   UNL     1      -0.437  14.750  18.296  0.00  0.00    +0.000 F 
ATOM     14  C   UNL     1      -1.307  12.619  17.769  0.00  0.00    +0.000 A 
ATOM     15  C   UNL     1      -1.609  11.287  18.124  0.00  0.00    +0.000 A 
ATOM     16  C   UNL     1      -0.191  11.077  21.451  0.00  0.00    +0.000 C 
ATOM     17  O   UNL     1       0.350  11.586  22.415  0.00  0.00    +0.000 OA
BRANCH  15  18
ATOM     18  C   UNL     1      -2.050  10.324  17.052  0.00  0.00    +0.000 C 
ATOM     19  F   UNL     1      -1.152   9.344  16.782  0.00  0.00    +0.000 F 
ATOM     20  F   UNL     1      -3.206   9.687  17.384  0.00  0.00    +0.000 F 
ATOM     21  F   UNL     1      -2.294  10.950  15.867  0.00  0.00    +0.000 F 
ENDBRANCH  15  18
ENDBRANCH   5   7
BRANCH   1  23
ATOM     22  C   UNL     1       2.566   5.312  18.182  0.00  0.00    +0.000 C 
ATOM     23  C   UNL     1       2.238   5.917  19.338  0.00  0.00    +0.000 C 
BRANCH  22  29
ATOM     24  C   UNL     1       5.174   3.846  18.725  0.00  0.00    +0.000 C 
ATOM     25  N   UNL     1       3.927   3.283  18.273  0.00  0.00    +0.000 N 
ATOM     26  C   UNL     1       3.728   1.956  18.018  0.00  0.00    +0.000 A 
ATOM     27  N   UNL     1       2.480   1.761  17.683  0.00  0.00    +0.000 NA
ATOM     28  N   UNL     1       1.843   2.975  17.717  0.00  0.00    +0.000 NA
ATOM     29  C   UNL     1       2.720   3.907  18.055  0.00  0.00    +0.000 A 
ENDBRANCH  22  29
BRANCH  23  30
ATOM     30  C   UNL     1       1.955   5.292  20.684  0.00  0.00    +0.000 C 
BRANCH  30  31
ATOM     31  O   UNL     1       0.890   4.357  20.540  0.00  0.00    +0.000 OA
ATOM     32  H   UNL     1       0.209   4.646  21.173  0.00  0.00    +0.000 HD
ENDBRANCH  30  31
ENDBRANCH  23  30
ENDBRANCH   1  23
TORSDOF 6
ENDMDL
MODEL 7
REMARK VINA RESULT:      -7.9      5.629     10.297
REMARK  Name = 
REMARK  7 active torsions:
REMARK  status: ('A' for Active; 'I' for Inactive)
REMARK    1  A    between atoms: C_1  and  N_2
REMARK    2  A    between atoms: C_6  and  C_7
REMARK    3  A    between atoms: C_8  and  C_9
REMARK    4  A    between atoms: C_8  and  C_11
REMARK    5  A    between atoms: C_9  and  O_10
REMARK    6  A    between atoms: C_15  and  N_16
REMARK    7  A    between atoms: C_24  and  C_25
REMARK                            x       y       z     vdW  Elec       q    Type
REMARK                         _______ _______ _______ _____ _____    ______ ____
ROOT
ATOM      1  C   UNL     1       0.635   9.216  20.363  0.00  0.00    +0.000 A 
ATOM      2  C   UNL     1       0.963   8.864  21.677  0.00  0.00    +0.000 A 
ATOM      3  C   UNL     1       0.345   9.507  22.745  0.00  0.00    +0.000 A 
ATOM      4  C   UNL     1      -0.518  10.573  22.505  0.00  0.00    +0.000 A 
ATOM      5  C   UNL     1      -0.663  11.073  21.199  0.00  0.00    +0.000 A 
ATOM      6  C   UNL     1      -0.227  10.291  20.125  0.00  0.00    +0.000 A 
ENDROOT
BRANCH   5   7
ATOM      7  N   UNL     1      -0.768  12.515  20.985  0.00  0.00    +0.000 N 
ATOM      8  C   UNL     1      -1.435  13.158  22.148  0.00  0.00    +0.000 C 
ATOM      9  C   UNL     1      -2.880  13.084  21.746  0.00  0.00    +0.000 A 
ATOM     10  C   UNL     1      -2.918  13.098  20.345  0.00  0.00    +0.000 A 
ATOM     11  C   UNL     1      -4.067  12.851  19.619  0.00  0.00    +0.000 A 
ATOM     12  C   UNL     1      -5.206  12.550  20.350  0.00  0.00    +0.000 A 
ATOM     13  F   UNL     1      -6.324  12.193  19.704  0.00  0.00    +0.000 F 
ATOM     14  C   UNL     1      -5.195  12.514  21.753  0.00  0.00    +0.000 A 
ATOM     15  C   UNL     1      -4.022  12.789  22.486  0.00  0.00    +0.000 A 
ATOM     16  C   UNL     1      -1.531  12.909  19.857  0.00  0.00    +0.000 C 
ATOM     17  O   UNL     1      -1.219  12.890  18.681  0.00  0.00    +0.000 OA
BRANCH  15  18
ATOM     18  C   UNL     1      -4.035  12.622  23.983  0.00  0.00    +0.000 C 
ATOM     19  F   UNL     1      -3.474  13.653  24.663  0.00  0.00    +0.000 F 
ATOM     20  F   UNL     1      -5.300  12.502  24.471  0.00  0.00    +0.000 F 
ATOM     21  F   UNL     1      -3.371  11.501  24.381  0.00  0.00    +0.000 F 
ENDBRANCH  15  18
ENDBRANCH   5   7
BRANCH   1  23
ATOM     22  C   UNL     1       2.206   7.586  19.518  0.00  0.00    +0.000 C 
ATOM     23  C   UNL     1       1.360   8.595  19.240  0.00  0.00    +0.000 C 
BRANCH  22  29
ATOM     24  C   UNL     1       2.061   4.593  18.997  0.00  0.00    +0.000 C 
ATOM     25  N   UNL     1       2.911   5.558  18.348  0.00  0.00    +0.000 N 
ATOM     26  C   UNL     1       3.808   5.256  17.362  0.00  0.00    +0.000 A 
ATOM     27  N   UNL     1       4.378   6.355  16.944  0.00  0.00    +0.000 NA
ATOM     28  N   UNL     1       3.853   7.399  17.660  0.00  0.00    +0.000 NA
ATOM     29  C   UNL     1       2.976   6.921  18.529  0.00  0.00    +0.000 A 
ENDBRANCH  22  29
BRANCH  23  30
ATOM     30  C   UNL     1       1.061   9.235  17.904  0.00  0.00    +0.000 C 
BRANCH  30  31
ATOM     31  O   UNL     1       2.131  10.112  17.566  0.00  0.00    +0.000 OA
ATOM     32  H   UNL     1       2.123  10.161  16.594  0.00  0.00    +0.000 HD
ENDBRANCH  30  31
ENDBRANCH  23  30
ENDBRANCH   1  23
TORSDOF 6
ENDMDL
MODEL 8
REMARK VINA RESULT:      -7.8      4.057      8.689
REMARK  Name = 
REMARK  7 active torsions:
REMARK  status: ('A' for Active; 'I' for Inactive)
REMARK    1  A    between atoms: C_1  and  N_2
REMARK    2  A    between atoms: C_6  and  C_7
REMARK    3  A    between atoms: C_8  and  C_9
REMARK    4  A    between atoms: C_8  and  C_11
REMARK    5  A    between atoms: C_9  and  O_10
REMARK    6  A    between atoms: C_15  and  N_16
REMARK    7  A    between atoms: C_24  and  C_25
REMARK                            x       y       z     vdW  Elec       q    Type
REMARK                         _______ _______ _______ _____ _____    ______ ____
ROOT
ATOM      1  C   UNL     1       2.405   7.459  18.941  0.00  0.00    +0.000 A 
ATOM      2  C   UNL     1       2.469   8.284  17.812  0.00  0.00    +0.000 A 
ATOM      3  C   UNL     1       2.066   9.613  17.897  0.00  0.00    +0.000 A 
ATOM      4  C   UNL     1       1.502  10.090  19.077  0.00  0.00    +0.000 A 
ATOM      5  C   UNL     1       1.226   9.199  20.129  0.00  0.00    +0.000 A 
ATOM      6  C   UNL     1       1.832   7.940  20.123  0.00  0.00    +0.000 A 
ENDROOT
BRANCH   5   7
ATOM      7  N   UNL     1      -0.006   9.352  20.900  0.00  0.00    +0.000 N 
ATOM      8  C   UNL     1      -1.188   9.257  20.002  0.00  0.00    +0.000 C 
ATOM      9  C   UNL     1      -1.373  10.690  19.594  0.00  0.00    +0.000 A 
ATOM     10  C   UNL     1      -0.882  11.482  20.641  0.00  0.00    +0.000 A 
ATOM     11  C   UNL     1      -0.713  12.849  20.536  0.00  0.00    +0.000 A 
ATOM     12  C   UNL     1      -1.028  13.418  19.311  0.00  0.00    +0.000 A 
ATOM     13  F   UNL     1      -0.782  14.719  19.111  0.00  0.00    +0.000 F 
ATOM     14  C   UNL     1      -1.507  12.648  18.240  0.00  0.00    +0.000 A 
ATOM     15  C   UNL     1      -1.697  11.256  18.364  0.00  0.00    +0.000 A 
ATOM     16  C   UNL     1      -0.153  10.591  21.573  0.00  0.00    +0.000 C 
ATOM     17  O   UNL     1       0.381  10.969  22.600  0.00  0.00    +0.000 OA
BRANCH  15  18
ATOM     18  C   UNL     1      -2.101  10.459  17.151  0.00  0.00    +0.000 C 
ATOM     19  F   UNL     1      -1.187   9.534  16.764  0.00  0.00    +0.000 F 
ATOM     20  F   UNL     1      -3.259   9.772  17.355  0.00  0.00    +0.000 F 
ATOM     21  F   UNL     1      -2.321  11.251  16.066  0.00  0.00    +0.000 F 
ENDBRANCH  15  18
ENDBRANCH   5   7
BRANCH   1  23
ATOM     22  C   UNL     1       1.787   5.189  18.393  0.00  0.00    +0.000 C 
ATOM     23  C   UNL     1       2.746   6.031  18.820  0.00  0.00    +0.000 C 
BRANCH  22  29
ATOM     24  C   UNL     1       1.150   3.169  20.576  0.00  0.00    +0.000 C 
ATOM     25  N   UNL     1       1.720   2.911  19.279  0.00  0.00    +0.000 N 
ATOM     26  C   UNL     1       2.066   1.670  18.823  0.00  0.00    +0.000 A 
ATOM     27  N   UNL     1       2.499   1.766  17.593  0.00  0.00    +0.000 NA
ATOM     28  N   UNL     1       2.437   3.086  17.229  0.00  0.00    +0.000 NA
ATOM     29  C   UNL     1       1.984   3.790  18.254  0.00  0.00    +0.000 A 
ENDBRANCH  22  29
BRANCH  23  30
ATOM     30  C   UNL     1       4.162   5.713  19.243  0.00  0.00    +0.000 C 
BRANCH  30  31
ATOM     31  O   UNL     1       4.987   5.665  18.082  0.00  0.00    +0.000 OA
ATOM     32  H   UNL     1       5.781   6.178  18.312  0.00  0.00    +0.000 HD
ENDBRANCH  30  31
ENDBRANCH  23  30
ENDBRANCH   1  23
TORSDOF 6
ENDMDL
MODEL 9
REMARK VINA RESULT:      -7.7      2.181      2.969
REMARK  Name = 
REMARK  7 active torsions:
REMARK  status: ('A' for Active; 'I' for Inactive)
REMARK    1  A    between atoms: C_1  and  N_2
REMARK    2  A    between atoms: C_6  and  C_7
REMARK    3  A    between atoms: C_8  and  C_9
REMARK    4  A    between atoms: C_8  and  C_11
REMARK    5  A    between atoms: C_9  and  O_10
REMARK    6  A    between atoms: C_15  and  N_16
REMARK    7  A    between atoms: C_24  and  C_25
REMARK                            x       y       z     vdW  Elec       q    Type
REMARK                         _______ _______ _______ _____ _____    ______ ____
ROOT
ATOM      1  C   UNL     1       1.313   9.121  18.933  0.00  0.00    +0.000 A 
ATOM      2  C   UNL     1       2.136   9.537  17.880  0.00  0.00    +0.000 A 
ATOM      3  C   UNL     1       3.024   8.641  17.294  0.00  0.00    +0.000 A 
ATOM      4  C   UNL     1       3.167   7.362  17.826  0.00  0.00    +0.000 A 
ATOM      5  C   UNL     1       2.512   7.027  19.024  0.00  0.00    +0.000 A 
ATOM      6  C   UNL     1       1.464   7.838  19.469  0.00  0.00    +0.000 A 
ENDROOT
BRANCH   5   7
ATOM      7  N   UNL     1       3.199   6.205  20.018  0.00  0.00    +0.000 N 
ATOM      8  C   UNL     1       4.515   5.756  19.490  0.00  0.00    +0.000 C 
ATOM      9  C   UNL     1       4.145   4.468  18.812  0.00  0.00    +0.000 A 
ATOM     10  C   UNL     1       3.029   3.955  19.486  0.00  0.00    +0.000 A 
ATOM     11  C   UNL     1       2.297   2.880  19.021  0.00  0.00    +0.000 A 
ATOM     12  C   UNL     1       2.703   2.332  17.813  0.00  0.00    +0.000 A 
ATOM     13  F   UNL     1       1.970   1.360  17.256  0.00  0.00    +0.000 F 
ATOM     14  C   UNL     1       3.809   2.834  17.110  0.00  0.00    +0.000 A 
ATOM     15  C   UNL     1       4.563   3.919  17.603  0.00  0.00    +0.000 A 
ATOM     16  C   UNL     1       2.526   5.014  20.392  0.00  0.00    +0.000 C 
ATOM     17  O   UNL     1       1.571   4.880  21.134  0.00  0.00    +0.000 OA
BRANCH  15  18
ATOM     18  C   UNL     1       5.666   4.494  16.753  0.00  0.00    +0.000 C 
ATOM     19  F   UNL     1       6.822   4.726  17.424  0.00  0.00    +0.000 F 
ATOM     20  F   UNL     1       5.996   3.669  15.722  0.00  0.00    +0.000 F 
ATOM     21  F   UNL     1       5.313   5.680  16.186  0.00  0.00    +0.000 F 
ENDBRANCH  15  18
ENDBRANCH   5   7
BRANCH   1  23
ATOM     22  C   UNL     1       0.917  10.707  20.712  0.00  0.00    +0.000 C 
ATOM     23  C   UNL     1       0.443  10.100  19.609  0.00  0.00    +0.000 C 
BRANCH  22  29
ATOM     24  C   UNL     1      -0.751   9.986  23.151  0.00  0.00    +0.000 C 
ATOM     25  N   UNL     1      -0.605  11.282  22.538  0.00  0.00    +0.000 N 
ATOM     26  C   UNL     1      -1.216  12.419  22.985  0.00  0.00    +0.000 A 
ATOM     27  N   UNL     1      -0.835  13.432  22.252  0.00  0.00    +0.000 NA
ATOM     28  N   UNL     1       0.040  12.960  21.308  0.00  0.00    +0.000 NA
ATOM     29  C   UNL     1       0.169  11.653  21.462  0.00  0.00    +0.000 A 
ENDBRANCH  22  29
BRANCH  23  30
ATOM     30  C   UNL     1      -0.911  10.251  18.956  0.00  0.00    +0.000 C 
BRANCH  30  31
ATOM     31  O   UNL     1      -0.831  11.273  17.966  0.00  0.00    +0.000 OA
ATOM     32  H   UNL     1      -1.617  11.146  17.404  0.00  0.00    +0.000 HD
ENDBRANCH  30  31
ENDBRANCH  23  30
ENDBRANCH   1  23
TORSDOF 6
ENDMDL
