MODEL 1
REMARK VINA RESULT:      -7.9      0.000      0.000
REMARK  Name = 
REMARK  6 active torsions:
REMARK  status: ('A' for Active; 'I' for Inactive)
REMARK    1  A    between atoms: C_2  and  C_3
REMARK    2  A    between atoms: C_3  and  C_4
REMARK    3  A    between atoms: C_4  and  N_5
REMARK    4  A    between atoms: N_10  and  C_11
REMARK    5  A    between atoms: C_15  and  C_16
REMARK    6  A    between atoms: N_18  and  C_19
REMARK                            x       y       z     vdW  Elec       q    Type
REMARK                         _______ _______ _______ _____ _____    ______ ____
ROOT
ATOM      1  C   UNL     1       3.602   5.676  18.558  0.00  0.00    +0.000 A 
ATOM      2  C   UNL     1       3.105   5.114  19.731  0.00  0.00    +0.000 A 
ATOM      3  C   UNL     1       2.170   5.802  20.509  0.00  0.00    +0.000 A 
ATOM      4  C   UNL     1       1.717   7.068  20.130  0.00  0.00    +0.000 A 
ATOM      5  C   UNL     1       2.200   7.661  18.958  0.00  0.00    +0.000 A 
ATOM      6  C   UNL     1       3.141   6.950  18.179  0.00  0.00    +0.000 A 
ENDROOT
BRANCH   1   9
ATOM      7  O   UNL     1       6.579   5.882  18.548  0.00  0.00    +0.000 OA
ATOM      8  C   UNL     1       5.950   5.177  17.774  0.00  0.00    +0.000 C 
ATOM      9  N   UNL     1       4.568   5.028  17.728  0.00  0.00    +0.000 N 
ATOM     10  H   UNL     1       4.189   4.376  17.051  0.00  0.00    +0.000 HD
BRANCH   8  11
ATOM     11  C   UNL     1       6.671   4.375  16.693  0.00  0.00    +0.000 C 
BRANCH  11  12
ATOM     12  C   UNL     1       5.756   4.124  15.493  0.00  0.00    +0.000 C 
BRANCH  12  13
ATOM     13  N   UNL     1       6.415   4.362  14.217  0.00  0.00    +0.000 N 
ATOM     14  C   UNL     1       6.246   3.640  13.068  0.00  0.00    +0.000 A 
ATOM     15  C   UNL     1       7.115   4.205  12.162  0.00  0.00    +0.000 A 
ATOM     16  N   UNL     1       7.805   5.243  12.732  0.00  0.00    +0.000 NA
ATOM     17  C   UNL     1       7.377   5.302  13.973  0.00  0.00    +0.000 A 
ENDBRANCH  12  13
ENDBRANCH  11  12
ENDBRANCH   8  11
ENDBRANCH   1   9
BRANCH   5  18
ATOM     18  C   UNL     1       1.754   9.030  18.495  0.00  0.00    +0.000 C 
ATOM     19  O   UNL     1       2.160   9.457  17.419  0.00  0.00    +0.000 OA
ATOM     20  N   UNL     1       0.894   9.748  19.306  0.00  0.00    +0.000 N 
ATOM     21  H   UNL     1       0.392   9.243  20.014  0.00  0.00    +0.000 HD
BRANCH  20  22
ATOM     22  C   UNL     1       0.260  10.987  18.885  0.00  0.00    +0.000 C 
ATOM     23  C   UNL     1      -0.168  11.951  20.018  0.00  0.00    +0.000 C 
ATOM     24  C   UNL     1      -1.154  12.909  19.331  0.00  0.00    +0.000 C 
ATOM     25  C   UNL     1      -1.936  11.883  18.570  0.00  0.00    +0.000 A 
ATOM     26  C   UNL     1      -3.297  11.872  18.321  0.00  0.00    +0.000 A 
ATOM     27  C   UNL     1      -3.850  10.711  17.783  0.00  0.00    +0.000 A 
ATOM     28  C   UNL     1      -3.031   9.628  17.424  0.00  0.00    +0.000 A 
ATOM     29  C   UNL     1      -1.649   9.669  17.635  0.00  0.00    +0.000 A 
ATOM     30  C   UNL     1      -1.114  10.780  18.266  0.00  0.00    +0.000 A 
ENDBRANCH  20  22
ENDBRANCH   5  18
TORSDOF 6
ENDMDL
MODEL 2
REMARK VINA RESULT:      -7.6      1.626      2.496
REMARK  Name = 
REMARK  6 active torsions:
REMARK  status: ('A' for Active; 'I' for Inactive)
REMARK    1  A    between atoms: C_2  and  C_3
REMARK    2  A    between atoms: C_3  and  C_4
REMARK    3  A    between atoms: C_4  and  N_5
REMARK    4  A    between atoms: N_10  and  C_11
REMARK    5  A    between atoms: C_15  and  C_16
REMARK    6  A    between atoms: N_18  and  C_19
REMARK                            x       y       z     vdW  Elec       q    Type
REMARK                         _______ _______ _______ _____ _____    ______ ____
ROOT
ATOM      1  C   UNL     1       3.290   5.856  18.411  0.00  0.00    +0.000 A 
ATOM      2  C   UNL     1       2.939   5.210  19.593  0.00  0.00    +0.000 A 
ATOM      3  C   UNL     1       2.127   5.845  20.536  0.00  0.00    +0.000 A 
ATOM      4  C   UNL     1       1.652   7.140  20.317  0.00  0.00    +0.000 A 
ATOM      5  C   UNL     1       1.990   7.817  19.140  0.00  0.00    +0.000 A 
ATOM      6  C   UNL     1       2.808   7.161  18.193  0.00  0.00    +0.000 A 
ENDROOT
BRANCH   1   9
ATOM      7  O   UNL     1       4.604   7.082  16.028  0.00  0.00    +0.000 OA
ATOM      8  C   UNL     1       4.705   5.899  16.320  0.00  0.00    +0.000 C 
ATOM      9  N   UNL     1       4.128   5.266  17.415  0.00  0.00    +0.000 N 
ATOM     10  H   UNL     1       4.331   4.283  17.549  0.00  0.00    +0.000 HD
BRANCH   8  11
ATOM     11  C   UNL     1       5.493   4.943  15.427  0.00  0.00    +0.000 C 
BRANCH  11  12
ATOM     12  C   UNL     1       6.999   5.139  15.607  0.00  0.00    +0.000 C 
BRANCH  12  13
ATOM     13  N   UNL     1       7.368   5.472  16.975  0.00  0.00    +0.000 N 
ATOM     14  C   UNL     1       7.604   6.725  17.471  0.00  0.00    +0.000 A 
ATOM     15  C   UNL     1       7.972   6.525  18.782  0.00  0.00    +0.000 A 
ATOM     16  N   UNL     1       7.967   5.189  19.090  0.00  0.00    +0.000 NA
ATOM     17  C   UNL     1       7.619   4.579  17.979  0.00  0.00    +0.000 A 
ENDBRANCH  12  13
ENDBRANCH  11  12
ENDBRANCH   8  11
ENDBRANCH   1   9
BRANCH   5  18
ATOM     18  C   UNL     1       1.514   9.222  18.844  0.00  0.00    +0.000 C 
ATOM     19  O   UNL     1       2.085   9.875  17.977  0.00  0.00    +0.000 OA
ATOM     20  N   UNL     1       0.439   9.715  19.562  0.00  0.00    +0.000 N 
ATOM     21  H   UNL     1      -0.143   9.052  20.040  0.00  0.00    +0.000 HD
BRANCH  20  22
ATOM     22  C   UNL     1      -0.216  10.972  19.241  0.00  0.00    +0.000 C 
ATOM     23  C   UNL     1      -0.975  11.660  20.402  0.00  0.00    +0.000 C 
ATOM     24  C   UNL     1      -1.885  12.675  19.696  0.00  0.00    +0.000 C 
ATOM     25  C   UNL     1      -2.375  11.779  18.600  0.00  0.00    +0.000 A 
ATOM     26  C   UNL     1      -3.644  11.737  18.047  0.00  0.00    +0.000 A 
ATOM     27  C   UNL     1      -3.944  10.677  17.193  0.00  0.00    +0.000 A 
ATOM     28  C   UNL     1      -2.959   9.740  16.840  0.00  0.00    +0.000 A 
ATOM     29  C   UNL     1      -1.666   9.821  17.366  0.00  0.00    +0.000 A 
ATOM     30  C   UNL     1      -1.397  10.812  18.296  0.00  0.00    +0.000 A 
ENDBRANCH  20  22
ENDBRANCH   5  18
TORSDOF 6
ENDMDL
MODEL 3
REMARK VINA RESULT:      -7.5      3.837     10.281
REMARK  Name = 
REMARK  6 active torsions:
REMARK  status: ('A' for Active; 'I' for Inactive)
REMARK    1  A    between atoms: C_2  and  C_3
REMARK    2  A    between atoms: C_3  and  C_4
REMARK    3  A    between atoms: C_4  and  N_5
REMARK    4  A    between atoms: N_10  and  C_11
REMARK    5  A    between atoms: C_15  and  C_16
REMARK    6  A    between atoms: N_18  and  C_19
REMARK                            x       y       z     vdW  Elec       q    Type
REMARK                         _______ _______ _______ _____ _____    ______ ____
ROOT
ATOM      1  C   UNL     1       0.468  10.330  19.990  0.00  0.00    +0.000 A 
ATOM      2  C   UNL     1       0.905  11.290  19.082  0.00  0.00    +0.000 A 
ATOM      3  C   UNL     1       1.809  10.953  18.071  0.00  0.00    +0.000 A 
ATOM      4  C   UNL     1       2.296   9.650  17.951  0.00  0.00    +0.000 A 
ATOM      5  C   UNL     1       1.878   8.663  18.851  0.00  0.00    +0.000 A 
ATOM      6  C   UNL     1       0.959   9.017  19.865  0.00  0.00    +0.000 A 
ENDROOT
BRANCH   1   9
ATOM      7  O   UNL     1       0.816  10.085  22.945  0.00  0.00    +0.000 OA
ATOM      8  C   UNL     1      -0.217  10.471  22.417  0.00  0.00    +0.000 C 
ATOM      9  N   UNL     1      -0.444  10.615  21.053  0.00  0.00    +0.000 N 
ATOM     10  H   UNL     1      -1.343  10.982  20.764  0.00  0.00    +0.000 HD
BRANCH   8  11
ATOM     11  C   UNL     1      -1.441  10.812  23.264  0.00  0.00    +0.000 C 
BRANCH  11  12
ATOM     12  C   UNL     1      -1.831  12.282  23.097  0.00  0.00    +0.000 C 
BRANCH  12  13
ATOM     13  N   UNL     1      -3.263  12.507  23.234  0.00  0.00    +0.000 N 
ATOM     14  C   UNL     1      -3.966  12.576  24.404  0.00  0.00    +0.000 A 
ATOM     15  C   UNL     1      -5.278  12.743  24.022  0.00  0.00    +0.000 A 
ATOM     16  N   UNL     1      -5.386  12.773  22.656  0.00  0.00    +0.000 NA
ATOM     17  C   UNL     1      -4.161  12.610  22.208  0.00  0.00    +0.000 A 
ENDBRANCH  12  13
ENDBRANCH  11  12
ENDBRANCH   8  11
ENDBRANCH   1   9
BRANCH   5  18
ATOM     18  C   UNL     1       2.372   7.235  18.780  0.00  0.00    +0.000 C 
ATOM     19  O   UNL     1       2.285   6.625  17.719  0.00  0.00    +0.000 OA
ATOM     20  N   UNL     1       2.914   6.671  19.922  0.00  0.00    +0.000 N 
ATOM     21  H   UNL     1       3.206   7.293  20.653  0.00  0.00    +0.000 HD
BRANCH  20  22
ATOM     22  C   UNL     1       3.580   5.380  19.925  0.00  0.00    +0.000 C 
ATOM     23  C   UNL     1       4.472   5.072  18.698  0.00  0.00    +0.000 C 
ATOM     24  C   UNL     1       4.673   3.551  18.762  0.00  0.00    +0.000 C 
ATOM     25  C   UNL     1       3.256   3.171  19.062  0.00  0.00    +0.000 A 
ATOM     26  C   UNL     1       2.558   2.072  18.593  0.00  0.00    +0.000 A 
ATOM     27  C   UNL     1       1.183   2.030  18.820  0.00  0.00    +0.000 A 
ATOM     28  C   UNL     1       0.552   3.029  19.578  0.00  0.00    +0.000 A 
ATOM     29  C   UNL     1       1.276   4.111  20.090  0.00  0.00    +0.000 A 
ATOM     30  C   UNL     1       2.621   4.207  19.775  0.00  0.00    +0.000 A 
ENDBRANCH  20  22
ENDBRANCH   5  18
TORSDOF 6
ENDMDL
MODEL 4
REMARK VINA RESULT:      -7.4      3.415     10.138
REMARK  Name = 
REMARK  6 active torsions:
REMARK  status: ('A' for Active; 'I' for Inactive)
REMARK    1  A    between atoms: C_2  and  C_3
REMARK    2  A    between atoms: C_3  and  C_4
REMARK    3  A    between atoms: C_4  and  N_5
REMARK    4  A    between atoms: N_10  and  C_11
REMARK    5  A    between atoms: C_15  and  C_16
REMARK    6  A    between atoms: N_18  and  C_19
REMARK                            x       y       z     vdW  Elec       q    Type
REMARK                         _______ _______ _______ _____ _____    ______ ____
ROOT
ATOM      1  C   UNL     1      -1.246  11.039  18.549  0.00  0.00    +0.000 A 
ATOM      2  C   UNL     1      -0.747  12.169  19.191  0.00  0.00    +0.000 A 
ATOM      3  C   UNL     1       0.606  12.257  19.527  0.00  0.00    +0.000 A 
ATOM      4  C   UNL     1       1.487  11.213  19.232  0.00  0.00    +0.000 A 
ATOM      5  C   UNL     1       1.016  10.062  18.591  0.00  0.00    +0.000 A 
ATOM      6  C   UNL     1      -0.355   9.990  18.252  0.00  0.00    +0.000 A 
ENDROOT
BRANCH   1   9
ATOM      7  O   UNL     1      -2.591  11.325  15.900  0.00  0.00    +0.000 OA
ATOM      8  C   UNL     1      -3.184  11.040  16.930  0.00  0.00    +0.000 C 
ATOM      9  N   UNL     1      -2.621  10.884  18.192  0.00  0.00    +0.000 N 
ATOM     10  H   UNL     1      -3.235  10.609  18.949  0.00  0.00    +0.000 HD
BRANCH   8  11
ATOM     11  C   UNL     1      -4.700  10.857  16.929  0.00  0.00    +0.000 C 
BRANCH  11  12
ATOM     12  C   UNL     1      -5.397  12.046  17.590  0.00  0.00    +0.000 C 
BRANCH  12  13
ATOM     13  N   UNL     1      -5.971  11.718  18.887  0.00  0.00    +0.000 N 
ATOM     14  C   UNL     1      -7.075  10.943  19.114  0.00  0.00    +0.000 A 
ATOM     15  C   UNL     1      -7.256  10.971  20.478  0.00  0.00    +0.000 A 
ATOM     16  N   UNL     1      -6.296  11.742  21.079  0.00  0.00    +0.000 NA
ATOM     17  C   UNL     1      -5.548  12.193  20.097  0.00  0.00    +0.000 A 
ENDBRANCH  12  13
ENDBRANCH  11  12
ENDBRANCH   8  11
ENDBRANCH   1   9
BRANCH   5  18
ATOM     18  C   UNL     1       1.914   8.895  18.249  0.00  0.00    +0.000 C 
ATOM     19  O   UNL     1       2.534   8.910  17.190  0.00  0.00    +0.000 OA
ATOM     20  N   UNL     1       2.009   7.853  19.154  0.00  0.00    +0.000 N 
ATOM     21  H   UNL     1       1.707   8.027  20.095  0.00  0.00    +0.000 HD
BRANCH  20  22
ATOM     22  C   UNL     1       2.971   6.773  19.017  0.00  0.00    +0.000 C 
ATOM     23  C   UNL     1       3.279   6.316  17.570  0.00  0.00    +0.000 C 
ATOM     24  C   UNL     1       3.948   4.945  17.752  0.00  0.00    +0.000 C 
ATOM     25  C   UNL     1       3.002   4.393  18.774  0.00  0.00    +0.000 A 
ATOM     26  C   UNL     1       2.548   3.090  18.887  0.00  0.00    +0.000 A 
ATOM     27  C   UNL     1       1.501   2.842  19.775  0.00  0.00    +0.000 A 
ATOM     28  C   UNL     1       0.993   3.869  20.587  0.00  0.00    +0.000 A 
ATOM     29  C   UNL     1       1.494   5.172  20.500  0.00  0.00    +0.000 A 
ATOM     30  C   UNL     1       2.460   5.440  19.544  0.00  0.00    +0.000 A 
ENDBRANCH  20  22
ENDBRANCH   5  18
TORSDOF 6
ENDMDL
MODEL 5
REMARK VINA RESULT:      -7.4      1.330      1.646
REMARK  Name = 
REMARK  6 active torsions:
REMARK  status: ('A' for Active; 'I' for Inactive)
REMARK    1  A    between atoms: C_2  and  C_3
REMARK    2  A    between atoms: C_3  and  C_4
REMARK    3  A    between atoms: C_4  and  N_5
REMARK    4  A    between atoms: N_10  and  C_11
REMARK    5  A    between atoms: C_15  and  C_16
REMARK    6  A    between atoms: N_18  and  C_19
REMARK                            x       y       z     vdW  Elec       q    Type
REMARK                         _______ _______ _______ _____ _____    ______ ____
ROOT
ATOM      1  C   UNL     1       3.810   5.178  19.145  0.00  0.00    +0.000 A 
ATOM      2  C   UNL     1       3.248   4.099  19.822  0.00  0.00    +0.000 A 
ATOM      3  C   UNL     1       2.132   4.279  20.644  0.00  0.00    +0.000 A 
ATOM      4  C   UNL     1       1.559   5.543  20.807  0.00  0.00    +0.000 A 
ATOM      5  C   UNL     1       2.103   6.647  20.142  0.00  0.00    +0.000 A 
ATOM      6  C   UNL     1       3.229   6.449  19.310  0.00  0.00    +0.000 A 
ENDROOT
BRANCH   1   9
ATOM      7  O   UNL     1       6.715   5.191  19.834  0.00  0.00    +0.000 OA
ATOM      8  C   UNL     1       6.293   5.082  18.692  0.00  0.00    +0.000 C 
ATOM      9  N   UNL     1       4.959   5.060  18.302  0.00  0.00    +0.000 N 
ATOM     10  H   UNL     1       4.760   4.927  17.318  0.00  0.00    +0.000 HD
BRANCH   8  11
ATOM     11  C   UNL     1       7.259   4.992  17.514  0.00  0.00    +0.000 C 
BRANCH  11  12
ATOM     12  C   UNL     1       6.761   5.825  16.331  0.00  0.00    +0.000 C 
BRANCH  12  13
ATOM     13  N   UNL     1       6.602   5.043  15.114  0.00  0.00    +0.000 N 
ATOM     14  C   UNL     1       7.395   5.102  14.001  0.00  0.00    +0.000 A 
ATOM     15  C   UNL     1       6.818   4.230  13.106  0.00  0.00    +0.000 A 
ATOM     16  N   UNL     1       5.699   3.650  13.645  0.00  0.00    +0.000 NA
ATOM     17  C   UNL     1       5.583   4.172  14.846  0.00  0.00    +0.000 A 
ENDBRANCH  12  13
ENDBRANCH  11  12
ENDBRANCH   8  11
ENDBRANCH   1   9
BRANCH   5  18
ATOM     18  C   UNL     1       1.535   8.042  20.280  0.00  0.00    +0.000 C 
ATOM     19  O   UNL     1       1.214   8.448  21.392  0.00  0.00    +0.000 OA
ATOM     20  N   UNL     1       1.406   8.813  19.138  0.00  0.00    +0.000 N 
ATOM     21  H   UNL     1       1.933   8.536  18.330  0.00  0.00    +0.000 HD
BRANCH  20  22
ATOM     22  C   UNL     1       1.046  10.220  19.172  0.00  0.00    +0.000 C 
ATOM     23  C   UNL     1       0.763  10.816  20.573  0.00  0.00    +0.000 C 
ATOM     24  C   UNL     1       0.014  12.123  20.272  0.00  0.00    +0.000 C 
ATOM     25  C   UNL     1      -0.918  11.587  19.229  0.00  0.00    +0.000 A 
ATOM     26  C   UNL     1      -2.243  11.930  19.023  0.00  0.00    +0.000 A 
ATOM     27  C   UNL     1      -2.986  11.149  18.139  0.00  0.00    +0.000 A 
ATOM     28  C   UNL     1      -2.378  10.108  17.419  0.00  0.00    +0.000 A 
ATOM     29  C   UNL     1      -1.026   9.802  17.598  0.00  0.00    +0.000 A 
ATOM     30  C   UNL     1      -0.314  10.509  18.553  0.00  0.00    +0.000 A 
ENDBRANCH  20  22
ENDBRANCH   5  18
TORSDOF 6
ENDMDL
MODEL 6
REMARK VINA RESULT:      -7.4      3.519      5.294
REMARK  Name = 
REMARK  6 active torsions:
REMARK  status: ('A' for Active; 'I' for Inactive)
REMARK    1  A    between atoms: C_2  and  C_3
REMARK    2  A    between atoms: C_3  and  C_4
REMARK    3  A    between atoms: C_4  and  N_5
REMARK    4  A    between atoms: N_10  and  C_11
REMARK    5  A    between atoms: C_15  and  C_16
REMARK    6  A    between atoms: N_18  and  C_19
REMARK                            x       y       z     vdW  Elec       q    Type
REMARK                         _______ _______ _______ _____ _____    ______ ____
ROOT
ATOM      1  C   UNL     1       1.890   7.496  20.361  0.00  0.00    +0.000 A 
ATOM      2  C   UNL     1       1.949   8.072  19.095  0.00  0.00    +0.000 A 
ATOM      3  C   UNL     1       1.383   9.328  18.859  0.00  0.00    +0.000 A 
ATOM      4  C   UNL     1       0.745  10.030  19.884  0.00  0.00    +0.000 A 
ATOM      5  C   UNL     1       0.666   9.475  21.167  0.00  0.00    +0.000 A 
ATOM      6  C   UNL     1       1.247   8.207  21.391  0.00  0.00    +0.000 A 
ENDROOT
BRANCH   1   9
ATOM      7  O   UNL     1       0.589   4.809  20.396  0.00  0.00    +0.000 OA
ATOM      8  C   UNL     1       1.767   4.991  20.665  0.00  0.00    +0.000 C 
ATOM      9  N   UNL     1       2.437   6.209  20.662  0.00  0.00    +0.000 N 
ATOM     10  H   UNL     1       3.428   6.200  20.873  0.00  0.00    +0.000 HD
BRANCH   8  11
ATOM     11  C   UNL     1       2.654   3.826  21.096  0.00  0.00    +0.000 C 
BRANCH  11  12
ATOM     12  C   UNL     1       2.816   2.811  19.963  0.00  0.00    +0.000 C 
BRANCH  12  13
ATOM     13  N   UNL     1       3.621   3.317  18.861  0.00  0.00    +0.000 N 
ATOM     14  C   UNL     1       4.882   3.840  18.948  0.00  0.00    +0.000 A 
ATOM     15  C   UNL     1       5.196   4.228  17.665  0.00  0.00    +0.000 A 
ATOM     16  N   UNL     1       4.162   3.956  16.808  0.00  0.00    +0.000 NA
ATOM     17  C   UNL     1       3.221   3.426  17.558  0.00  0.00    +0.000 A 
ENDBRANCH  12  13
ENDBRANCH  11  12
ENDBRANCH   8  11
ENDBRANCH   1   9
BRANCH   5  18
ATOM     18  C   UNL     1      -0.016  10.180  22.318  0.00  0.00    +0.000 C 
ATOM     19  O   UNL     1       0.130   9.744  23.455  0.00  0.00    +0.000 OA
ATOM     20  N   UNL     1      -0.777  11.302  22.042  0.00  0.00    +0.000 N 
ATOM     21  H   UNL     1      -0.630  11.757  21.159  0.00  0.00    +0.000 HD
BRANCH  20  22
ATOM     22  C   UNL     1      -1.326  12.159  23.079  0.00  0.00    +0.000 C 
ATOM     23  C   UNL     1      -2.870  12.251  23.139  0.00  0.00    +0.000 C 
ATOM     24  C   UNL     1      -3.131  13.502  23.990  0.00  0.00    +0.000 C 
ATOM     25  C   UNL     1      -2.121  14.400  23.345  0.00  0.00    +0.000 A 
ATOM     26  C   UNL     1      -2.240  15.754  23.083  0.00  0.00    +0.000 A 
ATOM     27  C   UNL     1      -1.270  16.347  22.276  0.00  0.00    +0.000 A 
ATOM     28  C   UNL     1      -0.165  15.607  21.824  0.00  0.00    +0.000 A 
ATOM     29  C   UNL     1      -0.029  14.251  22.137  0.00  0.00    +0.000 A 
ATOM     30  C   UNL     1      -1.046  13.637  22.849  0.00  0.00    +0.000 A 
ENDBRANCH  20  22
ENDBRANCH   5  18
TORSDOF 6
ENDMDL
MODEL 7
REMARK VINA RESULT:      -7.4      3.552      4.610
REMARK  Name = 
REMARK  6 active torsions:
REMARK  status: ('A' for Active; 'I' for Inactive)
REMARK    1  A    between atoms: C_2  and  C_3
REMARK    2  A    between atoms: C_3  and  C_4
REMARK    3  A    between atoms: C_4  and  N_5
REMARK    4  A    between atoms: N_10  and  C_11
REMARK    5  A    between atoms: C_15  and  C_16
REMARK    6  A    between atoms: N_18  and  C_19
REMARK                            x       y       z     vdW  Elec       q    Type
REMARK                         _______ _______ _______ _____ _____    ______ ____
ROOT
ATOM      1  C   UNL     1       2.086   7.085  20.003  0.00  0.00    +0.000 A 
ATOM      2  C   UNL     1       2.258   7.195  18.625  0.00  0.00    +0.000 A 
ATOM      3  C   UNL     1       1.947   8.385  17.963  0.00  0.00    +0.000 A 
ATOM      4  C   UNL     1       1.454   9.488  18.665  0.00  0.00    +0.000 A 
ATOM      5  C   UNL     1       1.267   9.408  20.049  0.00  0.00    +0.000 A 
ATOM      6  C   UNL     1       1.592   8.199  20.706  0.00  0.00    +0.000 A 
ENDROOT
BRANCH   1   9
ATOM      7  O   UNL     1       0.608   4.495  20.120  0.00  0.00    +0.000 OA
ATOM      8  C   UNL     1       1.632   4.715  20.748  0.00  0.00    +0.000 C 
ATOM      9  N   UNL     1       2.373   5.891  20.735  0.00  0.00    +0.000 N 
ATOM     10  H   UNL     1       3.225   5.916  21.283  0.00  0.00    +0.000 HD
BRANCH   8  11
ATOM     11  C   UNL     1       2.203   3.663  21.696  0.00  0.00    +0.000 C 
BRANCH  11  12
ATOM     12  C   UNL     1       3.340   2.885  21.032  0.00  0.00    +0.000 C 
BRANCH  12  13
ATOM     13  N   UNL     1       3.194   2.790  19.587  0.00  0.00    +0.000 N 
ATOM     14  C   UNL     1       2.379   1.926  18.908  0.00  0.00    +0.000 A 
ATOM     15  C   UNL     1       2.629   2.173  17.577  0.00  0.00    +0.000 A 
ATOM     16  N   UNL     1       3.571   3.158  17.434  0.00  0.00    +0.000 NA
ATOM     17  C   UNL     1       3.907   3.496  18.659  0.00  0.00    +0.000 A 
ENDBRANCH  12  13
ENDBRANCH  11  12
ENDBRANCH   8  11
ENDBRANCH   1   9
BRANCH   5  18
ATOM     18  C   UNL     1       0.733  10.562  20.866  0.00  0.00    +0.000 C 
ATOM     19  O   UNL     1       1.517  11.396  21.306  0.00  0.00    +0.000 OA
ATOM     20  N   UNL     1      -0.633  10.637  21.080  0.00  0.00    +0.000 N 
ATOM     21  H   UNL     1      -1.227  10.099  20.477  0.00  0.00    +0.000 HD
BRANCH  20  22
ATOM     22  C   UNL     1      -1.274  11.789  21.692  0.00  0.00    +0.000 C 
ATOM     23  C   UNL     1      -1.925  11.550  23.076  0.00  0.00    +0.000 C 
ATOM     24  C   UNL     1      -2.858  12.756  23.257  0.00  0.00    +0.000 C 
ATOM     25  C   UNL     1      -3.453  12.760  21.883  0.00  0.00    +0.000 A 
ATOM     26  C   UNL     1      -4.760  13.048  21.528  0.00  0.00    +0.000 A 
ATOM     27  C   UNL     1      -5.153  12.776  20.219  0.00  0.00    +0.000 A 
ATOM     28  C   UNL     1      -4.223  12.311  19.274  0.00  0.00    +0.000 A 
ATOM     29  C   UNL     1      -2.892  12.071  19.631  0.00  0.00    +0.000 A 
ATOM     30  C   UNL     1      -2.527  12.240  20.956  0.00  0.00    +0.000 A 
ENDBRANCH  20  22
ENDBRANCH   5  18
TORSDOF 6
ENDMDL
MODEL 8
REMARK VINA RESULT:      -7.4      2.051      2.793
REMARK  Name = 
REMARK  6 active torsions:
REMARK  status: ('A' for Active; 'I' for Inactive)
REMARK    1  A    between atoms: C_2  and  C_3
REMARK    2  A    between atoms: C_3  and  C_4
REMARK    3  A    between atoms: C_4  and  N_5
REMARK    4  A    between atoms: N_10  and  C_11
REMARK    5  A    between atoms: C_15  and  C_16
REMARK    6  A    between atoms: N_18  and  C_19
REMARK                            x       y       z     vdW  Elec       q    Type
REMARK                         _______ _______ _______ _____ _____    ______ ____
ROOT
ATOM      1  C   UNL     1       3.124   5.554  18.584  0.00  0.00    +0.000 A 
ATOM      2  C   UNL     1       2.800   4.385  19.267  0.00  0.00    +0.000 A 
ATOM      3  C   UNL     1       2.025   4.431  20.428  0.00  0.00    +0.000 A 
ATOM      4  C   UNL     1       1.560   5.649  20.931  0.00  0.00    +0.000 A 
ATOM      5  C   UNL     1       1.871   6.842  20.269  0.00  0.00    +0.000 A 
ATOM      6  C   UNL     1       2.652   6.779  19.093  0.00  0.00    +0.000 A 
ENDROOT
BRANCH   1   9
ATOM      7  O   UNL     1       4.379   3.308  17.071  0.00  0.00    +0.000 OA
ATOM      8  C   UNL     1       4.486   4.482  16.748  0.00  0.00    +0.000 C 
ATOM      9  N   UNL     1       3.924   5.573  17.400  0.00  0.00    +0.000 N 
ATOM     10  H   UNL     1       4.070   6.490  16.993  0.00  0.00    +0.000 HD
BRANCH   8  11
ATOM     11  C   UNL     1       5.336   4.881  15.543  0.00  0.00    +0.000 C 
BRANCH  11  12
ATOM     12  C   UNL     1       6.823   4.657  15.822  0.00  0.00    +0.000 C 
BRANCH  12  13
ATOM     13  N   UNL     1       7.291   5.361  17.006  0.00  0.00    +0.000 N 
ATOM     14  C   UNL     1       7.632   4.797  18.205  0.00  0.00    +0.000 A 
ATOM     15  C   UNL     1       7.952   5.859  19.019  0.00  0.00    +0.000 A 
ATOM     16  N   UNL     1       7.810   7.046  18.349  0.00  0.00    +0.000 NA
ATOM     17  C   UNL     1       7.394   6.717  17.146  0.00  0.00    +0.000 A 
ENDBRANCH  12  13
ENDBRANCH  11  12
ENDBRANCH   8  11
ENDBRANCH   1   9
BRANCH   5  18
ATOM     18  C   UNL     1       1.404   8.193  20.764  0.00  0.00    +0.000 C 
ATOM     19  O   UNL     1       1.783   8.590  21.860  0.00  0.00    +0.000 OA
ATOM     20  N   UNL     1       0.569   8.936  19.948  0.00  0.00    +0.000 N 
ATOM     21  H   UNL     1       0.526   8.688  18.977  0.00  0.00    +0.000 HD
BRANCH  20  22
ATOM     22  C   UNL     1       0.206  10.314  20.236  0.00  0.00    +0.000 C 
ATOM     23  C   UNL     1      -0.505  10.561  21.589  0.00  0.00    +0.000 C 
ATOM     24  C   UNL     1      -1.131  11.954  21.426  0.00  0.00    +0.000 C 
ATOM     25  C   UNL     1      -1.686  11.767  20.048  0.00  0.00    +0.000 A 
ATOM     26  C   UNL     1      -2.883  12.248  19.546  0.00  0.00    +0.000 A 
ATOM     27  C   UNL     1      -3.307  11.770  18.307  0.00  0.00    +0.000 A 
ATOM     28  C   UNL     1      -2.497  10.899  17.560  0.00  0.00    +0.000 A 
ATOM     29  C   UNL     1      -1.266  10.457  18.055  0.00  0.00    +0.000 A 
ATOM     30  C   UNL     1      -0.894  10.848  19.331  0.00  0.00    +0.000 A 
ENDBRANCH  20  22
ENDBRANCH   5  18
TORSDOF 6
ENDMDL
MODEL 9
REMARK VINA RESULT:      -7.3      2.205      2.931
REMARK  Name = 
REMARK  6 active torsions:
REMARK  status: ('A' for Active; 'I' for Inactive)
REMARK    1  A    between atoms: C_2  and  C_3
REMARK    2  A    between atoms: C_3  and  C_4
REMARK    3  A    between atoms: C_4  and  N_5
REMARK    4  A    between atoms: N_10  and  C_11
REMARK    5  A    between atoms: C_15  and  C_16
REMARK    6  A    between atoms: N_18  and  C_19
REMARK                            x       y       z     vdW  Elec       q    Type
REMARK                         _______ _______ _______ _____ _____    ______ ____
ROOT
ATOM      1  C   UNL     1       2.440   6.497  19.148  0.00  0.00    +0.000 A 
ATOM      2  C   UNL     1       1.901   6.276  20.412  0.00  0.00    +0.000 A 
ATOM      3  C   UNL     1       1.259   7.308  21.101  0.00  0.00    +0.000 A 
ATOM      4  C   UNL     1       1.147   8.583  20.541  0.00  0.00    +0.000 A 
ATOM      5  C   UNL     1       1.682   8.837  19.273  0.00  0.00    +0.000 A 
ATOM      6  C   UNL     1       2.324   7.782  18.586  0.00  0.00    +0.000 A 
ENDROOT
BRANCH   1   9
ATOM      7  O   UNL     1       1.350   4.272  17.483  0.00  0.00    +0.000 OA
ATOM      8  C   UNL     1       2.545   4.469  17.646  0.00  0.00    +0.000 C 
ATOM      9  N   UNL     1       3.120   5.486  18.399  0.00  0.00    +0.000 N 
ATOM     10  H   UNL     1       4.132   5.546  18.413  0.00  0.00    +0.000 HD
BRANCH   8  11
ATOM     11  C   UNL     1       3.578   3.529  17.029  0.00  0.00    +0.000 C 
BRANCH  11  12
ATOM     12  C   UNL     1       4.989   3.869  17.513  0.00  0.00    +0.000 C 
BRANCH  12  13
ATOM     13  N   UNL     1       5.840   4.394  16.456  0.00  0.00    +0.000 N 
ATOM     14  C   UNL     1       5.908   3.942  15.167  0.00  0.00    +0.000 A 
ATOM     15  C   UNL     1       6.885   4.707  14.572  0.00  0.00    +0.000 A 
ATOM     16  N   UNL     1       7.411   5.604  15.465  0.00  0.00    +0.000 NA
ATOM     17  C   UNL     1       6.777   5.380  16.594  0.00  0.00    +0.000 A 
ENDBRANCH  12  13
ENDBRANCH  11  12
ENDBRANCH   8  11
ENDBRANCH   1   9
BRANCH   5  18
ATOM     18  C   UNL     1       1.601  10.195  18.612  0.00  0.00    +0.000 C 
ATOM     19  O   UNL     1       1.964  10.314  17.447  0.00  0.00    +0.000 OA
ATOM     20  N   UNL     1       1.108  11.255  19.352  0.00  0.00    +0.000 N 
ATOM     21  H   UNL     1       0.581  11.040  20.178  0.00  0.00    +0.000 HD
BRANCH  20  22
ATOM     22  C   UNL     1       0.815  12.555  18.771  0.00  0.00    +0.000 C 
ATOM     23  C   UNL     1       1.825  13.685  19.091  0.00  0.00    +0.000 C 
ATOM     24  C   UNL     1       1.062  14.970  18.736  0.00  0.00    +0.000 C 
ATOM     25  C   UNL     1      -0.245  14.613  19.376  0.00  0.00    +0.000 A 
ATOM     26  C   UNL     1      -1.112  15.454  20.052  0.00  0.00    +0.000 A 
ATOM     27  C   UNL     1      -2.162  14.872  20.759  0.00  0.00    +0.000 A 
ATOM     28  C   UNL     1      -2.378  13.485  20.707  0.00  0.00    +0.000 A 
ATOM     29  C   UNL     1      -1.525  12.649  19.980  0.00  0.00    +0.000 A 
ATOM     30  C   UNL     1      -0.420  13.216  19.364  0.00  0.00    +0.000 A 
ENDBRANCH  20  22
ENDBRANCH   5  18
TORSDOF 6
ENDMDL
