MODEL 1
REMARK VINA RESULT:      -9.0      0.000      0.000
REMARK  Name = 
REMARK  5 active torsions:
REMARK  status: ('A' for Active; 'I' for Inactive)
REMARK    1  A    between atoms: C_1  and  C_2
REMARK    2  A    between atoms: C_7  and  C_8
REMARK    3  A    between atoms: C_10  and  N_11
REMARK    4  A    between atoms: C_12  and  C_14
REMARK    5  A    between atoms: C_18  and  N_19
REMARK                            x       y       z     vdW  Elec       q    Type
REMARK                         _______ _______ _______ _____ _____    ______ ____
ROOT
ATOM      1  N   UNL     1       7.507   7.906  17.409  0.00  0.00    +0.000 N 
ATOM      2  C   UNL     1       7.482   6.595  18.016  0.00  0.00    +0.000 C 
ATOM      3  O   UNL     1       8.135   6.346  19.014  0.00  0.00    +0.000 OA
ATOM      4  H   UNL     1       6.968   8.018  16.555  0.00  0.00    +0.000 HD
ENDROOT
BRANCH   1   7
ATOM      5  C   UNL     1       9.208  10.960  18.357  0.00  0.00    +0.000 A 
ATOM      6  C   UNL     1       8.377  10.254  17.439  0.00  0.00    +0.000 A 
ATOM      7  C   UNL     1       8.200   8.989  17.953  0.00  0.00    +0.000 A 
ATOM      8  N   UNL     1       8.884   9.009  19.141  0.00  0.00    +0.000 N 
ATOM      9  N   UNL     1       9.532  10.164  19.388  0.00  0.00    +0.000 NA
ATOM     10  H   UNL     1       8.968   8.271  19.828  0.00  0.00    +0.000 HD
BRANCH   5  17
ATOM     11  C   UNL     1       8.407  15.927  18.519  0.00  0.00    +0.000 C 
ATOM     12  C   UNL     1       9.331  14.755  18.320  0.00  0.00    +0.000 A 
ATOM     13  C   UNL     1      10.697  14.975  18.082  0.00  0.00    +0.000 A 
ATOM     14  C   UNL     1      11.553  13.894  17.907  0.00  0.00    +0.000 A 
ATOM     15  C   UNL     1      11.054  12.593  17.984  0.00  0.00    +0.000 A 
ATOM     16  F   UNL     1      11.919  11.582  17.806  0.00  0.00    +0.000 F 
ATOM     17  C   UNL     1       9.698  12.339  18.228  0.00  0.00    +0.000 A 
ATOM     18  C   UNL     1       8.838  13.441  18.379  0.00  0.00    +0.000 A 
ENDBRANCH   5  17
ENDBRANCH   1   7
BRANCH   2  19
ATOM     19  C   UNL     1       6.623   5.561  17.355  0.00  0.00    +0.000 A 
ATOM     20  C   UNL     1       6.978   5.131  16.078  0.00  0.00    +0.000 A 
ATOM     21  C   UNL     1       6.178   4.188  15.447  0.00  0.00    +0.000 A 
ATOM     22  C   UNL     1       5.051   3.710  16.104  0.00  0.00    +0.000 A 
ATOM     23  C   UNL     1       4.758   4.183  17.386  0.00  0.00    +0.000 A 
ATOM     24  N   UNL     1       5.533   5.108  18.042  0.00  0.00    +0.000 NA
BRANCH  23  25
ATOM     25  N   UNL     1       3.534   3.751  17.988  0.00  0.00    +0.000 N 
ATOM     26  C   UNL     1       2.331   4.420  17.962  0.00  0.00    +0.000 A 
ATOM     27  C   UNL     1       1.363   3.482  18.236  0.00  0.00    +0.000 A 
ATOM     28  C   UNL     1       2.080   2.344  18.642  0.00  0.00    +0.000 A 
ATOM     29  N   UNL     1       3.401   2.523  18.559  0.00  0.00    +0.000 NA
ENDBRANCH  23  25
ENDBRANCH   2  19
TORSDOF 4
ENDMDL
MODEL 2
REMARK VINA RESULT:      -8.8      0.832      1.017
REMARK  Name = 
REMARK  5 active torsions:
REMARK  status: ('A' for Active; 'I' for Inactive)
REMARK    1  A    between atoms: C_1  and  C_2
REMARK    2  A    between atoms: C_7  and  C_8
REMARK    3  A    between atoms: C_10  and  N_11
REMARK    4  A    between atoms: C_12  and  C_14
REMARK    5  A    between atoms: C_18  and  N_19
REMARK                            x       y       z     vdW  Elec       q    Type
REMARK                         _______ _______ _______ _____ _____    ______ ____
ROOT
ATOM      1  N   UNL     1       7.568   8.068  17.357  0.00  0.00    +0.000 N 
ATOM      2  C   UNL     1       7.491   6.736  17.911  0.00  0.00    +0.000 C 
ATOM      3  O   UNL     1       8.066   6.444  18.944  0.00  0.00    +0.000 OA
ATOM      4  H   UNL     1       7.094   8.216  16.471  0.00  0.00    +0.000 HD
ENDROOT
BRANCH   1   7
ATOM      5  C   UNL     1       9.118  11.102  18.586  0.00  0.00    +0.000 A 
ATOM      6  C   UNL     1       8.266  10.456  17.645  0.00  0.00    +0.000 A 
ATOM      7  C   UNL     1       8.225   9.125  17.992  0.00  0.00    +0.000 A 
ATOM      8  N   UNL     1       9.003   9.045  19.117  0.00  0.00    +0.000 N 
ATOM      9  N   UNL     1       9.585  10.207  19.472  0.00  0.00    +0.000 NA
ATOM     10  H   UNL     1       9.198   8.232  19.689  0.00  0.00    +0.000 HD
BRANCH   5  17
ATOM     11  C   UNL     1       8.610  15.735  20.485  0.00  0.00    +0.000 C 
ATOM     12  C   UNL     1       9.274  14.775  19.535  0.00  0.00    +0.000 A 
ATOM     13  C   UNL     1      10.321  15.219  18.712  0.00  0.00    +0.000 A 
ATOM     14  C   UNL     1      10.941  14.331  17.840  0.00  0.00    +0.000 A 
ATOM     15  C   UNL     1      10.531  12.998  17.798  0.00  0.00    +0.000 A 
ATOM     16  F   UNL     1      11.159  12.180  16.939  0.00  0.00    +0.000 F 
ATOM     17  C   UNL     1       9.495  12.521  18.612  0.00  0.00    +0.000 A 
ATOM     18  C   UNL     1       8.859  13.435  19.472  0.00  0.00    +0.000 A 
ENDBRANCH   5  17
ENDBRANCH   1   7
BRANCH   2  19
ATOM     19  C   UNL     1       6.677   5.735  17.149  0.00  0.00    +0.000 A 
ATOM     20  C   UNL     1       7.207   5.220  15.967  0.00  0.00    +0.000 A 
ATOM     21  C   UNL     1       6.454   4.306  15.242  0.00  0.00    +0.000 A 
ATOM     22  C   UNL     1       5.199   3.940  15.714  0.00  0.00    +0.000 A 
ATOM     23  C   UNL     1       4.732   4.494  16.910  0.00  0.00    +0.000 A 
ATOM     24  N   UNL     1       5.456   5.392  17.656  0.00  0.00    +0.000 NA
BRANCH  23  25
ATOM     25  N   UNL     1       3.395   4.177  17.309  0.00  0.00    +0.000 N 
ATOM     26  C   UNL     1       2.838   2.919  17.369  0.00  0.00    +0.000 A 
ATOM     27  C   UNL     1       1.751   3.019  18.205  0.00  0.00    +0.000 A 
ATOM     28  C   UNL     1       1.592   4.400  18.411  0.00  0.00    +0.000 A 
ATOM     29  N   UNL     1       2.548   5.115  17.812  0.00  0.00    +0.000 NA
ENDBRANCH  23  25
ENDBRANCH   2  19
TORSDOF 4
ENDMDL
MODEL 3
REMARK VINA RESULT:      -8.8      2.072      3.387
REMARK  Name = 
REMARK  5 active torsions:
REMARK  status: ('A' for Active; 'I' for Inactive)
REMARK    1  A    between atoms: C_1  and  C_2
REMARK    2  A    between atoms: C_7  and  C_8
REMARK    3  A    between atoms: C_10  and  N_11
REMARK    4  A    between atoms: C_12  and  C_14
REMARK    5  A    between atoms: C_18  and  N_19
REMARK                            x       y       z     vdW  Elec       q    Type
REMARK                         _______ _______ _______ _____ _____    ______ ____
ROOT
ATOM      1  N   UNL     1       7.804   8.403  17.452  0.00  0.00    +0.000 N 
ATOM      2  C   UNL     1       7.592   7.081  17.995  0.00  0.00    +0.000 C 
ATOM      3  O   UNL     1       8.086   6.745  19.057  0.00  0.00    +0.000 OA
ATOM      4  H   UNL     1       7.392   8.587  16.542  0.00  0.00    +0.000 HD
ENDROOT
BRANCH   1   7
ATOM      5  C   UNL     1       9.594  11.274  18.743  0.00  0.00    +0.000 A 
ATOM      6  C   UNL     1       8.821  10.677  17.706  0.00  0.00    +0.000 A 
ATOM      7  C   UNL     1       8.506   9.404  18.125  0.00  0.00    +0.000 A 
ATOM      8  N   UNL     1       9.059   9.315  19.377  0.00  0.00    +0.000 N 
ATOM      9  N   UNL     1       9.753  10.406  19.755  0.00  0.00    +0.000 NA
ATOM     10  H   UNL     1       9.019   8.539  20.026  0.00  0.00    +0.000 HD
BRANCH   5  17
ATOM     11  C   UNL     1       9.242  16.216  17.858  0.00  0.00    +0.000 C 
ATOM     12  C   UNL     1      10.027  15.025  18.337  0.00  0.00    +0.000 A 
ATOM     13  C   UNL     1      11.316  15.202  18.864  0.00  0.00    +0.000 A 
ATOM     14  C   UNL     1      12.038  14.104  19.315  0.00  0.00    +0.000 A 
ATOM     15  C   UNL     1      11.474  12.829  19.257  0.00  0.00    +0.000 A 
ATOM     16  F   UNL     1      12.211  11.800  19.702  0.00  0.00    +0.000 F 
ATOM     17  C   UNL     1      10.187  12.618  18.745  0.00  0.00    +0.000 A 
ATOM     18  C   UNL     1       9.475  13.734  18.269  0.00  0.00    +0.000 A 
ENDBRANCH   5  17
ENDBRANCH   1   7
BRANCH   2  19
ATOM     19  C   UNL     1       6.745   6.146  17.187  0.00  0.00    +0.000 A 
ATOM     20  C   UNL     1       5.605   5.610  17.783  0.00  0.00    +0.000 A 
ATOM     21  C   UNL     1       4.823   4.727  17.051  0.00  0.00    +0.000 A 
ATOM     22  C   UNL     1       5.203   4.404  15.754  0.00  0.00    +0.000 A 
ATOM     23  C   UNL     1       6.357   4.984  15.218  0.00  0.00    +0.000 A 
ATOM     24  N   UNL     1       7.147   5.868  15.912  0.00  0.00    +0.000 NA
BRANCH  23  25
ATOM     25  N   UNL     1       6.777   4.547  13.921  0.00  0.00    +0.000 N 
ATOM     26  C   UNL     1       6.244   3.501  13.202  0.00  0.00    +0.000 A 
ATOM     27  C   UNL     1       6.601   3.714  11.891  0.00  0.00    +0.000 A 
ATOM     28  C   UNL     1       7.531   4.766  11.946  0.00  0.00    +0.000 A 
ATOM     29  N   UNL     1       7.695   5.231  13.188  0.00  0.00    +0.000 NA
ENDBRANCH  23  25
ENDBRANCH   2  19
TORSDOF 4
ENDMDL
MODEL 4
REMARK VINA RESULT:      -8.8      2.112      3.417
REMARK  Name = 
REMARK  5 active torsions:
REMARK  status: ('A' for Active; 'I' for Inactive)
REMARK    1  A    between atoms: C_1  and  C_2
REMARK    2  A    between atoms: C_7  and  C_8
REMARK    3  A    between atoms: C_10  and  N_11
REMARK    4  A    between atoms: C_12  and  C_14
REMARK    5  A    between atoms: C_18  and  N_19
REMARK                            x       y       z     vdW  Elec       q    Type
REMARK                         _______ _______ _______ _____ _____    ______ ____
ROOT
ATOM      1  N   UNL     1       7.738   8.424  17.465  0.00  0.00    +0.000 N 
ATOM      2  C   UNL     1       7.656   7.077  17.981  0.00  0.00    +0.000 C 
ATOM      3  O   UNL     1       8.241   6.751  18.999  0.00  0.00    +0.000 OA
ATOM      4  H   UNL     1       7.255   8.601  16.589  0.00  0.00    +0.000 HD
ENDROOT
BRANCH   1   7
ATOM      5  C   UNL     1       9.362  11.399  18.743  0.00  0.00    +0.000 A 
ATOM      6  C   UNL     1       8.526  10.782  17.768  0.00  0.00    +0.000 A 
ATOM      7  C   UNL     1       8.411   9.456  18.121  0.00  0.00    +0.000 A 
ATOM      8  N   UNL     1       9.134   9.353  19.282  0.00  0.00    +0.000 N 
ATOM      9  N   UNL     1       9.749  10.492  19.655  0.00  0.00    +0.000 NA
ATOM     10  H   UNL     1       9.267   8.538  19.867  0.00  0.00    +0.000 HD
BRANCH   5  17
ATOM     11  C   UNL     1       9.457  15.905  20.982  0.00  0.00    +0.000 C 
ATOM     12  C   UNL     1       9.870  14.992  19.860  0.00  0.00    +0.000 A 
ATOM     13  C   UNL     1      10.747  15.457  18.867  0.00  0.00    +0.000 A 
ATOM     14  C   UNL     1      11.137  14.613  17.834  0.00  0.00    +0.000 A 
ATOM     15  C   UNL     1      10.668  13.299  17.796  0.00  0.00    +0.000 A 
ATOM     16  F   UNL     1      11.071  12.522  16.779  0.00  0.00    +0.000 F 
ATOM     17  C   UNL     1       9.799  12.800  18.776  0.00  0.00    +0.000 A 
ATOM     18  C   UNL     1       9.392  13.672  19.802  0.00  0.00    +0.000 A 
ENDBRANCH   5  17
ENDBRANCH   1   7
BRANCH   2  19
ATOM     19  C   UNL     1       6.825   6.104  17.201  0.00  0.00    +0.000 A 
ATOM     20  C   UNL     1       5.751   5.493  17.845  0.00  0.00    +0.000 A 
ATOM     21  C   UNL     1       4.985   4.576  17.139  0.00  0.00    +0.000 A 
ATOM     22  C   UNL     1       5.317   4.292  15.820  0.00  0.00    +0.000 A 
ATOM     23  C   UNL     1       6.407   4.946  15.236  0.00  0.00    +0.000 A 
ATOM     24  N   UNL     1       7.178   5.867  15.904  0.00  0.00    +0.000 NA
BRANCH  23  25
ATOM     25  N   UNL     1       6.785   4.552  13.913  0.00  0.00    +0.000 N 
ATOM     26  C   UNL     1       6.213   3.545  13.168  0.00  0.00    +0.000 A 
ATOM     27  C   UNL     1       6.541   3.803  11.858  0.00  0.00    +0.000 A 
ATOM     28  C   UNL     1       7.494   4.832  11.930  0.00  0.00    +0.000 A 
ATOM     29  N   UNL     1       7.698   5.246  13.183  0.00  0.00    +0.000 NA
ENDBRANCH  23  25
ENDBRANCH   2  19
TORSDOF 4
ENDMDL
MODEL 5
REMARK VINA RESULT:      -8.7      1.181      1.535
REMARK  Name = 
REMARK  5 active torsions:
REMARK  status: ('A' for Active; 'I' for Inactive)
REMARK    1  A    between atoms: C_1  and  C_2
REMARK    2  A    between atoms: C_7  and  C_8
REMARK    3  A    between atoms: C_10  and  N_11
REMARK    4  A    between atoms: C_12  and  C_14
REMARK    5  A    between atoms: C_18  and  N_19
REMARK                            x       y       z     vdW  Elec       q    Type
REMARK                         _______ _______ _______ _____ _____    ______ ____
ROOT
ATOM      1  N   UNL     1       7.605   8.222  17.423  0.00  0.00    +0.000 N 
ATOM      2  C   UNL     1       7.552   6.872  17.935  0.00  0.00    +0.000 C 
ATOM      3  O   UNL     1       8.157   6.550  18.942  0.00  0.00    +0.000 OA
ATOM      4  H   UNL     1       7.107   8.395  16.555  0.00  0.00    +0.000 HD
ENDROOT
BRANCH   1   7
ATOM      5  C   UNL     1       9.166  11.226  18.710  0.00  0.00    +0.000 A 
ATOM      6  C   UNL     1       8.291  10.605  17.773  0.00  0.00    +0.000 A 
ATOM      7  C   UNL     1       8.272   9.262  18.074  0.00  0.00    +0.000 A 
ATOM      8  N   UNL     1       9.085   9.151  19.172  0.00  0.00    +0.000 N 
ATOM      9  N   UNL     1       9.668  10.305  19.549  0.00  0.00    +0.000 NA
ATOM     10  H   UNL     1       9.304   8.321  19.709  0.00  0.00    +0.000 HD
BRANCH   5  17
ATOM     11  C   UNL     1      11.366  15.276  16.688  0.00  0.00    +0.000 C 
ATOM     12  C   UNL     1      10.580  14.630  17.797  0.00  0.00    +0.000 A 
ATOM     13  C   UNL     1      10.122  15.405  18.873  0.00  0.00    +0.000 A 
ATOM     14  C   UNL     1       9.389  14.811  19.894  0.00  0.00    +0.000 A 
ATOM     15  C   UNL     1       9.097  13.448  19.837  0.00  0.00    +0.000 A 
ATOM     16  F   UNL     1       8.388  12.920  20.847  0.00  0.00    +0.000 F 
ATOM     17  C   UNL     1       9.532  12.647  18.773  0.00  0.00    +0.000 A 
ATOM     18  C   UNL     1      10.294  13.255  17.759  0.00  0.00    +0.000 A 
ENDBRANCH   5  17
ENDBRANCH   1   7
BRANCH   2  19
ATOM     19  C   UNL     1       6.724   5.889  17.163  0.00  0.00    +0.000 A 
ATOM     20  C   UNL     1       7.088   5.616  15.846  0.00  0.00    +0.000 A 
ATOM     21  C   UNL     1       6.318   4.722  15.114  0.00  0.00    +0.000 A 
ATOM     22  C   UNL     1       5.209   4.137  15.714  0.00  0.00    +0.000 A 
ATOM     23  C   UNL     1       4.906   4.455  17.041  0.00  0.00    +0.000 A 
ATOM     24  N   UNL     1       5.653   5.327  17.796  0.00  0.00    +0.000 NA
BRANCH  23  25
ATOM     25  N   UNL     1       3.699   3.918  17.591  0.00  0.00    +0.000 N 
ATOM     26  C   UNL     1       2.554   4.623  17.889  0.00  0.00    +0.000 A 
ATOM     27  C   UNL     1       1.538   3.698  17.948  0.00  0.00    +0.000 A 
ATOM     28  C   UNL     1       2.190   2.455  17.908  0.00  0.00    +0.000 A 
ATOM     29  N   UNL     1       3.512   2.582  17.761  0.00  0.00    +0.000 NA
ENDBRANCH  23  25
ENDBRANCH   2  19
TORSDOF 4
ENDMDL
MODEL 6
REMARK VINA RESULT:      -8.7      1.137      1.575
REMARK  Name = 
REMARK  5 active torsions:
REMARK  status: ('A' for Active; 'I' for Inactive)
REMARK    1  A    between atoms: C_1  and  C_2
REMARK    2  A    between atoms: C_7  and  C_8
REMARK    3  A    between atoms: C_10  and  N_11
REMARK    4  A    between atoms: C_12  and  C_14
REMARK    5  A    between atoms: C_18  and  N_19
REMARK                            x       y       z     vdW  Elec       q    Type
REMARK                         _______ _______ _______ _____ _____    ______ ____
ROOT
ATOM      1  N   UNL     1       7.632   8.069  17.436  0.00  0.00    +0.000 N 
ATOM      2  C   UNL     1       7.619   6.741  18.006  0.00  0.00    +0.000 C 
ATOM      3  O   UNL     1       8.224   6.485  19.032  0.00  0.00    +0.000 OA
ATOM      4  H   UNL     1       7.136   8.187  16.558  0.00  0.00    +0.000 HD
ENDROOT
BRANCH   1   7
ATOM      5  C   UNL     1       9.097  11.173  18.593  0.00  0.00    +0.000 A 
ATOM      6  C   UNL     1       8.269  10.480  17.663  0.00  0.00    +0.000 A 
ATOM      7  C   UNL     1       8.257   9.158  18.046  0.00  0.00    +0.000 A 
ATOM      8  N   UNL     1       9.029   9.129  19.179  0.00  0.00    +0.000 N 
ATOM      9  N   UNL     1       9.579  10.314  19.506  0.00  0.00    +0.000 NA
ATOM     10  H   UNL     1       9.239   8.337  19.774  0.00  0.00    +0.000 HD
BRANCH   5  17
ATOM     11  C   UNL     1      12.324  14.911  19.564  0.00  0.00    +0.000 C 
ATOM     12  C   UNL     1      11.003  14.428  19.031  0.00  0.00    +0.000 A 
ATOM     13  C   UNL     1      10.111  15.339  18.444  0.00  0.00    +0.000 A 
ATOM     14  C   UNL     1       8.893  14.893  17.944  0.00  0.00    +0.000 A 
ATOM     15  C   UNL     1       8.568  13.538  18.011  0.00  0.00    +0.000 A 
ATOM     16  F   UNL     1       7.381  13.156  17.516  0.00  0.00    +0.000 F 
ATOM     17  C   UNL     1       9.439  12.601  18.582  0.00  0.00    +0.000 A 
ATOM     18  C   UNL     1      10.658  13.068  19.108  0.00  0.00    +0.000 A 
ENDBRANCH   5  17
ENDBRANCH   1   7
BRANCH   2  19
ATOM     19  C   UNL     1       6.832   5.699  17.272  0.00  0.00    +0.000 A 
ATOM     20  C   UNL     1       7.238   5.356  15.983  0.00  0.00    +0.000 A 
ATOM     21  C   UNL     1       6.506   4.406  15.285  0.00  0.00    +0.000 A 
ATOM     22  C   UNL     1       5.391   3.835  15.888  0.00  0.00    +0.000 A 
ATOM     23  C   UNL     1       5.044   4.224  17.185  0.00  0.00    +0.000 A 
ATOM     24  N   UNL     1       5.753   5.153  17.907  0.00  0.00    +0.000 NA
BRANCH  23  25
ATOM     25  N   UNL     1       3.832   3.696  17.733  0.00  0.00    +0.000 N 
ATOM     26  C   UNL     1       2.761   4.427  18.197  0.00  0.00    +0.000 A 
ATOM     27  C   UNL     1       1.683   3.573  18.194  0.00  0.00    +0.000 A 
ATOM     28  C   UNL     1       2.237   2.307  17.942  0.00  0.00    +0.000 A 
ATOM     29  N   UNL     1       3.554   2.365  17.729  0.00  0.00    +0.000 NA
ENDBRANCH  23  25
ENDBRANCH   2  19
TORSDOF 4
ENDMDL
MODEL 7
REMARK VINA RESULT:      -8.7      6.443      9.327
REMARK  Name = 
REMARK  5 active torsions:
REMARK  status: ('A' for Active; 'I' for Inactive)
REMARK    1  A    between atoms: C_1  and  C_2
REMARK    2  A    between atoms: C_7  and  C_8
REMARK    3  A    between atoms: C_10  and  N_11
REMARK    4  A    between atoms: C_12  and  C_14
REMARK    5  A    between atoms: C_18  and  N_19
REMARK                            x       y       z     vdW  Elec       q    Type
REMARK                         _______ _______ _______ _____ _____    ______ ____
ROOT
ATOM      1  N   UNL     1       1.464   8.704  18.884  0.00  0.00    +0.000 N 
ATOM      2  C   UNL     1       0.953   9.274  20.110  0.00  0.00    +0.000 C 
ATOM      3  O   UNL     1       1.275   8.832  21.198  0.00  0.00    +0.000 OA
ATOM      4  H   UNL     1       1.112   9.104  18.020  0.00  0.00    +0.000 HD
ENDROOT
BRANCH   1   7
ATOM      5  C   UNL     1       4.046   6.227  18.320  0.00  0.00    +0.000 A 
ATOM      6  C   UNL     1       3.382   7.420  17.912  0.00  0.00    +0.000 A 
ATOM      7  C   UNL     1       2.411   7.678  18.853  0.00  0.00    +0.000 A 
ATOM      8  N   UNL     1       2.561   6.676  19.776  0.00  0.00    +0.000 N 
ATOM      9  N   UNL     1       3.505   5.768  19.461  0.00  0.00    +0.000 NA
ATOM     10  H   UNL     1       2.047   6.535  20.637  0.00  0.00    +0.000 HD
BRANCH   5  17
ATOM     11  C   UNL     1       5.935   4.112  14.162  0.00  0.00    +0.000 C 
ATOM     12  C   UNL     1       6.077   4.522  15.603  0.00  0.00    +0.000 A 
ATOM     13  C   UNL     1       7.293   4.312  16.272  0.00  0.00    +0.000 A 
ATOM     14  C   UNL     1       7.429   4.697  17.601  0.00  0.00    +0.000 A 
ATOM     15  C   UNL     1       6.361   5.306  18.261  0.00  0.00    +0.000 A 
ATOM     16  F   UNL     1       6.539   5.658  19.544  0.00  0.00    +0.000 F 
ATOM     17  C   UNL     1       5.137   5.537  17.620  0.00  0.00    +0.000 A 
ATOM     18  C   UNL     1       5.003   5.120  16.283  0.00  0.00    +0.000 A 
ENDBRANCH   5  17
ENDBRANCH   1   7
BRANCH   2  19
ATOM     19  C   UNL     1       0.004  10.426  19.974  0.00  0.00    +0.000 A 
ATOM     20  C   UNL     1       0.053  11.433  20.936  0.00  0.00    +0.000 A 
ATOM     21  C   UNL     1      -0.834  12.497  20.832  0.00  0.00    +0.000 A 
ATOM     22  C   UNL     1      -1.742  12.519  19.780  0.00  0.00    +0.000 A 
ATOM     23  C   UNL     1      -1.731  11.476  18.849  0.00  0.00    +0.000 A 
ATOM     24  N   UNL     1      -0.860  10.415  18.917  0.00  0.00    +0.000 NA
BRANCH  23  25
ATOM     25  N   UNL     1      -2.748  11.477  17.842  0.00  0.00    +0.000 N 
ATOM     26  C   UNL     1      -2.588  11.120  16.522  0.00  0.00    +0.000 A 
ATOM     27  C   UNL     1      -3.845  10.827  16.048  0.00  0.00    +0.000 A 
ATOM     28  C   UNL     1      -4.714  11.256  17.066  0.00  0.00    +0.000 A 
ATOM     29  N   UNL     1      -4.055  11.716  18.132  0.00  0.00    +0.000 NA
ENDBRANCH  23  25
ENDBRANCH   2  19
TORSDOF 4
ENDMDL
MODEL 8
REMARK VINA RESULT:      -8.6      2.287      3.652
REMARK  Name = 
REMARK  5 active torsions:
REMARK  status: ('A' for Active; 'I' for Inactive)
REMARK    1  A    between atoms: C_1  and  C_2
REMARK    2  A    between atoms: C_7  and  C_8
REMARK    3  A    between atoms: C_10  and  N_11
REMARK    4  A    between atoms: C_12  and  C_14
REMARK    5  A    between atoms: C_18  and  N_19
REMARK                            x       y       z     vdW  Elec       q    Type
REMARK                         _______ _______ _______ _____ _____    ______ ____
ROOT
ATOM      1  N   UNL     1       7.737   8.370  17.456  0.00  0.00    +0.000 N 
ATOM      2  C   UNL     1       7.675   7.038  18.013  0.00  0.00    +0.000 C 
ATOM      3  O   UNL     1       8.239   6.760  19.057  0.00  0.00    +0.000 OA
ATOM      4  H   UNL     1       7.276   8.506  16.562  0.00  0.00    +0.000 HD
ENDROOT
BRANCH   1   7
ATOM      5  C   UNL     1       9.188  11.442  18.714  0.00  0.00    +0.000 A 
ATOM      6  C   UNL     1       8.342  10.779  17.778  0.00  0.00    +0.000 A 
ATOM      7  C   UNL     1       8.364   9.440  18.098  0.00  0.00    +0.000 A 
ATOM      8  N   UNL     1       9.171   9.371  19.204  0.00  0.00    +0.000 N 
ATOM      9  N   UNL     1       9.713  10.549  19.569  0.00  0.00    +0.000 NA
ATOM     10  H   UNL     1       9.413   8.556  19.753  0.00  0.00    +0.000 HD
BRANCH   5  17
ATOM     11  C   UNL     1      11.262  15.536  16.649  0.00  0.00    +0.000 C 
ATOM     12  C   UNL     1      10.493  14.878  17.763  0.00  0.00    +0.000 A 
ATOM     13  C   UNL     1      10.004  15.652  18.827  0.00  0.00    +0.000 A 
ATOM     14  C   UNL     1       9.286  15.047  19.852  0.00  0.00    +0.000 A 
ATOM     15  C   UNL     1       9.040  13.675  19.812  0.00  0.00    +0.000 A 
ATOM     16  F   UNL     1       8.344  13.136  20.825  0.00  0.00    +0.000 F 
ATOM     17  C   UNL     1       9.506  12.875  18.760  0.00  0.00    +0.000 A 
ATOM     18  C   UNL     1      10.253  13.494  17.741  0.00  0.00    +0.000 A 
ENDBRANCH   5  17
ENDBRANCH   1   7
BRANCH   2  19
ATOM     19  C   UNL     1       6.893   6.020  17.242  0.00  0.00    +0.000 A 
ATOM     20  C   UNL     1       5.891   5.317  17.910  0.00  0.00    +0.000 A 
ATOM     21  C   UNL     1       5.172   4.357  17.211  0.00  0.00    +0.000 A 
ATOM     22  C   UNL     1       5.477   4.124  15.875  0.00  0.00    +0.000 A 
ATOM     23  C   UNL     1       6.492   4.870  15.268  0.00  0.00    +0.000 A 
ATOM     24  N   UNL     1       7.215   5.833  15.928  0.00  0.00    +0.000 NA
BRANCH  23  25
ATOM     25  N   UNL     1       6.851   4.529  13.926  0.00  0.00    +0.000 N 
ATOM     26  C   UNL     1       6.306   3.517  13.167  0.00  0.00    +0.000 A 
ATOM     27  C   UNL     1       6.586   3.825  11.857  0.00  0.00    +0.000 A 
ATOM     28  C   UNL     1       7.491   4.897  11.932  0.00  0.00    +0.000 A 
ATOM     29  N   UNL     1       7.710   5.286  13.191  0.00  0.00    +0.000 NA
ENDBRANCH  23  25
ENDBRANCH   2  19
TORSDOF 4
ENDMDL
MODEL 9
REMARK VINA RESULT:      -8.6      2.781      9.836
REMARK  Name = 
REMARK  5 active torsions:
REMARK  status: ('A' for Active; 'I' for Inactive)
REMARK    1  A    between atoms: C_1  and  C_2
REMARK    2  A    between atoms: C_7  and  C_8
REMARK    3  A    between atoms: C_10  and  N_11
REMARK    4  A    between atoms: C_12  and  C_14
REMARK    5  A    between atoms: C_18  and  N_19
REMARK                            x       y       z     vdW  Elec       q    Type
REMARK                         _______ _______ _______ _____ _____    ______ ____
ROOT
ATOM      1  N   UNL     1       8.455   9.471  17.712  0.00  0.00    +0.000 N 
ATOM      2  C   UNL     1       9.118  10.312  18.682  0.00  0.00    +0.000 C 
ATOM      3  O   UNL     1       9.255   9.960  19.840  0.00  0.00    +0.000 OA
ATOM      4  H   UNL     1       8.345   9.858  16.780  0.00  0.00    +0.000 HD
ENDROOT
BRANCH   1   7
ATOM      5  C   UNL     1       6.871   6.241  18.136  0.00  0.00    +0.000 A 
ATOM      6  C   UNL     1       6.937   7.495  17.462  0.00  0.00    +0.000 A 
ATOM      7  C   UNL     1       8.002   8.182  18.000  0.00  0.00    +0.000 A 
ATOM      8  N   UNL     1       8.532   7.315  18.920  0.00  0.00    +0.000 N 
ATOM      9  N   UNL     1       7.850   6.161  19.053  0.00  0.00    +0.000 NA
ATOM     10  H   UNL     1       9.348   7.445  19.507  0.00  0.00    +0.000 HD
BRANCH   5  17
ATOM     11  C   UNL     1       3.631   2.856  19.973  0.00  0.00    +0.000 C 
ATOM     12  C   UNL     1       4.290   3.538  18.804  0.00  0.00    +0.000 A 
ATOM     13  C   UNL     1       3.906   3.208  17.495  0.00  0.00    +0.000 A 
ATOM     14  C   UNL     1       4.508   3.842  16.415  0.00  0.00    +0.000 A 
ATOM     15  C   UNL     1       5.482   4.816  16.635  0.00  0.00    +0.000 A 
ATOM     16  F   UNL     1       6.036   5.399  15.561  0.00  0.00    +0.000 F 
ATOM     17  C   UNL     1       5.883   5.175  17.929  0.00  0.00    +0.000 A 
ATOM     18  C   UNL     1       5.284   4.509  19.014  0.00  0.00    +0.000 A 
ENDBRANCH   5  17
ENDBRANCH   1   7
BRANCH   2  19
ATOM     19  C   UNL     1       9.621  11.637  18.194  0.00  0.00    +0.000 A 
ATOM     20  C   UNL     1      10.936  11.714  17.740  0.00  0.00    +0.000 A 
ATOM     21  C   UNL     1      11.419  12.940  17.304  0.00  0.00    +0.000 A 
ATOM     22  C   UNL     1      10.581  14.048  17.341  0.00  0.00    +0.000 A 
ATOM     23  C   UNL     1       9.271  13.897  17.806  0.00  0.00    +0.000 A 
ATOM     24  N   UNL     1       8.759  12.696  18.234  0.00  0.00    +0.000 NA
BRANCH  23  25
ATOM     25  N   UNL     1       8.472  15.077  17.930  0.00  0.00    +0.000 N 
ATOM     26  C   UNL     1       7.126  15.124  18.218  0.00  0.00    +0.000 A 
ATOM     27  C   UNL     1       6.876  16.393  18.685  0.00  0.00    +0.000 A 
ATOM     28  C   UNL     1       8.061  17.103  18.426  0.00  0.00    +0.000 A 
ATOM     29  N   UNL     1       9.012  16.325  17.903  0.00  0.00    +0.000 NA
ENDBRANCH  23  25
ENDBRANCH   2  19
TORSDOF 4
ENDMDL
