MODEL 1
REMARK VINA RESULT:      -8.5      0.000      0.000
REMARK  Name = 
REMARK  9 active torsions:
REMARK  status: ('A' for Active; 'I' for Inactive)
REMARK    1  A    between atoms: C_1  and  N_2
REMARK    2  A    between atoms: C_6  and  C_7
REMARK    3  A    between atoms: C_7  and  C_8
REMARK    4  A    between atoms: C_8  and  C_9
REMARK    5  A    between atoms: C_13  and  N_14
REMARK    6  A    between atoms: C_15  and  C_17
REMARK    7  A    between atoms: C_22  and  C_23
REMARK    8  A    between atoms: C_23  and  C_24
REMARK    9  A    between atoms: C_23  and  C_25
REMARK                            x       y       z     vdW  Elec       q    Type
REMARK                         _______ _______ _______ _____ _____    ______ ____
ROOT
ATOM      1  C   UNL     1       5.072   5.167  17.761  0.00  0.00    +0.000 A 
ATOM      2  C   UNL     1       5.741   4.227  16.948  0.00  0.00    +0.000 A 
ATOM      3  C   UNL     1       6.910   4.549  16.267  0.00  0.00    +0.000 A 
ATOM      4  C   UNL     1       7.433   5.833  16.366  0.00  0.00    +0.000 A 
ATOM      5  C   UNL     1       6.791   6.805  17.135  0.00  0.00    +0.000 A 
ATOM      6  C   UNL     1       5.651   6.450  17.857  0.00  0.00    +0.000 A 
ENDROOT
BRANCH   1   7
ATOM      7  C   UNL     1       3.702   4.806  18.508  0.00  0.00    +0.000 C 
ATOM      8  C   UNL     1       3.283   5.690  19.717  0.00  0.00    +0.000 C 
ATOM      9  O   UNL     1       2.063   6.106  19.070  0.00  0.00    +0.000 OA
ATOM     10  C   UNL     1       2.414   5.397  17.869  0.00  0.00    +0.000 C 
BRANCH   7  11
ATOM     11  C   UNL     1       3.594   3.283  18.726  0.00  0.00    +0.000 C 
BRANCH  11  17
ATOM     12  C   UNL     1       0.525   2.636  19.181  0.00  0.00    +0.000 C 
ATOM     13  N   UNL     1       1.569   2.662  20.170  0.00  0.00    +0.000 N 
ATOM     14  C   UNL     1       1.388   2.439  21.502  0.00  0.00    +0.000 A 
ATOM     15  N   UNL     1       2.542   2.506  22.118  0.00  0.00    +0.000 NA
ATOM     16  N   UNL     1       3.498   2.799  21.178  0.00  0.00    +0.000 NA
ATOM     17  C   UNL     1       2.911   2.906  20.002  0.00  0.00    +0.000 A 
ENDBRANCH  11  17
ENDBRANCH   7  11
ENDBRANCH   1   7
BRANCH   5  18
ATOM     18  N   UNL     1       7.216   8.151  17.196  0.00  0.00    +0.000 N 
ATOM     19  C   UNL     1       8.137   8.625  18.100  0.00  0.00    +0.000 C 
ATOM     20  O   UNL     1       8.724   7.953  18.942  0.00  0.00    +0.000 OA
ATOM     21  H   UNL     1       6.954   8.747  16.418  0.00  0.00    +0.000 HD
BRANCH  19  22
ATOM     22  C   UNL     1       8.491  10.066  18.046  0.00  0.00    +0.000 A 
ATOM     23  C   UNL     1       7.820  11.014  17.279  0.00  0.00    +0.000 A 
ATOM     24  C   UNL     1       8.106  12.362  17.486  0.00  0.00    +0.000 A 
ATOM     25  F   UNL     1       7.444  13.285  16.776  0.00  0.00    +0.000 F 
ATOM     26  C   UNL     1       9.016  12.778  18.460  0.00  0.00    +0.000 A 
ATOM     27  C   UNL     1       9.695  11.833  19.235  0.00  0.00    +0.000 A 
ATOM     28  C   UNL     1       9.464  10.479  18.969  0.00  0.00    +0.000 A 
BRANCH  27  29
ATOM     29  C   UNL     1      10.567  12.234  20.413  0.00  0.00    +0.000 C 
ATOM     30  C   UNL     1      11.064  13.677  20.240  0.00  0.00    +0.000 C 
ATOM     31  C   UNL     1       9.819  12.083  21.737  0.00  0.00    +0.000 C 
ATOM     32  F   UNL     1      11.685  11.447  20.501  0.00  0.00    +0.000 F 
ENDBRANCH  27  29
ENDBRANCH  19  22
ENDBRANCH   5  18
TORSDOF 6
ENDMDL
MODEL 2
REMARK VINA RESULT:      -8.3      4.579      7.555
REMARK  Name = 
REMARK  9 active torsions:
REMARK  status: ('A' for Active; 'I' for Inactive)
REMARK    1  A    between atoms: C_1  and  N_2
REMARK    2  A    between atoms: C_6  and  C_7
REMARK    3  A    between atoms: C_7  and  C_8
REMARK    4  A    between atoms: C_8  and  C_9
REMARK    5  A    between atoms: C_13  and  N_14
REMARK    6  A    between atoms: C_15  and  C_17
REMARK    7  A    between atoms: C_22  and  C_23
REMARK    8  A    between atoms: C_23  and  C_24
REMARK    9  A    between atoms: C_23  and  C_25
REMARK                            x       y       z     vdW  Elec       q    Type
REMARK                         _______ _______ _______ _____ _____    ______ ____
ROOT
ATOM      1  C   UNL     1       5.447   5.038  18.827  0.00  0.00    +0.000 A 
ATOM      2  C   UNL     1       5.132   3.677  19.025  0.00  0.00    +0.000 A 
ATOM      3  C   UNL     1       3.938   3.280  19.616  0.00  0.00    +0.000 A 
ATOM      4  C   UNL     1       3.030   4.240  20.046  0.00  0.00    +0.000 A 
ATOM      5  C   UNL     1       3.309   5.600  19.898  0.00  0.00    +0.000 A 
ATOM      6  C   UNL     1       4.486   5.981  19.252  0.00  0.00    +0.000 A 
ENDROOT
BRANCH   1   7
ATOM      7  C   UNL     1       6.843   5.493  18.187  0.00  0.00    +0.000 C 
ATOM      8  C   UNL     1       6.957   6.955  17.665  0.00  0.00    +0.000 C 
ATOM      9  O   UNL     1       8.022   7.267  18.587  0.00  0.00    +0.000 OA
ATOM     10  C   UNL     1       7.921   5.969  19.200  0.00  0.00    +0.000 C 
BRANCH   7  11
ATOM     11  C   UNL     1       7.380   4.402  17.238  0.00  0.00    +0.000 C 
BRANCH  11  17
ATOM     12  C   UNL     1       4.719   3.458  15.798  0.00  0.00    +0.000 C 
ATOM     13  N   UNL     1       5.833   4.152  15.209  0.00  0.00    +0.000 N 
ATOM     14  C   UNL     1       5.935   4.489  13.893  0.00  0.00    +0.000 A 
ATOM     15  N   UNL     1       7.056   5.136  13.692  0.00  0.00    +0.000 NA
ATOM     16  N   UNL     1       7.716   5.207  14.894  0.00  0.00    +0.000 NA
ATOM     17  C   UNL     1       6.984   4.602  15.810  0.00  0.00    +0.000 A 
ENDBRANCH  11  17
ENDBRANCH   7  11
ENDBRANCH   1   7
BRANCH   5  18
ATOM     18  N   UNL     1       2.475   6.622  20.403  0.00  0.00    +0.000 N 
ATOM     19  C   UNL     1       2.046   7.699  19.662  0.00  0.00    +0.000 C 
ATOM     20  O   UNL     1       2.301   7.899  18.478  0.00  0.00    +0.000 OA
ATOM     21  H   UNL     1       2.037   6.451  21.301  0.00  0.00    +0.000 HD
BRANCH  19  22
ATOM     22  C   UNL     1       1.169   8.697  20.324  0.00  0.00    +0.000 A 
ATOM     23  C   UNL     1       0.855   8.694  21.679  0.00  0.00    +0.000 A 
ATOM     24  C   UNL     1       0.208   9.805  22.216  0.00  0.00    +0.000 A 
ATOM     25  F   UNL     1      -0.071   9.826  23.526  0.00  0.00    +0.000 F 
ATOM     26  C   UNL     1      -0.097  10.924  21.438  0.00  0.00    +0.000 A 
ATOM     27  C   UNL     1       0.216  10.936  20.075  0.00  0.00    +0.000 A 
ATOM     28  C   UNL     1       0.791   9.787  19.524  0.00  0.00    +0.000 A 
BRANCH  27  29
ATOM     29  C   UNL     1       0.056  12.185  19.223  0.00  0.00    +0.000 C 
ATOM     30  C   UNL     1      -0.606  13.305  20.040  0.00  0.00    +0.000 C 
ATOM     31  C   UNL     1       1.399  12.654  18.666  0.00  0.00    +0.000 C 
ATOM     32  F   UNL     1      -0.759  11.957  18.147  0.00  0.00    +0.000 F 
ENDBRANCH  27  29
ENDBRANCH  19  22
ENDBRANCH   5  18
TORSDOF 6
ENDMDL
MODEL 3
REMARK VINA RESULT:      -8.3      6.077      9.419
REMARK  Name = 
REMARK  9 active torsions:
REMARK  status: ('A' for Active; 'I' for Inactive)
REMARK    1  A    between atoms: C_1  and  N_2
REMARK    2  A    between atoms: C_6  and  C_7
REMARK    3  A    between atoms: C_7  and  C_8
REMARK    4  A    between atoms: C_8  and  C_9
REMARK    5  A    between atoms: C_13  and  N_14
REMARK    6  A    between atoms: C_15  and  C_17
REMARK    7  A    between atoms: C_22  and  C_23
REMARK    8  A    between atoms: C_23  and  C_24
REMARK    9  A    between atoms: C_23  and  C_25
REMARK                            x       y       z     vdW  Elec       q    Type
REMARK                         _______ _______ _______ _____ _____    ______ ____
ROOT
ATOM      1  C   UNL     1       0.207  10.395  20.196  0.00  0.00    +0.000 A 
ATOM      2  C   UNL     1      -0.045  10.237  21.575  0.00  0.00    +0.000 A 
ATOM      3  C   UNL     1       0.491   9.179  22.301  0.00  0.00    +0.000 A 
ATOM      4  C   UNL     1       1.284   8.236  21.659  0.00  0.00    +0.000 A 
ATOM      5  C   UNL     1       1.539   8.334  20.290  0.00  0.00    +0.000 A 
ATOM      6  C   UNL     1       1.040   9.431  19.588  0.00  0.00    +0.000 A 
ENDROOT
BRANCH   1   7
ATOM      7  C   UNL     1      -0.450  11.588  19.353  0.00  0.00    +0.000 C 
ATOM      8  C   UNL     1      -1.410  11.208  18.189  0.00  0.00    +0.000 C 
ATOM      9  O   UNL     1      -2.521  11.897  18.798  0.00  0.00    +0.000 OA
ATOM     10  C   UNL     1      -1.737  12.210  19.963  0.00  0.00    +0.000 C 
BRANCH   7  11
ATOM     11  C   UNL     1       0.610  12.659  19.022  0.00  0.00    +0.000 C 
BRANCH  11  17
ATOM     12  C   UNL     1      -0.356  15.660  19.342  0.00  0.00    +0.000 C 
ATOM     13  N   UNL     1       0.475  14.908  20.244  0.00  0.00    +0.000 N 
ATOM     14  C   UNL     1       1.020  15.396  21.393  0.00  0.00    +0.000 A 
ATOM     15  N   UNL     1       1.696  14.449  21.995  0.00  0.00    +0.000 NA
ATOM     16  N   UNL     1       1.612  13.321  21.216  0.00  0.00    +0.000 NA
ATOM     17  C   UNL     1       0.885  13.600  20.151  0.00  0.00    +0.000 A 
ENDBRANCH  11  17
ENDBRANCH   7  11
ENDBRANCH   1   7
BRANCH   5  18
ATOM     18  N   UNL     1       2.251   7.355  19.562  0.00  0.00    +0.000 N 
ATOM     19  C   UNL     1       2.143   6.002  19.786  0.00  0.00    +0.000 C 
ATOM     20  O   UNL     1       1.409   5.470  20.614  0.00  0.00    +0.000 OA
ATOM     21  H   UNL     1       2.725   7.667  18.722  0.00  0.00    +0.000 HD
BRANCH  19  22
ATOM     22  C   UNL     1       2.952   5.087  18.940  0.00  0.00    +0.000 A 
ATOM     23  C   UNL     1       2.688   3.731  18.773  0.00  0.00    +0.000 A 
ATOM     24  C   UNL     1       3.382   3.035  17.785  0.00  0.00    +0.000 A 
ATOM     25  F   UNL     1       3.114   1.736  17.594  0.00  0.00    +0.000 F 
ATOM     26  C   UNL     1       4.299   3.671  16.945  0.00  0.00    +0.000 A 
ATOM     27  C   UNL     1       4.569   5.033  17.106  0.00  0.00    +0.000 A 
ATOM     28  C   UNL     1       3.931   5.709  18.151  0.00  0.00    +0.000 A 
BRANCH  27  29
ATOM     29  C   UNL     1       5.430   5.806  16.120  0.00  0.00    +0.000 C 
ATOM     30  C   UNL     1       6.755   6.217  16.779  0.00  0.00    +0.000 C 
ATOM     31  C   UNL     1       5.694   4.991  14.855  0.00  0.00    +0.000 C 
ATOM     32  F   UNL     1       4.819   6.965  15.722  0.00  0.00    +0.000 F 
ENDBRANCH  27  29
ENDBRANCH  19  22
ENDBRANCH   5  18
TORSDOF 6
ENDMDL
MODEL 4
REMARK VINA RESULT:      -8.3      6.115      8.894
REMARK  Name = 
REMARK  9 active torsions:
REMARK  status: ('A' for Active; 'I' for Inactive)
REMARK    1  A    between atoms: C_1  and  N_2
REMARK    2  A    between atoms: C_6  and  C_7
REMARK    3  A    between atoms: C_7  and  C_8
REMARK    4  A    between atoms: C_8  and  C_9
REMARK    5  A    between atoms: C_13  and  N_14
REMARK    6  A    between atoms: C_15  and  C_17
REMARK    7  A    between atoms: C_22  and  C_23
REMARK    8  A    between atoms: C_23  and  C_24
REMARK    9  A    between atoms: C_23  and  C_25
REMARK                            x       y       z     vdW  Elec       q    Type
REMARK                         _______ _______ _______ _____ _____    ______ ____
ROOT
ATOM      1  C   UNL     1      -0.251  10.200  20.335  0.00  0.00    +0.000 A 
ATOM      2  C   UNL     1      -0.082  10.498  21.703  0.00  0.00    +0.000 A 
ATOM      3  C   UNL     1       0.788   9.772  22.509  0.00  0.00    +0.000 A 
ATOM      4  C   UNL     1       1.503   8.710  21.967  0.00  0.00    +0.000 A 
ATOM      5  C   UNL     1       1.348   8.360  20.625  0.00  0.00    +0.000 A 
ATOM      6  C   UNL     1       0.514   9.133  19.817  0.00  0.00    +0.000 A 
ENDROOT
BRANCH   1   7
ATOM      7  C   UNL     1      -1.288  11.010  19.421  0.00  0.00    +0.000 C 
ATOM      8  C   UNL     1      -1.836  12.358  19.970  0.00  0.00    +0.000 C 
ATOM      9  O   UNL     1      -1.283  13.104  18.866  0.00  0.00    +0.000 OA
ATOM     10  C   UNL     1      -0.654  11.924  18.336  0.00  0.00    +0.000 C 
BRANCH   7  11
ATOM     11  C   UNL     1      -2.343  10.053  18.828  0.00  0.00    +0.000 C 
BRANCH  11  17
ATOM     12  C   UNL     1      -4.746  11.797  17.720  0.00  0.00    +0.000 C 
ATOM     13  N   UNL     1      -3.757  11.085  16.955  0.00  0.00    +0.000 N 
ATOM     14  C   UNL     1      -3.719  11.020  15.595  0.00  0.00    +0.000 A 
ATOM     15  N   UNL     1      -2.679  10.319  15.218  0.00  0.00    +0.000 NA
ATOM     16  N   UNL     1      -2.030   9.897  16.351  0.00  0.00    +0.000 NA
ATOM     17  C   UNL     1      -2.687  10.348  17.403  0.00  0.00    +0.000 A 
ENDBRANCH  11  17
ENDBRANCH   7  11
ENDBRANCH   1   7
BRANCH   5  18
ATOM     18  N   UNL     1       1.968   7.232  20.042  0.00  0.00    +0.000 N 
ATOM     19  C   UNL     1       2.539   7.232  18.790  0.00  0.00    +0.000 C 
ATOM     20  O   UNL     1       2.610   8.198  18.037  0.00  0.00    +0.000 OA
ATOM     21  H   UNL     1       2.150   6.444  20.654  0.00  0.00    +0.000 HD
BRANCH  19  22
ATOM     22  C   UNL     1       3.158   5.972  18.305  0.00  0.00    +0.000 A 
ATOM     23  C   UNL     1       2.449   4.819  17.984  0.00  0.00    +0.000 A 
ATOM     24  C   UNL     1       3.119   3.786  17.332  0.00  0.00    +0.000 A 
ATOM     25  F   UNL     1       2.439   2.683  16.990  0.00  0.00    +0.000 F 
ATOM     26  C   UNL     1       4.462   3.896  16.967  0.00  0.00    +0.000 A 
ATOM     27  C   UNL     1       5.182   5.052  17.285  0.00  0.00    +0.000 A 
ATOM     28  C   UNL     1       4.528   6.053  18.011  0.00  0.00    +0.000 A 
BRANCH  27  29
ATOM     29  C   UNL     1       6.592   5.290  16.770  0.00  0.00    +0.000 C 
ATOM     30  C   UNL     1       7.620   4.659  17.722  0.00  0.00    +0.000 C 
ATOM     31  C   UNL     1       6.767   4.740  15.355  0.00  0.00    +0.000 C 
ATOM     32  F   UNL     1       6.886   6.626  16.712  0.00  0.00    +0.000 F 
ENDBRANCH  27  29
ENDBRANCH  19  22
ENDBRANCH   5  18
TORSDOF 6
ENDMDL
MODEL 5
REMARK VINA RESULT:      -8.2      4.554      7.102
REMARK  Name = 
REMARK  9 active torsions:
REMARK  status: ('A' for Active; 'I' for Inactive)
REMARK    1  A    between atoms: C_1  and  N_2
REMARK    2  A    between atoms: C_6  and  C_7
REMARK    3  A    between atoms: C_7  and  C_8
REMARK    4  A    between atoms: C_8  and  C_9
REMARK    5  A    between atoms: C_13  and  N_14
REMARK    6  A    between atoms: C_15  and  C_17
REMARK    7  A    between atoms: C_22  and  C_23
REMARK    8  A    between atoms: C_23  and  C_24
REMARK    9  A    between atoms: C_23  and  C_25
REMARK                            x       y       z     vdW  Elec       q    Type
REMARK                         _______ _______ _______ _____ _____    ______ ____
ROOT
ATOM      1  C   UNL     1       5.267   5.811  17.984  0.00  0.00    +0.000 A 
ATOM      2  C   UNL     1       4.628   4.623  18.398  0.00  0.00    +0.000 A 
ATOM      3  C   UNL     1       3.249   4.552  18.562  0.00  0.00    +0.000 A 
ATOM      4  C   UNL     1       2.469   5.680  18.332  0.00  0.00    +0.000 A 
ATOM      5  C   UNL     1       3.059   6.886  17.948  0.00  0.00    +0.000 A 
ATOM      6  C   UNL     1       4.437   6.925  17.734  0.00  0.00    +0.000 A 
ENDROOT
BRANCH   1   7
ATOM      7  C   UNL     1       6.859   5.901  17.840  0.00  0.00    +0.000 C 
ATOM      8  C   UNL     1       7.472   7.273  17.435  0.00  0.00    +0.000 C 
ATOM      9  O   UNL     1       8.229   7.367  18.659  0.00  0.00    +0.000 OA
ATOM     10  C   UNL     1       7.638   6.156  19.161  0.00  0.00    +0.000 C 
BRANCH   7  11
ATOM     11  C   UNL     1       7.400   4.676  17.075  0.00  0.00    +0.000 C 
BRANCH  11  17
ATOM     12  C   UNL     1       5.241   3.011  15.461  0.00  0.00    +0.000 C 
ATOM     13  N   UNL     1       6.192   3.953  14.934  0.00  0.00    +0.000 N 
ATOM     14  C   UNL     1       6.339   4.258  13.614  0.00  0.00    +0.000 A 
ATOM     15  N   UNL     1       7.268   5.170  13.476  0.00  0.00    +0.000 NA
ATOM     16  N   UNL     1       7.758   5.456  14.726  0.00  0.00    +0.000 NA
ATOM     17  C   UNL     1       7.118   4.713  15.607  0.00  0.00    +0.000 A 
ENDBRANCH  11  17
ENDBRANCH   7  11
ENDBRANCH   1   7
BRANCH   5  18
ATOM     18  N   UNL     1       2.335   8.090  17.798  0.00  0.00    +0.000 N 
ATOM     19  C   UNL     1       1.706   8.742  18.833  0.00  0.00    +0.000 C 
ATOM     20  O   UNL     1       1.711   8.388  20.009  0.00  0.00    +0.000 OA
ATOM     21  H   UNL     1       2.441   8.578  16.915  0.00  0.00    +0.000 HD
BRANCH  19  22
ATOM     22  C   UNL     1       0.983  10.002  18.528  0.00  0.00    +0.000 A 
ATOM     23  C   UNL     1      -0.383  10.085  18.280  0.00  0.00    +0.000 A 
ATOM     24  C   UNL     1      -0.975  11.346  18.228  0.00  0.00    +0.000 A 
ATOM     25  F   UNL     1      -2.295  11.437  18.020  0.00  0.00    +0.000 F 
ATOM     26  C   UNL     1      -0.240  12.512  18.454  0.00  0.00    +0.000 A 
ATOM     27  C   UNL     1       1.133  12.437  18.705  0.00  0.00    +0.000 A 
ATOM     28  C   UNL     1       1.738  11.176  18.676  0.00  0.00    +0.000 A 
BRANCH  27  29
ATOM     29  C   UNL     1       1.944  13.655  19.118  0.00  0.00    +0.000 C 
ATOM     30  C   UNL     1       2.255  13.603  20.621  0.00  0.00    +0.000 C 
ATOM     31  C   UNL     1       3.236  13.763  18.310  0.00  0.00    +0.000 C 
ATOM     32  F   UNL     1       1.248  14.816  18.906  0.00  0.00    +0.000 F 
ENDBRANCH  27  29
ENDBRANCH  19  22
ENDBRANCH   5  18
TORSDOF 6
ENDMDL
MODEL 6
REMARK VINA RESULT:      -8.2      6.379      8.979
REMARK  Name = 
REMARK  9 active torsions:
REMARK  status: ('A' for Active; 'I' for Inactive)
REMARK    1  A    between atoms: C_1  and  N_2
REMARK    2  A    between atoms: C_6  and  C_7
REMARK    3  A    between atoms: C_7  and  C_8
REMARK    4  A    between atoms: C_8  and  C_9
REMARK    5  A    between atoms: C_13  and  N_14
REMARK    6  A    between atoms: C_15  and  C_17
REMARK    7  A    between atoms: C_22  and  C_23
REMARK    8  A    between atoms: C_23  and  C_24
REMARK    9  A    between atoms: C_23  and  C_25
REMARK                            x       y       z     vdW  Elec       q    Type
REMARK                         _______ _______ _______ _____ _____    ______ ____
ROOT
ATOM      1  C   UNL     1       0.022  10.454  20.104  0.00  0.00    +0.000 A 
ATOM      2  C   UNL     1      -0.034  10.628  21.503  0.00  0.00    +0.000 A 
ATOM      3  C   UNL     1       0.595   9.747  22.376  0.00  0.00    +0.000 A 
ATOM      4  C   UNL     1       1.285   8.652  21.870  0.00  0.00    +0.000 A 
ATOM      5  C   UNL     1       1.345   8.422  20.495  0.00  0.00    +0.000 A 
ATOM      6  C   UNL     1       0.757   9.345  19.630  0.00  0.00    +0.000 A 
ENDROOT
BRANCH   1   7
ATOM      7  C   UNL     1      -0.742  11.444  19.103  0.00  0.00    +0.000 C 
ATOM      8  C   UNL     1      -1.547  12.621  19.726  0.00  0.00    +0.000 C 
ATOM      9  O   UNL     1      -0.742  13.611  19.053  0.00  0.00    +0.000 OA
ATOM     10  C   UNL     1       0.120  12.594  18.511  0.00  0.00    +0.000 C 
BRANCH   7  11
ATOM     11  C   UNL     1      -1.471  10.643  18.006  0.00  0.00    +0.000 C 
BRANCH  11  17
ATOM     12  C   UNL     1      -3.066  10.768  15.270  0.00  0.00    +0.000 C 
ATOM     13  N   UNL     1      -3.536  11.151  16.575  0.00  0.00    +0.000 N 
ATOM     14  C   UNL     1      -4.766  11.676  16.839  0.00  0.00    +0.000 A 
ATOM     15  N   UNL     1      -4.886  11.886  18.127  0.00  0.00    +0.000 NA
ATOM     16  N   UNL     1      -3.705  11.513  18.719  0.00  0.00    +0.000 NA
ATOM     17  C   UNL     1      -2.884  11.080  17.782  0.00  0.00    +0.000 A 
ENDBRANCH  11  17
ENDBRANCH   7  11
ENDBRANCH   1   7
BRANCH   5  18
ATOM     18  N   UNL     1       1.944   7.276  19.925  0.00  0.00    +0.000 N 
ATOM     19  C   UNL     1       2.647   7.285  18.743  0.00  0.00    +0.000 C 
ATOM     20  O   UNL     1       2.870   8.274  18.051  0.00  0.00    +0.000 OA
ATOM     21  H   UNL     1       2.001   6.452  20.513  0.00  0.00    +0.000 HD
BRANCH  19  22
ATOM     22  C   UNL     1       3.225   6.004  18.264  0.00  0.00    +0.000 A 
ATOM     23  C   UNL     1       2.477   4.879  17.930  0.00  0.00    +0.000 A 
ATOM     24  C   UNL     1       3.117   3.822  17.286  0.00  0.00    +0.000 A 
ATOM     25  F   UNL     1       2.401   2.747  16.931  0.00  0.00    +0.000 F 
ATOM     26  C   UNL     1       4.469   3.882  16.941  0.00  0.00    +0.000 A 
ATOM     27  C   UNL     1       5.227   5.009  17.273  0.00  0.00    +0.000 A 
ATOM     28  C   UNL     1       4.601   6.033  17.991  0.00  0.00    +0.000 A 
BRANCH  27  29
ATOM     29  C   UNL     1       6.653   5.194  16.779  0.00  0.00    +0.000 C 
ATOM     30  C   UNL     1       6.709   5.051  15.250  0.00  0.00    +0.000 C 
ATOM     31  C   UNL     1       7.220   6.545  17.209  0.00  0.00    +0.000 C 
ATOM     32  F   UNL     1       7.489   4.235  17.288  0.00  0.00    +0.000 F 
ENDBRANCH  27  29
ENDBRANCH  19  22
ENDBRANCH   5  18
TORSDOF 6
ENDMDL
MODEL 7
REMARK VINA RESULT:      -8.1      6.038      9.193
REMARK  Name = 
REMARK  9 active torsions:
REMARK  status: ('A' for Active; 'I' for Inactive)
REMARK    1  A    between atoms: C_1  and  N_2
REMARK    2  A    between atoms: C_6  and  C_7
REMARK    3  A    between atoms: C_7  and  C_8
REMARK    4  A    between atoms: C_8  and  C_9
REMARK    5  A    between atoms: C_13  and  N_14
REMARK    6  A    between atoms: C_15  and  C_17
REMARK    7  A    between atoms: C_22  and  C_23
REMARK    8  A    between atoms: C_23  and  C_24
REMARK    9  A    between atoms: C_23  and  C_25
REMARK                            x       y       z     vdW  Elec       q    Type
REMARK                         _______ _______ _______ _____ _____    ______ ____
ROOT
ATOM      1  C   UNL     1       0.108  10.381  20.280  0.00  0.00    +0.000 A 
ATOM      2  C   UNL     1      -0.301  10.268  21.626  0.00  0.00    +0.000 A 
ATOM      3  C   UNL     1       0.170   9.253  22.452  0.00  0.00    +0.000 A 
ATOM      4  C   UNL     1       1.053   8.308  21.945  0.00  0.00    +0.000 A 
ATOM      5  C   UNL     1       1.465   8.361  20.612  0.00  0.00    +0.000 A 
ATOM      6  C   UNL     1       1.027   9.417  19.812  0.00  0.00    +0.000 A 
ENDROOT
BRANCH   1   7
ATOM      7  C   UNL     1      -0.471  11.524  19.319  0.00  0.00    +0.000 C 
ATOM      8  C   UNL     1      -1.358  11.080  18.121  0.00  0.00    +0.000 C 
ATOM      9  O   UNL     1      -2.496  11.821  18.607  0.00  0.00    +0.000 OA
ATOM     10  C   UNL     1      -1.785  12.201  19.799  0.00  0.00    +0.000 C 
BRANCH   7  11
ATOM     11  C   UNL     1       0.626  12.557  18.991  0.00  0.00    +0.000 C 
BRANCH  11  17
ATOM     12  C   UNL     1      -0.337  15.564  19.265  0.00  0.00    +0.000 C 
ATOM     13  N   UNL     1       0.493  14.825  20.178  0.00  0.00    +0.000 N 
ATOM     14  C   UNL     1       1.038  15.330  21.321  0.00  0.00    +0.000 A 
ATOM     15  N   UNL     1       1.712  14.390  21.936  0.00  0.00    +0.000 NA
ATOM     16  N   UNL     1       1.627  13.252  21.175  0.00  0.00    +0.000 NA
ATOM     17  C   UNL     1       0.901  13.515  20.106  0.00  0.00    +0.000 A 
ENDBRANCH  11  17
ENDBRANCH   7  11
ENDBRANCH   1   7
BRANCH   5  18
ATOM     18  N   UNL     1       2.279   7.375  20.012  0.00  0.00    +0.000 N 
ATOM     19  C   UNL     1       2.069   6.021  20.144  0.00  0.00    +0.000 C 
ATOM     20  O   UNL     1       1.150   5.498  20.766  0.00  0.00    +0.000 OA
ATOM     21  H   UNL     1       2.938   7.693  19.310  0.00  0.00    +0.000 HD
BRANCH  19  22
ATOM     22  C   UNL     1       3.005   5.099  19.453  0.00  0.00    +0.000 A 
ATOM     23  C   UNL     1       2.617   3.952  18.767  0.00  0.00    +0.000 A 
ATOM     24  C   UNL     1       3.561   3.297  17.979  0.00  0.00    +0.000 A 
ATOM     25  F   UNL     1       3.191   2.209  17.289  0.00  0.00    +0.000 F 
ATOM     26  C   UNL     1       4.862   3.782  17.836  0.00  0.00    +0.000 A 
ATOM     27  C   UNL     1       5.260   4.934  18.521  0.00  0.00    +0.000 A 
ATOM     28  C   UNL     1       4.334   5.542  19.375  0.00  0.00    +0.000 A 
BRANCH  27  29
ATOM     29  C   UNL     1       6.608   5.593  18.274  0.00  0.00    +0.000 C 
ATOM     30  C   UNL     1       7.571   4.600  17.606  0.00  0.00    +0.000 C 
ATOM     31  C   UNL     1       6.463   6.851  17.420  0.00  0.00    +0.000 C 
ATOM     32  F   UNL     1       7.200   5.978  19.447  0.00  0.00    +0.000 F 
ENDBRANCH  27  29
ENDBRANCH  19  22
ENDBRANCH   5  18
TORSDOF 6
ENDMDL
MODEL 8
REMARK VINA RESULT:      -8.1      4.482      7.357
REMARK  Name = 
REMARK  9 active torsions:
REMARK  status: ('A' for Active; 'I' for Inactive)
REMARK    1  A    between atoms: C_1  and  N_2
REMARK    2  A    between atoms: C_6  and  C_7
REMARK    3  A    between atoms: C_7  and  C_8
REMARK    4  A    between atoms: C_8  and  C_9
REMARK    5  A    between atoms: C_13  and  N_14
REMARK    6  A    between atoms: C_15  and  C_17
REMARK    7  A    between atoms: C_22  and  C_23
REMARK    8  A    between atoms: C_23  and  C_24
REMARK    9  A    between atoms: C_23  and  C_25
REMARK                            x       y       z     vdW  Elec       q    Type
REMARK                         _______ _______ _______ _____ _____    ______ ____
ROOT
ATOM      1  C   UNL     1       5.404   5.094  18.776  0.00  0.00    +0.000 A 
ATOM      2  C   UNL     1       5.050   3.739  18.942  0.00  0.00    +0.000 A 
ATOM      3  C   UNL     1       3.844   3.364  19.524  0.00  0.00    +0.000 A 
ATOM      4  C   UNL     1       2.964   4.340  19.975  0.00  0.00    +0.000 A 
ATOM      5  C   UNL     1       3.283   5.694  19.858  0.00  0.00    +0.000 A 
ATOM      6  C   UNL     1       4.471   6.055  19.221  0.00  0.00    +0.000 A 
ENDROOT
BRANCH   1   7
ATOM      7  C   UNL     1       6.814   5.522  18.147  0.00  0.00    +0.000 C 
ATOM      8  C   UNL     1       6.957   6.979  17.617  0.00  0.00    +0.000 C 
ATOM      9  O   UNL     1       8.018   7.278  18.547  0.00  0.00    +0.000 OA
ATOM     10  C   UNL     1       7.890   5.986  19.167  0.00  0.00    +0.000 C 
BRANCH   7  11
ATOM     11  C   UNL     1       7.342   4.417  17.210  0.00  0.00    +0.000 C 
BRANCH  11  17
ATOM     12  C   UNL     1       4.730   3.448  15.699  0.00  0.00    +0.000 C 
ATOM     13  N   UNL     1       5.848   4.162  15.142  0.00  0.00    +0.000 N 
ATOM     14  C   UNL     1       5.977   4.512  13.832  0.00  0.00    +0.000 A 
ATOM     15  N   UNL     1       7.093   5.176  13.663  0.00  0.00    +0.000 NA
ATOM     16  N   UNL     1       7.722   5.246  14.880  0.00  0.00    +0.000 NA
ATOM     17  C   UNL     1       6.978   4.623  15.774  0.00  0.00    +0.000 A 
ENDBRANCH  11  17
ENDBRANCH   7  11
ENDBRANCH   1   7
BRANCH   5  18
ATOM     18  N   UNL     1       2.479   6.729  20.386  0.00  0.00    +0.000 N 
ATOM     19  C   UNL     1       1.973   7.766  19.637  0.00  0.00    +0.000 C 
ATOM     20  O   UNL     1       2.125   7.915  18.428  0.00  0.00    +0.000 OA
ATOM     21  H   UNL     1       2.120   6.594  21.325  0.00  0.00    +0.000 HD
BRANCH  19  22
ATOM     22  C   UNL     1       1.140   8.784  20.326  0.00  0.00    +0.000 A 
ATOM     23  C   UNL     1       0.465   8.569  21.523  0.00  0.00    +0.000 A 
ATOM     24  C   UNL     1      -0.096   9.665  22.177  0.00  0.00    +0.000 A 
ATOM     25  F   UNL     1      -0.722   9.475  23.346  0.00  0.00    +0.000 F 
ATOM     26  C   UNL     1       0.034  10.962  21.679  0.00  0.00    +0.000 A 
ATOM     27  C   UNL     1       0.711  11.187  20.476  0.00  0.00    +0.000 A 
ATOM     28  C   UNL     1       1.202  10.076  19.783  0.00  0.00    +0.000 A 
BRANCH  27  29
ATOM     29  C   UNL     1       1.022  12.589  19.977  0.00  0.00    +0.000 C 
ATOM     30  C   UNL     1       1.466  12.543  18.507  0.00  0.00    +0.000 C 
ATOM     31  C   UNL     1      -0.180  13.518  20.142  0.00  0.00    +0.000 C 
ATOM     32  F   UNL     1       2.056  13.153  20.677  0.00  0.00    +0.000 F 
ENDBRANCH  27  29
ENDBRANCH  19  22
ENDBRANCH   5  18
TORSDOF 6
ENDMDL
MODEL 9
REMARK VINA RESULT:      -8.0      7.659      9.922
REMARK  Name = 
REMARK  9 active torsions:
REMARK  status: ('A' for Active; 'I' for Inactive)
REMARK    1  A    between atoms: C_1  and  N_2
REMARK    2  A    between atoms: C_6  and  C_7
REMARK    3  A    between atoms: C_7  and  C_8
REMARK    4  A    between atoms: C_8  and  C_9
REMARK    5  A    between atoms: C_13  and  N_14
REMARK    6  A    between atoms: C_15  and  C_17
REMARK    7  A    between atoms: C_22  and  C_23
REMARK    8  A    between atoms: C_23  and  C_24
REMARK    9  A    between atoms: C_23  and  C_25
REMARK                            x       y       z     vdW  Elec       q    Type
REMARK                         _______ _______ _______ _____ _____    ______ ____
ROOT
ATOM      1  C   UNL     1      -1.197  12.161  19.920  0.00  0.00    +0.000 A 
ATOM      2  C   UNL     1      -1.956  12.307  18.740  0.00  0.00    +0.000 A 
ATOM      3  C   UNL     1      -1.912  11.363  17.719  0.00  0.00    +0.000 A 
ATOM      4  C   UNL     1      -1.090  10.250  17.847  0.00  0.00    +0.000 A 
ATOM      5  C   UNL     1      -0.300  10.076  18.984  0.00  0.00    +0.000 A 
ATOM      6  C   UNL     1      -0.397  11.003  20.022  0.00  0.00    +0.000 A 
ENDROOT
BRANCH   1   7
ATOM      7  C   UNL     1      -1.216  13.273  21.073  0.00  0.00    +0.000 C 
ATOM      8  C   UNL     1      -0.696  12.863  22.481  0.00  0.00    +0.000 C 
ATOM      9  O   UNL     1       0.357  13.848  22.449  0.00  0.00    +0.000 OA
ATOM     10  C   UNL     1       0.012  14.226  21.104  0.00  0.00    +0.000 C 
BRANCH   7  11
ATOM     11  C   UNL     1      -2.549  14.047  21.053  0.00  0.00    +0.000 C 
BRANCH  11  17
ATOM     12  C   UNL     1      -3.240  15.445  23.811  0.00  0.00    +0.000 C 
ATOM     13  N   UNL     1      -3.774  14.212  23.299  0.00  0.00    +0.000 N 
ATOM     14  C   UNL     1      -4.660  13.412  23.956  0.00  0.00    +0.000 A 
ATOM     15  N   UNL     1      -4.966  12.385  23.202  0.00  0.00    +0.000 NA
ATOM     16  N   UNL     1      -4.251  12.499  22.036  0.00  0.00    +0.000 NA
ATOM     17  C   UNL     1      -3.521  13.596  22.097  0.00  0.00    +0.000 A 
ENDBRANCH  11  17
ENDBRANCH   7  11
ENDBRANCH   1   7
BRANCH   5  18
ATOM     18  N   UNL     1       0.629   9.021  19.129  0.00  0.00    +0.000 N 
ATOM     19  C   UNL     1       1.735   8.857  18.327  0.00  0.00    +0.000 C 
ATOM     20  O   UNL     1       2.073   9.603  17.413  0.00  0.00    +0.000 OA
ATOM     21  H   UNL     1       0.563   8.469  19.977  0.00  0.00    +0.000 HD
BRANCH  19  22
ATOM     22  C   UNL     1       2.628   7.702  18.597  0.00  0.00    +0.000 A 
ATOM     23  C   UNL     1       2.428   6.772  19.613  0.00  0.00    +0.000 A 
ATOM     24  C   UNL     1       3.207   5.617  19.621  0.00  0.00    +0.000 A 
ATOM     25  F   UNL     1       3.002   4.700  20.576  0.00  0.00    +0.000 F 
ATOM     26  C   UNL     1       4.149   5.360  18.623  0.00  0.00    +0.000 A 
ATOM     27  C   UNL     1       4.356   6.288  17.599  0.00  0.00    +0.000 A 
ATOM     28  C   UNL     1       3.630   7.483  17.639  0.00  0.00    +0.000 A 
BRANCH  27  29
ATOM     29  C   UNL     1       5.246   5.985  16.404  0.00  0.00    +0.000 C 
ATOM     30  C   UNL     1       6.717   6.263  16.752  0.00  0.00    +0.000 C 
ATOM     31  C   UNL     1       5.074   4.541  15.935  0.00  0.00    +0.000 C 
ATOM     32  F   UNL     1       4.942   6.786  15.336  0.00  0.00    +0.000 F 
ENDBRANCH  27  29
ENDBRANCH  19  22
ENDBRANCH   5  18
TORSDOF 6
ENDMDL
