MODEL 1
REMARK VINA RESULT:      -9.0      0.000      0.000
REMARK  Name = 
REMARK  3 active torsions:
REMARK  status: ('A' for Active; 'I' for Inactive)
REMARK    1  A    between atoms: N_3  and  C_4
REMARK    2  A    between atoms: N_14  and  C_15
REMARK    3  A    between atoms: N_14  and  C_21
REMARK                            x       y       z     vdW  Elec       q    Type
REMARK                         _______ _______ _______ _____ _____    ______ ____
ROOT
ATOM      1  O   UNL     1       3.343   7.806  17.732  0.00  0.00    +0.000 OA
ATOM      2  C   UNL     1       3.043   6.850  18.451  0.00  0.00    +0.000 C 
ATOM      3  N   UNL     1       2.207   6.989  19.550  0.00  0.00    +0.000 N 
ATOM      4  N   UNL     1       3.603   5.574  18.259  0.00  0.00    +0.000 N 
ATOM      5  H   UNL     1       2.313   6.288  20.271  0.00  0.00    +0.000 HD
ENDROOT
BRANCH   3   6
ATOM      6  C   UNL     1       1.534   8.191  19.893  0.00  0.00    +0.000 A 
ATOM      7  C   UNL     1       1.500   9.323  19.083  0.00  0.00    +0.000 A 
ATOM      8  N   UNL     1       0.906  10.497  19.416  0.00  0.00    +0.000 NA
ATOM      9  C   UNL     1       0.315  10.583  20.612  0.00  0.00    +0.000 A 
ATOM     10  C   UNL     1      -0.251  11.791  20.991  0.00  0.00    +0.000 A 
ATOM     11  C   UNL     1      -0.873  11.953  22.231  0.00  0.00    +0.000 A 
ATOM     12  C   UNL     1      -0.942  10.882  23.110  0.00  0.00    +0.000 A 
ATOM     13  C   UNL     1      -0.387   9.653  22.748  0.00  0.00    +0.000 A 
ATOM     14  C   UNL     1       0.254   9.492  21.504  0.00  0.00    +0.000 A 
ATOM     15  C   UNL     1       0.862   8.278  21.111  0.00  0.00    +0.000 A 
ENDBRANCH   3   6
BRANCH   4  16
ATOM     16  C   UNL     1       4.783   5.516  17.440  0.00  0.00    +0.000 A 
ATOM     17  C   UNL     1       4.721   4.904  16.181  0.00  0.00    +0.000 A 
ATOM     18  C   UNL     1       5.850   4.863  15.362  0.00  0.00    +0.000 A 
ATOM     19  C   UNL     1       7.056   5.400  15.807  0.00  0.00    +0.000 A 
ATOM     20  C   UNL     1       7.136   5.980  17.072  0.00  0.00    +0.000 A 
ATOM     21  C   UNL     1       6.004   6.045  17.886  0.00  0.00    +0.000 A 
ENDBRANCH   4  16
BRANCH   4  22
ATOM     22  C   UNL     1       3.021   4.310  18.626  0.00  0.00    +0.000 A 
ATOM     23  C   UNL     1       3.650   3.428  19.513  0.00  0.00    +0.000 A 
ATOM     24  C   UNL     1       3.039   2.221  19.880  0.00  0.00    +0.000 A 
ATOM     25  C   UNL     1       1.787   1.879  19.374  0.00  0.00    +0.000 A 
ATOM     26  C   UNL     1       1.146   2.736  18.489  0.00  0.00    +0.000 A 
ATOM     27  C   UNL     1       1.762   3.930  18.112  0.00  0.00    +0.000 A 
ENDBRANCH   4  22
TORSDOF 3
ENDMDL
MODEL 2
REMARK VINA RESULT:      -8.9      0.078      1.338
REMARK  Name = 
REMARK  3 active torsions:
REMARK  status: ('A' for Active; 'I' for Inactive)
REMARK    1  A    between atoms: N_3  and  C_4
REMARK    2  A    between atoms: N_14  and  C_15
REMARK    3  A    between atoms: N_14  and  C_21
REMARK                            x       y       z     vdW  Elec       q    Type
REMARK                         _______ _______ _______ _____ _____    ______ ____
ROOT
ATOM      1  O   UNL     1       3.322   7.835  17.712  0.00  0.00    +0.000 OA
ATOM      2  C   UNL     1       3.023   6.876  18.428  0.00  0.00    +0.000 C 
ATOM      3  N   UNL     1       2.193   7.011  19.532  0.00  0.00    +0.000 N 
ATOM      4  N   UNL     1       3.577   5.599  18.225  0.00  0.00    +0.000 N 
ATOM      5  H   UNL     1       2.301   6.306  20.248  0.00  0.00    +0.000 HD
ENDROOT
BRANCH   3   6
ATOM      6  C   UNL     1       1.526   8.214  19.886  0.00  0.00    +0.000 A 
ATOM      7  C   UNL     1       1.499   9.353  19.086  0.00  0.00    +0.000 A 
ATOM      8  N   UNL     1       0.910  10.527  19.429  0.00  0.00    +0.000 NA
ATOM      9  C   UNL     1       0.319  10.606  20.625  0.00  0.00    +0.000 A 
ATOM     10  C   UNL     1      -0.241  11.813  21.016  0.00  0.00    +0.000 A 
ATOM     11  C   UNL     1      -0.863  11.967  22.256  0.00  0.00    +0.000 A 
ATOM     12  C   UNL     1      -0.938  10.888  23.125  0.00  0.00    +0.000 A 
ATOM     13  C   UNL     1      -0.389   9.659  22.752  0.00  0.00    +0.000 A 
ATOM     14  C   UNL     1       0.251   9.507  21.508  0.00  0.00    +0.000 A 
ATOM     15  C   UNL     1       0.854   8.293  21.104  0.00  0.00    +0.000 A 
ENDBRANCH   3   6
BRANCH   4  16
ATOM     16  C   UNL     1       4.752   5.542  17.400  0.00  0.00    +0.000 A 
ATOM     17  C   UNL     1       5.950   6.105  17.864  0.00  0.00    +0.000 A 
ATOM     18  C   UNL     1       7.107   6.036  17.087  0.00  0.00    +0.000 A 
ATOM     19  C   UNL     1       7.070   5.437  15.830  0.00  0.00    +0.000 A 
ATOM     20  C   UNL     1       5.876   4.905  15.345  0.00  0.00    +0.000 A 
ATOM     21  C   UNL     1       4.721   4.951  16.127  0.00  0.00    +0.000 A 
ENDBRANCH   4  16
BRANCH   4  22
ATOM     22  C   UNL     1       2.993   4.335  18.588  0.00  0.00    +0.000 A 
ATOM     23  C   UNL     1       1.724   3.943  18.144  0.00  0.00    +0.000 A 
ATOM     24  C   UNL     1       1.200   2.688  18.484  0.00  0.00    +0.000 A 
ATOM     25  C   UNL     1       1.937   1.801  19.265  0.00  0.00    +0.000 A 
ATOM     26  C   UNL     1       3.196   2.169  19.720  0.00  0.00    +0.000 A 
ATOM     27  C   UNL     1       3.711   3.425  19.394  0.00  0.00    +0.000 A 
ENDBRANCH   4  22
TORSDOF 3
ENDMDL
MODEL 3
REMARK VINA RESULT:      -8.9      1.511      2.200
REMARK  Name = 
REMARK  3 active torsions:
REMARK  status: ('A' for Active; 'I' for Inactive)
REMARK    1  A    between atoms: N_3  and  C_4
REMARK    2  A    between atoms: N_14  and  C_15
REMARK    3  A    between atoms: N_14  and  C_21
REMARK                            x       y       z     vdW  Elec       q    Type
REMARK                         _______ _______ _______ _____ _____    ______ ____
ROOT
ATOM      1  O   UNL     1       2.605   8.299  18.975  0.00  0.00    +0.000 OA
ATOM      2  C   UNL     1       2.307   7.345  19.697  0.00  0.00    +0.000 C 
ATOM      3  N   UNL     1       1.514   7.494  20.826  0.00  0.00    +0.000 N 
ATOM      4  N   UNL     1       2.827   6.056  19.474  0.00  0.00    +0.000 N 
ATOM      5  H   UNL     1       1.628   6.784  21.537  0.00  0.00    +0.000 HD
ENDROOT
BRANCH   3   6
ATOM      6  C   UNL     1       0.884   8.709  21.203  0.00  0.00    +0.000 A 
ATOM      7  C   UNL     1       0.935   9.248  22.485  0.00  0.00    +0.000 A 
ATOM      8  N   UNL     1       0.297  10.381  22.877  0.00  0.00    +0.000 NA
ATOM      9  C   UNL     1      -0.443  11.027  21.971  0.00  0.00    +0.000 A 
ATOM     10  C   UNL     1      -1.145  12.156  22.366  0.00  0.00    +0.000 A 
ATOM     11  C   UNL     1      -1.946  12.872  21.474  0.00  0.00    +0.000 A 
ATOM     12  C   UNL     1      -2.043  12.458  20.154  0.00  0.00    +0.000 A 
ATOM     13  C   UNL     1      -1.340  11.328  19.729  0.00  0.00    +0.000 A 
ATOM     14  C   UNL     1      -0.543  10.597  20.631  0.00  0.00    +0.000 A 
ATOM     15  C   UNL     1       0.157   9.427  20.255  0.00  0.00    +0.000 A 
ENDBRANCH   3   6
BRANCH   4  16
ATOM     16  C   UNL     1       3.976   5.978  18.614  0.00  0.00    +0.000 A 
ATOM     17  C   UNL     1       3.846   6.307  17.257  0.00  0.00    +0.000 A 
ATOM     18  C   UNL     1       4.956   6.261  16.412  0.00  0.00    +0.000 A 
ATOM     19  C   UNL     1       6.193   5.854  16.906  0.00  0.00    +0.000 A 
ATOM     20  C   UNL     1       6.325   5.492  18.246  0.00  0.00    +0.000 A 
ATOM     21  C   UNL     1       5.223   5.558  19.100  0.00  0.00    +0.000 A 
ENDBRANCH   4  16
BRANCH   4  22
ATOM     22  C   UNL     1       2.228   4.804  19.851  0.00  0.00    +0.000 A 
ATOM     23  C   UNL     1       1.496   4.024  18.948  0.00  0.00    +0.000 A 
ATOM     24  C   UNL     1       0.957   2.790  19.337  0.00  0.00    +0.000 A 
ATOM     25  C   UNL     1       1.148   2.310  20.630  0.00  0.00    +0.000 A 
ATOM     26  C   UNL     1       1.867   3.068  21.545  0.00  0.00    +0.000 A 
ATOM     27  C   UNL     1       2.390   4.304  21.162  0.00  0.00    +0.000 A 
ENDBRANCH   4  22
TORSDOF 3
ENDMDL
MODEL 4
REMARK VINA RESULT:      -8.9      1.478      2.122
REMARK  Name = 
REMARK  3 active torsions:
REMARK  status: ('A' for Active; 'I' for Inactive)
REMARK    1  A    between atoms: N_3  and  C_4
REMARK    2  A    between atoms: N_14  and  C_15
REMARK    3  A    between atoms: N_14  and  C_21
REMARK                            x       y       z     vdW  Elec       q    Type
REMARK                         _______ _______ _______ _____ _____    ______ ____
ROOT
ATOM      1  O   UNL     1       2.657   8.310  18.955  0.00  0.00    +0.000 OA
ATOM      2  C   UNL     1       2.367   7.338  19.656  0.00  0.00    +0.000 C 
ATOM      3  N   UNL     1       1.580   7.457  20.793  0.00  0.00    +0.000 N 
ATOM      4  N   UNL     1       2.893   6.058  19.401  0.00  0.00    +0.000 N 
ATOM      5  H   UNL     1       1.701   6.732  21.486  0.00  0.00    +0.000 HD
ENDROOT
BRANCH   3   6
ATOM      6  C   UNL     1       0.945   8.660  21.201  0.00  0.00    +0.000 A 
ATOM      7  C   UNL     1       0.984   9.159  22.500  0.00  0.00    +0.000 A 
ATOM      8  N   UNL     1       0.341  10.279  22.920  0.00  0.00    +0.000 NA
ATOM      9  C   UNL     1      -0.390  10.953  22.027  0.00  0.00    +0.000 A 
ATOM     10  C   UNL     1      -1.096  12.069  22.450  0.00  0.00    +0.000 A 
ATOM     11  C   UNL     1      -1.889  12.812  21.573  0.00  0.00    +0.000 A 
ATOM     12  C   UNL     1      -1.972  12.439  20.239  0.00  0.00    +0.000 A 
ATOM     13  C   UNL     1      -1.264  11.323  19.786  0.00  0.00    +0.000 A 
ATOM     14  C   UNL     1      -0.476  10.565  20.673  0.00  0.00    +0.000 A 
ATOM     15  C   UNL     1       0.228   9.407  20.268  0.00  0.00    +0.000 A 
ENDBRANCH   3   6
BRANCH   4  16
ATOM     16  C   UNL     1       4.037   6.005  18.533  0.00  0.00    +0.000 A 
ATOM     17  C   UNL     1       5.259   5.526  19.028  0.00  0.00    +0.000 A 
ATOM     18  C   UNL     1       6.373   5.443  18.192  0.00  0.00    +0.000 A 
ATOM     19  C   UNL     1       6.287   5.869  16.869  0.00  0.00    +0.000 A 
ATOM     20  C   UNL     1       5.086   6.379  16.376  0.00  0.00    +0.000 A 
ATOM     21  C   UNL     1       3.962   6.443  17.202  0.00  0.00    +0.000 A 
ENDBRANCH   4  16
BRANCH   4  22
ATOM     22  C   UNL     1       2.302   4.794  19.752  0.00  0.00    +0.000 A 
ATOM     23  C   UNL     1       2.372   4.271  21.049  0.00  0.00    +0.000 A 
ATOM     24  C   UNL     1       1.753   3.055  21.368  0.00  0.00    +0.000 A 
ATOM     25  C   UNL     1       1.047   2.345  20.399  0.00  0.00    +0.000 A 
ATOM     26  C   UNL     1       0.968   2.842  19.105  0.00  0.00    +0.000 A 
ATOM     27  C   UNL     1       1.598   4.046  18.784  0.00  0.00    +0.000 A 
ENDBRANCH   4  22
TORSDOF 3
ENDMDL
MODEL 5
REMARK VINA RESULT:      -8.9      1.956      7.748
REMARK  Name = 
REMARK  3 active torsions:
REMARK  status: ('A' for Active; 'I' for Inactive)
REMARK    1  A    between atoms: N_3  and  C_4
REMARK    2  A    between atoms: N_14  and  C_15
REMARK    3  A    between atoms: N_14  and  C_21
REMARK                            x       y       z     vdW  Elec       q    Type
REMARK                         _______ _______ _______ _____ _____    ______ ____
ROOT
ATOM      1  O   UNL     1       4.223   7.356  17.753  0.00  0.00    +0.000 OA
ATOM      2  C   UNL     1       3.664   6.280  17.976  0.00  0.00    +0.000 C 
ATOM      3  N   UNL     1       3.952   5.134  17.249  0.00  0.00    +0.000 N 
ATOM      4  N   UNL     1       2.628   6.167  18.923  0.00  0.00    +0.000 N 
ATOM      5  H   UNL     1       3.223   4.434  17.229  0.00  0.00    +0.000 HD
ENDROOT
BRANCH   3   6
ATOM      6  C   UNL     1       4.976   5.048  16.269  0.00  0.00    +0.000 A 
ATOM      7  C   UNL     1       6.195   5.714  16.356  0.00  0.00    +0.000 A 
ATOM      8  N   UNL     1       7.164   5.685  15.406  0.00  0.00    +0.000 NA
ATOM      9  C   UNL     1       6.934   4.973  14.298  0.00  0.00    +0.000 A 
ATOM     10  C   UNL     1       7.890   4.974  13.293  0.00  0.00    +0.000 A 
ATOM     11  C   UNL     1       7.708   4.262  12.106  0.00  0.00    +0.000 A 
ATOM     12  C   UNL     1       6.549   3.522  11.920  0.00  0.00    +0.000 A 
ATOM     13  C   UNL     1       5.575   3.497  12.920  0.00  0.00    +0.000 A 
ATOM     14  C   UNL     1       5.751   4.227  14.112  0.00  0.00    +0.000 A 
ATOM     15  C   UNL     1       4.776   4.262  15.135  0.00  0.00    +0.000 A 
ENDBRANCH   3   6
BRANCH   4  16
ATOM     16  C   UNL     1       2.018   7.397  19.344  0.00  0.00    +0.000 A 
ATOM     17  C   UNL     1       1.767   8.403  18.400  0.00  0.00    +0.000 A 
ATOM     18  C   UNL     1       1.152   9.594  18.787  0.00  0.00    +0.000 A 
ATOM     19  C   UNL     1       0.814   9.804  20.122  0.00  0.00    +0.000 A 
ATOM     20  C   UNL     1       1.091   8.824  21.075  0.00  0.00    +0.000 A 
ATOM     21  C   UNL     1       1.686   7.622  20.689  0.00  0.00    +0.000 A 
ENDBRANCH   4  16
BRANCH   4  22
ATOM     22  C   UNL     1       2.248   4.986  19.652  0.00  0.00    +0.000 A 
ATOM     23  C   UNL     1       2.843   4.636  20.870  0.00  0.00    +0.000 A 
ATOM     24  C   UNL     1       2.423   3.500  21.575  0.00  0.00    +0.000 A 
ATOM     25  C   UNL     1       1.397   2.698  21.078  0.00  0.00    +0.000 A 
ATOM     26  C   UNL     1       0.795   3.023  19.870  0.00  0.00    +0.000 A 
ATOM     27  C   UNL     1       1.225   4.146  19.161  0.00  0.00    +0.000 A 
ENDBRANCH   4  22
TORSDOF 3
ENDMDL
MODEL 6
REMARK VINA RESULT:      -8.8      1.410      3.676
REMARK  Name = 
REMARK  3 active torsions:
REMARK  status: ('A' for Active; 'I' for Inactive)
REMARK    1  A    between atoms: N_3  and  C_4
REMARK    2  A    between atoms: N_14  and  C_15
REMARK    3  A    between atoms: N_14  and  C_21
REMARK                            x       y       z     vdW  Elec       q    Type
REMARK                         _______ _______ _______ _____ _____    ______ ____
ROOT
ATOM      1  O   UNL     1       1.903   5.645  19.938  0.00  0.00    +0.000 OA
ATOM      2  C   UNL     1       2.803   6.185  19.290  0.00  0.00    +0.000 C 
ATOM      3  N   UNL     1       2.784   7.540  18.990  0.00  0.00    +0.000 N 
ATOM      4  N   UNL     1       3.862   5.444  18.734  0.00  0.00    +0.000 N 
ATOM      5  H   UNL     1       3.320   7.815  18.179  0.00  0.00    +0.000 HD
ENDROOT
BRANCH   3   6
ATOM      6  C   UNL     1       1.810   8.451  19.478  0.00  0.00    +0.000 A 
ATOM      7  C   UNL     1       1.198   9.427  18.697  0.00  0.00    +0.000 A 
ATOM      8  N   UNL     1       0.304  10.340  19.157  0.00  0.00    +0.000 NA
ATOM      9  C   UNL     1      -0.012  10.308  20.455  0.00  0.00    +0.000 A 
ATOM     10  C   UNL     1      -0.882  11.265  20.954  0.00  0.00    +0.000 A 
ATOM     11  C   UNL     1      -1.244  11.298  22.302  0.00  0.00    +0.000 A 
ATOM     12  C   UNL     1      -0.733  10.347  23.173  0.00  0.00    +0.000 A 
ATOM     13  C   UNL     1       0.140   9.367  22.694  0.00  0.00    +0.000 A 
ATOM     14  C   UNL     1       0.517   9.342  21.338  0.00  0.00    +0.000 A 
ATOM     15  C   UNL     1       1.426   8.393  20.816  0.00  0.00    +0.000 A 
ENDBRANCH   3   6
BRANCH   4  16
ATOM     16  C   UNL     1       3.663   4.024  18.645  0.00  0.00    +0.000 A 
ATOM     17  C   UNL     1       2.889   3.499  17.601  0.00  0.00    +0.000 A 
ATOM     18  C   UNL     1       2.706   2.121  17.483  0.00  0.00    +0.000 A 
ATOM     19  C   UNL     1       3.266   1.260  18.424  0.00  0.00    +0.000 A 
ATOM     20  C   UNL     1       4.009   1.774  19.486  0.00  0.00    +0.000 A 
ATOM     21  C   UNL     1       4.213   3.150  19.595  0.00  0.00    +0.000 A 
ENDBRANCH   4  16
BRANCH   4  22
ATOM     22  C   UNL     1       5.185   5.922  18.427  0.00  0.00    +0.000 A 
ATOM     23  C   UNL     1       5.436   6.787  17.356  0.00  0.00    +0.000 A 
ATOM     24  C   UNL     1       6.730   7.265  17.107  0.00  0.00    +0.000 A 
ATOM     25  C   UNL     1       7.792   6.893  17.928  0.00  0.00    +0.000 A 
ATOM     26  C   UNL     1       7.567   6.032  18.994  0.00  0.00    +0.000 A 
ATOM     27  C   UNL     1       6.281   5.545  19.232  0.00  0.00    +0.000 A 
ENDBRANCH   4  22
TORSDOF 3
ENDMDL
MODEL 7
REMARK VINA RESULT:      -8.8      0.761      1.231
REMARK  Name = 
REMARK  3 active torsions:
REMARK  status: ('A' for Active; 'I' for Inactive)
REMARK    1  A    between atoms: N_3  and  C_4
REMARK    2  A    between atoms: N_14  and  C_15
REMARK    3  A    between atoms: N_14  and  C_21
REMARK                            x       y       z     vdW  Elec       q    Type
REMARK                         _______ _______ _______ _____ _____    ______ ____
ROOT
ATOM      1  O   UNL     1       3.489   7.677  17.812  0.00  0.00    +0.000 OA
ATOM      2  C   UNL     1       3.022   6.848  18.596  0.00  0.00    +0.000 C 
ATOM      3  N   UNL     1       2.091   7.194  19.566  0.00  0.00    +0.000 N 
ATOM      4  N   UNL     1       3.471   5.515  18.619  0.00  0.00    +0.000 N 
ATOM      5  H   UNL     1       2.051   6.582  20.370  0.00  0.00    +0.000 HD
ENDROOT
BRANCH   3   6
ATOM      6  C   UNL     1       1.507   8.482  19.687  0.00  0.00    +0.000 A 
ATOM      7  C   UNL     1       1.524   9.442  18.679  0.00  0.00    +0.000 A 
ATOM      8  N   UNL     1       1.015  10.696  18.794  0.00  0.00    +0.000 NA
ATOM      9  C   UNL     1       0.463  11.044  19.961  0.00  0.00    +0.000 A 
ATOM     10  C   UNL     1      -0.013  12.337  20.115  0.00  0.00    +0.000 A 
ATOM     11  C   UNL     1      -0.590  12.769  21.311  0.00  0.00    +0.000 A 
ATOM     12  C   UNL     1      -0.704  11.888  22.376  0.00  0.00    +0.000 A 
ATOM     13  C   UNL     1      -0.239  10.577  22.244  0.00  0.00    +0.000 A 
ATOM     14  C   UNL     1       0.356  10.145  21.043  0.00  0.00    +0.000 A 
ATOM     15  C   UNL     1       0.875   8.840  20.877  0.00  0.00    +0.000 A 
ENDBRANCH   3   6
BRANCH   4  16
ATOM     16  C   UNL     1       4.720   5.256  17.957  0.00  0.00    +0.000 A 
ATOM     17  C   UNL     1       5.920   5.388  18.670  0.00  0.00    +0.000 A 
ATOM     18  C   UNL     1       7.141   5.115  18.051  0.00  0.00    +0.000 A 
ATOM     19  C   UNL     1       7.176   4.744  16.709  0.00  0.00    +0.000 A 
ATOM     20  C   UNL     1       5.991   4.644  15.982  0.00  0.00    +0.000 A 
ATOM     21  C   UNL     1       4.765   4.893  16.603  0.00  0.00    +0.000 A 
ENDBRANCH   4  16
BRANCH   4  22
ATOM     22  C   UNL     1       2.733   4.361  19.058  0.00  0.00    +0.000 A 
ATOM     23  C   UNL     1       2.928   3.784  20.319  0.00  0.00    +0.000 A 
ATOM     24  C   UNL     1       2.165   2.683  20.732  0.00  0.00    +0.000 A 
ATOM     25  C   UNL     1       1.190   2.145  19.895  0.00  0.00    +0.000 A 
ATOM     26  C   UNL     1       0.982   2.697  18.638  0.00  0.00    +0.000 A 
ATOM     27  C   UNL     1       1.753   3.784  18.222  0.00  0.00    +0.000 A 
ENDBRANCH   4  22
TORSDOF 3
ENDMDL
MODEL 8
REMARK VINA RESULT:      -8.8      1.066      1.141
REMARK  Name = 
REMARK  3 active torsions:
REMARK  status: ('A' for Active; 'I' for Inactive)
REMARK    1  A    between atoms: N_3  and  C_4
REMARK    2  A    between atoms: N_14  and  C_15
REMARK    3  A    between atoms: N_14  and  C_21
REMARK                            x       y       z     vdW  Elec       q    Type
REMARK                         _______ _______ _______ _____ _____    ______ ____
ROOT
ATOM      1  O   UNL     1       2.965   7.890  18.297  0.00  0.00    +0.000 OA
ATOM      2  C   UNL     1       2.642   7.090  19.179  0.00  0.00    +0.000 C 
ATOM      3  N   UNL     1       1.826   7.452  20.240  0.00  0.00    +0.000 N 
ATOM      4  N   UNL     1       3.157   5.781  19.214  0.00  0.00    +0.000 N 
ATOM      5  H   UNL     1       1.917   6.889  21.074  0.00  0.00    +0.000 HD
ENDROOT
BRANCH   3   6
ATOM      6  C   UNL     1       1.197   8.719  20.366  0.00  0.00    +0.000 A 
ATOM      7  C   UNL     1       1.258   9.718  19.399  0.00  0.00    +0.000 A 
ATOM      8  N   UNL     1       0.708  10.953  19.524  0.00  0.00    +0.000 NA
ATOM      9  C   UNL     1       0.065  11.241  20.660  0.00  0.00    +0.000 A 
ATOM     10  C   UNL     1      -0.458  12.514  20.828  0.00  0.00    +0.000 A 
ATOM     11  C   UNL     1      -1.130  12.884  21.994  0.00  0.00    +0.000 A 
ATOM     12  C   UNL     1      -1.294  11.959  23.015  0.00  0.00    +0.000 A 
ATOM     13  C   UNL     1      -0.784  10.667  22.868  0.00  0.00    +0.000 A 
ATOM     14  C   UNL     1      -0.093  10.297  21.698  0.00  0.00    +0.000 A 
ATOM     15  C   UNL     1       0.472   9.014  21.520  0.00  0.00    +0.000 A 
ENDBRANCH   3   6
BRANCH   4  16
ATOM     16  C   UNL     1       4.323   5.537  18.412  0.00  0.00    +0.000 A 
ATOM     17  C   UNL     1       4.173   5.194  17.061  0.00  0.00    +0.000 A 
ATOM     18  C   UNL     1       5.296   4.979  16.260  0.00  0.00    +0.000 A 
ATOM     19  C   UNL     1       6.573   5.070  16.808  0.00  0.00    +0.000 A 
ATOM     20  C   UNL     1       6.732   5.377  18.159  0.00  0.00    +0.000 A 
ATOM     21  C   UNL     1       5.613   5.615  18.959  0.00  0.00    +0.000 A 
ENDBRANCH   4  16
BRANCH   4  22
ATOM     22  C   UNL     1       2.538   4.624  19.806  0.00  0.00    +0.000 A 
ATOM     23  C   UNL     1       2.922   4.129  21.058  0.00  0.00    +0.000 A 
ATOM     24  C   UNL     1       2.273   3.023  21.624  0.00  0.00    +0.000 A 
ATOM     25  C   UNL     1       1.225   2.398  20.952  0.00  0.00    +0.000 A 
ATOM     26  C   UNL     1       0.830   2.868  19.707  0.00  0.00    +0.000 A 
ATOM     27  C   UNL     1       1.487   3.960  19.137  0.00  0.00    +0.000 A 
ENDBRANCH   4  22
TORSDOF 3
ENDMDL
MODEL 9
REMARK VINA RESULT:      -8.7      1.433      1.963
REMARK  Name = 
REMARK  3 active torsions:
REMARK  status: ('A' for Active; 'I' for Inactive)
REMARK    1  A    between atoms: N_3  and  C_4
REMARK    2  A    between atoms: N_14  and  C_15
REMARK    3  A    between atoms: N_14  and  C_21
REMARK                            x       y       z     vdW  Elec       q    Type
REMARK                         _______ _______ _______ _____ _____    ______ ____
ROOT
ATOM      1  O   UNL     1       3.006   7.875  18.419  0.00  0.00    +0.000 OA
ATOM      2  C   UNL     1       2.674   7.068  19.291  0.00  0.00    +0.000 C 
ATOM      3  N   UNL     1       1.887   7.435  20.373  0.00  0.00    +0.000 N 
ATOM      4  N   UNL     1       3.149   5.744  19.294  0.00  0.00    +0.000 N 
ATOM      5  H   UNL     1       1.975   6.853  21.195  0.00  0.00    +0.000 HD
ENDROOT
BRANCH   3   6
ATOM      6  C   UNL     1       1.299   8.718  20.533  0.00  0.00    +0.000 A 
ATOM      7  C   UNL     1       1.304   9.432  21.728  0.00  0.00    +0.000 A 
ATOM      8  N   UNL     1       0.704  10.636  21.914  0.00  0.00    +0.000 NA
ATOM      9  C   UNL     1       0.052  11.177  20.880  0.00  0.00    +0.000 A 
ATOM     10  C   UNL     1      -0.613  12.380  21.065  0.00  0.00    +0.000 A 
ATOM     11  C   UNL     1      -1.323  12.993  20.032  0.00  0.00    +0.000 A 
ATOM     12  C   UNL     1      -1.364  12.398  18.779  0.00  0.00    +0.000 A 
ATOM     13  C   UNL     1      -0.697  11.190  18.564  0.00  0.00    +0.000 A 
ATOM     14  C   UNL     1       0.008  10.563  19.610  0.00  0.00    +0.000 A 
ATOM     15  C   UNL     1       0.666   9.323  19.449  0.00  0.00    +0.000 A 
ENDBRANCH   3   6
BRANCH   4  16
ATOM     16  C   UNL     1       4.294   5.480  18.467  0.00  0.00    +0.000 A 
ATOM     17  C   UNL     1       4.109   5.127  17.123  0.00  0.00    +0.000 A 
ATOM     18  C   UNL     1       5.211   4.893  16.298  0.00  0.00    +0.000 A 
ATOM     19  C   UNL     1       6.501   4.975  16.816  0.00  0.00    +0.000 A 
ATOM     20  C   UNL     1       6.695   5.291  18.160  0.00  0.00    +0.000 A 
ATOM     21  C   UNL     1       5.597   5.549  18.984  0.00  0.00    +0.000 A 
ENDBRANCH   4  16
BRANCH   4  22
ATOM     22  C   UNL     1       2.506   4.595  19.875  0.00  0.00    +0.000 A 
ATOM     23  C   UNL     1       2.860   4.098  21.135  0.00  0.00    +0.000 A 
ATOM     24  C   UNL     1       2.187   3.000  21.689  0.00  0.00    +0.000 A 
ATOM     25  C   UNL     1       1.145   2.386  20.998  0.00  0.00    +0.000 A 
ATOM     26  C   UNL     1       0.780   2.859  19.745  0.00  0.00    +0.000 A 
ATOM     27  C   UNL     1       1.460   3.942  19.187  0.00  0.00    +0.000 A 
ENDBRANCH   4  22
TORSDOF 3
ENDMDL
