MODEL 1
REMARK VINA RESULT:      -8.2      0.000      0.000
REMARK  Name = 
REMARK  4 active torsions:
REMARK  status: ('A' for Active; 'I' for Inactive)
REMARK    1  A    between atoms: C_2  and  C_4
REMARK    2  A    between atoms: C_10  and  C_12
REMARK    3  A    between atoms: C_14  and  C_15
REMARK    4  A    between atoms: N_21  and  C_22
REMARK                            x       y       z     vdW  Elec       q    Type
REMARK                         _______ _______ _______ _____ _____    ______ ____
ROOT
ATOM      1  C   UNL     1       2.184   8.425  17.998  0.00  0.00    +0.000 A 
ATOM      2  N   UNL     1       3.523   8.227  17.703  0.00  0.00    +0.000 NA
ATOM      3  C   UNL     1       3.686   6.914  17.742  0.00  0.00    +0.000 A 
ATOM      4  N   UNL     1       2.505   6.346  18.222  0.00  0.00    +0.000 N 
ATOM      5  N   UNL     1       1.527   7.282  18.250  0.00  0.00    +0.000 NA
ENDROOT
BRANCH   1  12
ATOM      6  C   UNL     1       0.193  11.382  19.510  0.00  0.00    +0.000 C 
ATOM      7  C   UNL     1       0.946  11.709  20.813  0.00  0.00    +0.000 C 
ATOM      8  C   UNL     1       0.671  10.642  21.884  0.00  0.00    +0.000 C 
ATOM      9  C   UNL     1       0.907   9.226  21.349  0.00  0.00    +0.000 C 
ATOM     10  C   UNL     1       0.123   9.007  20.050  0.00  0.00    +0.000 C 
ATOM     11  N   UNL     1       0.532  10.009  19.063  0.00  0.00    +0.000 N 
ATOM     12  C   UNL     1       1.581   9.786  18.128  0.00  0.00    +0.000 C 
ATOM     13  O   UNL     1       1.994  10.708  17.428  0.00  0.00    +0.000 OA
BRANCH   6  15
ATOM     14  N   UNL     1      -0.757  12.560  17.541  0.00  0.00    +0.000 N 
ATOM     15  C   UNL     1       0.187  12.575  18.528  0.00  0.00    +0.000 C 
ATOM     16  O   UNL     1       1.006  13.493  18.586  0.00  0.00    +0.000 OA
ATOM     17  H   UNL     1      -0.787  13.420  17.008  0.00  0.00    +0.000 HD
ATOM     18  H   UNL     1      -1.679  12.262  17.859  0.00  0.00    +0.000 HD
ENDBRANCH   6  15
ENDBRANCH   1  12
BRANCH   3  19
ATOM     19  C   UNL     1       4.897   6.186  17.322  0.00  0.00    +0.000 A 
ATOM     20  C   UNL     1       5.790   5.707  18.288  0.00  0.00    +0.000 A 
ATOM     21  C   UNL     1       6.868   4.894  17.922  0.00  0.00    +0.000 A 
ATOM     22  C   UNL     1       7.066   4.545  16.587  0.00  0.00    +0.000 A 
ATOM     23  C   UNL     1       6.229   5.066  15.607  0.00  0.00    +0.000 A 
ATOM     24  C   UNL     1       5.183   5.918  15.970  0.00  0.00    +0.000 A 
ENDBRANCH   3  19
BRANCH   4  25
ATOM     25  C   UNL     1       2.231   5.014  18.616  0.00  0.00    +0.000 A 
ATOM     26  C   UNL     1       2.260   3.968  17.686  0.00  0.00    +0.000 A 
ATOM     27  C   UNL     1       1.787   2.706  18.041  0.00  0.00    +0.000 A 
ATOM     28  C   UNL     1       1.321   2.477  19.334  0.00  0.00    +0.000 A 
ATOM     29  C   UNL     1       1.371   3.497  20.287  0.00  0.00    +0.000 A 
ATOM     30  C   UNL     1       1.845   4.763  19.938  0.00  0.00    +0.000 A 
ENDBRANCH   4  25
TORSDOF 4
ENDMDL
MODEL 2
REMARK VINA RESULT:      -8.2      0.563      3.435
REMARK  Name = 
REMARK  4 active torsions:
REMARK  status: ('A' for Active; 'I' for Inactive)
REMARK    1  A    between atoms: C_2  and  C_4
REMARK    2  A    between atoms: C_10  and  C_12
REMARK    3  A    between atoms: C_14  and  C_15
REMARK    4  A    between atoms: N_21  and  C_22
REMARK                            x       y       z     vdW  Elec       q    Type
REMARK                         _______ _______ _______ _____ _____    ______ ____
ROOT
ATOM      1  C   UNL     1       2.314   8.133  18.261  0.00  0.00    +0.000 A 
ATOM      2  N   UNL     1       1.644   6.931  18.417  0.00  0.00    +0.000 NA
ATOM      3  C   UNL     1       2.571   6.002  18.238  0.00  0.00    +0.000 A 
ATOM      4  N   UNL     1       3.739   6.635  17.811  0.00  0.00    +0.000 N 
ATOM      5  N   UNL     1       3.612   7.975  17.958  0.00  0.00    +0.000 NA
ENDROOT
BRANCH   1  12
ATOM      6  C   UNL     1       0.179  11.053  19.639  0.00  0.00    +0.000 C 
ATOM      7  C   UNL     1       0.960  11.533  20.877  0.00  0.00    +0.000 C 
ATOM      8  C   UNL     1       0.808  10.536  22.037  0.00  0.00    +0.000 C 
ATOM      9  C   UNL     1       1.124   9.102  21.598  0.00  0.00    +0.000 C 
ATOM     10  C   UNL     1       0.305   8.729  20.359  0.00  0.00    +0.000 C 
ATOM     11  N   UNL     1       0.598   9.677  19.281  0.00  0.00    +0.000 N 
ATOM     12  C   UNL     1       1.620   9.454  18.316  0.00  0.00    +0.000 C 
ATOM     13  O   UNL     1       1.934  10.345  17.530  0.00  0.00    +0.000 OA
BRANCH   6  15
ATOM     14  N   UNL     1      -0.902  11.981  17.604  0.00  0.00    +0.000 N 
ATOM     15  C   UNL     1       0.045  12.163  18.572  0.00  0.00    +0.000 C 
ATOM     16  O   UNL     1       0.768  13.159  18.547  0.00  0.00    +0.000 OA
ATOM     17  H   UNL     1      -1.023  12.790  17.009  0.00  0.00    +0.000 HD
ATOM     18  H   UNL     1      -1.787  11.617  17.958  0.00  0.00    +0.000 HD
ENDBRANCH   6  15
ENDBRANCH   1  12
BRANCH   3  19
ATOM     19  C   UNL     1       2.398   4.557  18.478  0.00  0.00    +0.000 A 
ATOM     20  C   UNL     1       1.820   4.117  19.674  0.00  0.00    +0.000 A 
ATOM     21  C   UNL     1       1.517   2.765  19.863  0.00  0.00    +0.000 A 
ATOM     22  C   UNL     1       1.784   1.835  18.860  0.00  0.00    +0.000 A 
ATOM     23  C   UNL     1       2.419   2.245  17.693  0.00  0.00    +0.000 A 
ATOM     24  C   UNL     1       2.766   3.587  17.527  0.00  0.00    +0.000 A 
ENDBRANCH   3  19
BRANCH   4  25
ATOM     25  C   UNL     1       4.944   6.081  17.315  0.00  0.00    +0.000 A 
ATOM     26  C   UNL     1       5.162   5.949  15.938  0.00  0.00    +0.000 A 
ATOM     27  C   UNL     1       6.253   5.217  15.472  0.00  0.00    +0.000 A 
ATOM     28  C   UNL     1       7.147   4.649  16.377  0.00  0.00    +0.000 A 
ATOM     29  C   UNL     1       6.978   4.852  17.748  0.00  0.00    +0.000 A 
ATOM     30  C   UNL     1       5.888   5.586  18.222  0.00  0.00    +0.000 A 
ENDBRANCH   4  25
TORSDOF 4
ENDMDL
MODEL 3
REMARK VINA RESULT:      -8.2      1.001      3.545
REMARK  Name = 
REMARK  4 active torsions:
REMARK  status: ('A' for Active; 'I' for Inactive)
REMARK    1  A    between atoms: C_2  and  C_4
REMARK    2  A    between atoms: C_10  and  C_12
REMARK    3  A    between atoms: C_14  and  C_15
REMARK    4  A    between atoms: N_21  and  C_22
REMARK                            x       y       z     vdW  Elec       q    Type
REMARK                         _______ _______ _______ _____ _____    ______ ____
ROOT
ATOM      1  C   UNL     1       2.409   8.053  18.202  0.00  0.00    +0.000 A 
ATOM      2  N   UNL     1       1.817   6.823  18.437  0.00  0.00    +0.000 NA
ATOM      3  C   UNL     1       2.778   5.939  18.215  0.00  0.00    +0.000 A 
ATOM      4  N   UNL     1       3.877   6.618  17.690  0.00  0.00    +0.000 N 
ATOM      5  N   UNL     1       3.690   7.954  17.812  0.00  0.00    +0.000 NA
ENDROOT
BRANCH   1  12
ATOM      6  C   UNL     1       0.166  10.867  19.630  0.00  0.00    +0.000 C 
ATOM      7  C   UNL     1       0.955  11.390  20.845  0.00  0.00    +0.000 C 
ATOM      8  C   UNL     1       0.884  10.391  22.011  0.00  0.00    +0.000 C 
ATOM      9  C   UNL     1       1.261   8.973  21.568  0.00  0.00    +0.000 C 
ATOM     10  C   UNL     1       0.428   8.555  20.351  0.00  0.00    +0.000 C 
ATOM     11  N   UNL     1       0.644   9.512  19.264  0.00  0.00    +0.000 N 
ATOM     12  C   UNL     1       1.651   9.338  18.273  0.00  0.00    +0.000 C 
ATOM     13  O   UNL     1       1.899  10.241  17.476  0.00  0.00    +0.000 OA
BRANCH   6  15
ATOM     14  N   UNL     1       0.988  12.821  18.336  0.00  0.00    +0.000 N 
ATOM     15  C   UNL     1      -0.052  11.965  18.564  0.00  0.00    +0.000 C 
ATOM     16  O   UNL     1      -1.114  12.108  17.959  0.00  0.00    +0.000 OA
ATOM     17  H   UNL     1       0.830  13.437  17.549  0.00  0.00    +0.000 HD
ATOM     18  H   UNL     1       1.899  12.362  18.300  0.00  0.00    +0.000 HD
ENDBRANCH   6  15
ENDBRANCH   1  12
BRANCH   3  19
ATOM     19  C   UNL     1       2.700   4.495  18.504  0.00  0.00    +0.000 A 
ATOM     20  C   UNL     1       2.405   3.595  17.473  0.00  0.00    +0.000 A 
ATOM     21  C   UNL     1       2.464   2.215  17.693  0.00  0.00    +0.000 A 
ATOM     22  C   UNL     1       2.823   1.715  18.943  0.00  0.00    +0.000 A 
ATOM     23  C   UNL     1       3.055   2.593  19.995  0.00  0.00    +0.000 A 
ATOM     24  C   UNL     1       2.946   3.970  19.787  0.00  0.00    +0.000 A 
ENDBRANCH   3  19
BRANCH   4  25
ATOM     25  C   UNL     1       5.073   6.113  17.124  0.00  0.00    +0.000 A 
ATOM     26  C   UNL     1       5.170   5.867  15.748  0.00  0.00    +0.000 A 
ATOM     27  C   UNL     1       6.270   5.179  15.239  0.00  0.00    +0.000 A 
ATOM     28  C   UNL     1       7.291   4.770  16.095  0.00  0.00    +0.000 A 
ATOM     29  C   UNL     1       7.236   5.089  17.453  0.00  0.00    +0.000 A 
ATOM     30  C   UNL     1       6.137   5.780  17.970  0.00  0.00    +0.000 A 
ENDBRANCH   4  25
TORSDOF 4
ENDMDL
MODEL 4
REMARK VINA RESULT:      -8.1      0.315      1.327
REMARK  Name = 
REMARK  4 active torsions:
REMARK  status: ('A' for Active; 'I' for Inactive)
REMARK    1  A    between atoms: C_2  and  C_4
REMARK    2  A    between atoms: C_10  and  C_12
REMARK    3  A    between atoms: C_14  and  C_15
REMARK    4  A    between atoms: N_21  and  C_22
REMARK                            x       y       z     vdW  Elec       q    Type
REMARK                         _______ _______ _______ _____ _____    ______ ____
ROOT
ATOM      1  C   UNL     1       2.207   8.190  18.074  0.00  0.00    +0.000 A 
ATOM      2  N   UNL     1       3.554   7.953  17.861  0.00  0.00    +0.000 NA
ATOM      3  C   UNL     1       3.667   6.633  17.853  0.00  0.00    +0.000 A 
ATOM      4  N   UNL     1       2.437   6.093  18.227  0.00  0.00    +0.000 N 
ATOM      5  N   UNL     1       1.493   7.064  18.231  0.00  0.00    +0.000 NA
ENDROOT
BRANCH   1  12
ATOM      6  C   UNL     1       0.312  11.187  19.629  0.00  0.00    +0.000 C 
ATOM      7  C   UNL     1       1.078  11.475  20.933  0.00  0.00    +0.000 C 
ATOM      8  C   UNL     1       0.775  10.404  21.992  0.00  0.00    +0.000 C 
ATOM      9  C   UNL     1       0.966   8.988  21.438  0.00  0.00    +0.000 C 
ATOM     10  C   UNL     1       0.172   8.809  20.140  0.00  0.00    +0.000 C 
ATOM     11  N   UNL     1       0.607   9.811  19.164  0.00  0.00    +0.000 N 
ATOM     12  C   UNL     1       1.646   9.567  18.222  0.00  0.00    +0.000 C 
ATOM     13  O   UNL     1       2.084  10.485  17.532  0.00  0.00    +0.000 OA
BRANCH   6  15
ATOM     14  N   UNL     1      -0.611  12.420  17.681  0.00  0.00    +0.000 N 
ATOM     15  C   UNL     1       0.339  12.392  18.662  0.00  0.00    +0.000 C 
ATOM     16  O   UNL     1       1.187  13.282  18.725  0.00  0.00    +0.000 OA
ATOM     17  H   UNL     1      -0.617  13.287  17.158  0.00  0.00    +0.000 HD
ATOM     18  H   UNL     1      -1.541  12.148  18.000  0.00  0.00    +0.000 HD
ENDBRANCH   6  15
ENDBRANCH   1  12
BRANCH   3  19
ATOM     19  C   UNL     1       4.877   5.876  17.484  0.00  0.00    +0.000 A 
ATOM     20  C   UNL     1       5.157   5.629  16.134  0.00  0.00    +0.000 A 
ATOM     21  C   UNL     1       6.367   5.039  15.754  0.00  0.00    +0.000 A 
ATOM     22  C   UNL     1       7.314   4.691  16.715  0.00  0.00    +0.000 A 
ATOM     23  C   UNL     1       7.025   4.868  18.063  0.00  0.00    +0.000 A 
ATOM     24  C   UNL     1       5.797   5.412  18.443  0.00  0.00    +0.000 A 
ENDBRANCH   3  19
BRANCH   4  25
ATOM     25  C   UNL     1       2.088   4.757  18.544  0.00  0.00    +0.000 A 
ATOM     26  C   UNL     1       1.660   4.412  19.832  0.00  0.00    +0.000 A 
ATOM     27  C   UNL     1       1.522   3.070  20.184  0.00  0.00    +0.000 A 
ATOM     28  C   UNL     1       1.775   2.074  19.242  0.00  0.00    +0.000 A 
ATOM     29  C   UNL     1       2.119   2.421  17.933  0.00  0.00    +0.000 A 
ATOM     30  C   UNL     1       2.257   3.763  17.573  0.00  0.00    +0.000 A 
ENDBRANCH   4  25
TORSDOF 4
ENDMDL
MODEL 5
REMARK VINA RESULT:      -8.1      1.990      2.793
REMARK  Name = 
REMARK  4 active torsions:
REMARK  status: ('A' for Active; 'I' for Inactive)
REMARK    1  A    between atoms: C_2  and  C_4
REMARK    2  A    between atoms: C_10  and  C_12
REMARK    3  A    between atoms: C_14  and  C_15
REMARK    4  A    between atoms: N_21  and  C_22
REMARK                            x       y       z     vdW  Elec       q    Type
REMARK                         _______ _______ _______ _____ _____    ______ ____
ROOT
ATOM      1  C   UNL     1       1.404   8.466  20.201  0.00  0.00    +0.000 A 
ATOM      2  N   UNL     1       2.375   8.286  19.230  0.00  0.00    +0.000 NA
ATOM      3  C   UNL     1       2.491   6.972  19.109  0.00  0.00    +0.000 A 
ATOM      4  N   UNL     1       1.727   6.377  20.113  0.00  0.00    +0.000 N 
ATOM      5  N   UNL     1       0.944   7.310  20.705  0.00  0.00    +0.000 NA
ENDROOT
BRANCH   1  12
ATOM      6  C   UNL     1      -0.193  11.993  20.242  0.00  0.00    +0.000 C 
ATOM      7  C   UNL     1      -1.702  11.719  20.100  0.00  0.00    +0.000 C 
ATOM      8  C   UNL     1      -2.046  11.300  18.662  0.00  0.00    +0.000 C 
ATOM      9  C   UNL     1      -1.142  10.165  18.170  0.00  0.00    +0.000 C 
ATOM     10  C   UNL     1       0.332  10.533  18.364  0.00  0.00    +0.000 C 
ATOM     11  N   UNL     1       0.579  10.814  19.780  0.00  0.00    +0.000 N 
ATOM     12  C   UNL     1       1.006   9.816  20.700  0.00  0.00    +0.000 C 
ATOM     13  O   UNL     1       1.047  10.061  21.904  0.00  0.00    +0.000 OA
BRANCH   6  15
ATOM     14  N   UNL     1      -0.726  12.536  22.606  0.00  0.00    +0.000 N 
ATOM     15  C   UNL     1       0.144  12.712  21.568  0.00  0.00    +0.000 C 
ATOM     16  O   UNL     1       1.123  13.445  21.701  0.00  0.00    +0.000 OA
ATOM     17  H   UNL     1      -0.392  12.931  23.476  0.00  0.00    +0.000 HD
ATOM     18  H   UNL     1      -1.053  11.575  22.710  0.00  0.00    +0.000 HD
ENDBRANCH   6  15
ENDBRANCH   1  12
BRANCH   3  19
ATOM     19  C   UNL     1       3.271   6.270  18.072  0.00  0.00    +0.000 A 
ATOM     20  C   UNL     1       4.250   6.964  17.351  0.00  0.00    +0.000 A 
ATOM     21  C   UNL     1       5.095   6.288  16.466  0.00  0.00    +0.000 A 
ATOM     22  C   UNL     1       4.979   4.910  16.293  0.00  0.00    +0.000 A 
ATOM     23  C   UNL     1       3.969   4.217  16.950  0.00  0.00    +0.000 A 
ATOM     24  C   UNL     1       3.094   4.902  17.795  0.00  0.00    +0.000 A 
ENDBRANCH   3  19
BRANCH   4  25
ATOM     25  C   UNL     1       1.661   5.023  20.524  0.00  0.00    +0.000 A 
ATOM     26  C   UNL     1       2.593   4.501  21.429  0.00  0.00    +0.000 A 
ATOM     27  C   UNL     1       2.644   3.127  21.662  0.00  0.00    +0.000 A 
ATOM     28  C   UNL     1       1.742   2.279  21.022  0.00  0.00    +0.000 A 
ATOM     29  C   UNL     1       0.757   2.809  20.185  0.00  0.00    +0.000 A 
ATOM     30  C   UNL     1       0.700   4.185  19.948  0.00  0.00    +0.000 A 
ENDBRANCH   4  25
TORSDOF 4
ENDMDL
MODEL 6
REMARK VINA RESULT:      -7.9      1.981      4.252
REMARK  Name = 
REMARK  4 active torsions:
REMARK  status: ('A' for Active; 'I' for Inactive)
REMARK    1  A    between atoms: C_2  and  C_4
REMARK    2  A    between atoms: C_10  and  C_12
REMARK    3  A    between atoms: C_14  and  C_15
REMARK    4  A    between atoms: N_21  and  C_22
REMARK                            x       y       z     vdW  Elec       q    Type
REMARK                         _______ _______ _______ _____ _____    ______ ____
ROOT
ATOM      1  C   UNL     1       1.544   8.466  20.436  0.00  0.00    +0.000 A 
ATOM      2  N   UNL     1       1.039   7.274  20.928  0.00  0.00    +0.000 NA
ATOM      3  C   UNL     1       1.694   6.332  20.266  0.00  0.00    +0.000 A 
ATOM      4  N   UNL     1       2.452   6.951  19.273  0.00  0.00    +0.000 N 
ATOM      5  N   UNL     1       2.461   8.290  19.472  0.00  0.00    +0.000 NA
ENDROOT
BRANCH   1  12
ATOM      6  C   UNL     1      -0.211  11.912  20.247  0.00  0.00    +0.000 C 
ATOM      7  C   UNL     1      -1.678  11.564  19.932  0.00  0.00    +0.000 C 
ATOM      8  C   UNL     1      -1.832  11.119  18.470  0.00  0.00    +0.000 C 
ATOM      9  C   UNL     1      -0.824  10.025  18.100  0.00  0.00    +0.000 C 
ATOM     10  C   UNL     1       0.599  10.466  18.461  0.00  0.00    +0.000 C 
ATOM     11  N   UNL     1       0.664  10.769  19.893  0.00  0.00    +0.000 N 
ATOM     12  C   UNL     1       1.027   9.799  20.869  0.00  0.00    +0.000 C 
ATOM     13  O   UNL     1       0.915  10.054  22.067  0.00  0.00    +0.000 OA
BRANCH   6  15
ATOM     14  N   UNL     1      -1.019  12.408  22.542  0.00  0.00    +0.000 N 
ATOM     15  C   UNL     1      -0.067  12.656  21.593  0.00  0.00    +0.000 C 
ATOM     16  O   UNL     1       0.831  13.467  21.817  0.00  0.00    +0.000 OA
ATOM     17  H   UNL     1      -0.805  12.829  23.438  0.00  0.00    +0.000 HD
ATOM     18  H   UNL     1      -1.275  11.424  22.621  0.00  0.00    +0.000 HD
ENDBRANCH   6  15
ENDBRANCH   1  12
BRANCH   3  19
ATOM     19  C   UNL     1       1.645   4.887  20.555  0.00  0.00    +0.000 A 
ATOM     20  C   UNL     1       0.749   4.069  19.856  0.00  0.00    +0.000 A 
ATOM     21  C   UNL     1       0.783   2.679  20.011  0.00  0.00    +0.000 A 
ATOM     22  C   UNL     1       1.714   2.088  20.863  0.00  0.00    +0.000 A 
ATOM     23  C   UNL     1       2.566   2.889  21.615  0.00  0.00    +0.000 A 
ATOM     24  C   UNL     1       2.496   4.278  21.496  0.00  0.00    +0.000 A 
ENDBRANCH   3  19
BRANCH   4  25
ATOM     25  C   UNL     1       3.176   6.384  18.195  0.00  0.00    +0.000 A 
ATOM     26  C   UNL     1       3.106   5.012  17.925  0.00  0.00    +0.000 A 
ATOM     27  C   UNL     1       3.979   4.438  17.001  0.00  0.00    +0.000 A 
ATOM     28  C   UNL     1       4.895   5.237  16.320  0.00  0.00    +0.000 A 
ATOM     29  C   UNL     1       4.907   6.619  16.527  0.00  0.00    +0.000 A 
ATOM     30  C   UNL     1       4.035   7.200  17.450  0.00  0.00    +0.000 A 
ENDBRANCH   4  25
TORSDOF 4
ENDMDL
MODEL 7
REMARK VINA RESULT:      -7.8      0.815      3.690
REMARK  Name = 
REMARK  4 active torsions:
REMARK  status: ('A' for Active; 'I' for Inactive)
REMARK    1  A    between atoms: C_2  and  C_4
REMARK    2  A    between atoms: C_10  and  C_12
REMARK    3  A    between atoms: C_14  and  C_15
REMARK    4  A    between atoms: N_21  and  C_22
REMARK                            x       y       z     vdW  Elec       q    Type
REMARK                         _______ _______ _______ _____ _____    ______ ____
ROOT
ATOM      1  C   UNL     1       2.285   8.111  18.230  0.00  0.00    +0.000 A 
ATOM      2  N   UNL     1       1.519   6.964  18.345  0.00  0.00    +0.000 NA
ATOM      3  C   UNL     1       2.382   5.967  18.218  0.00  0.00    +0.000 A 
ATOM      4  N   UNL     1       3.616   6.509  17.861  0.00  0.00    +0.000 N 
ATOM      5  N   UNL     1       3.583   7.855  18.003  0.00  0.00    +0.000 NA
ENDROOT
BRANCH   1  12
ATOM      6  C   UNL     1       0.325  11.199  19.498  0.00  0.00    +0.000 C 
ATOM      7  C   UNL     1       1.092  11.633  20.761  0.00  0.00    +0.000 C 
ATOM      8  C   UNL     1       0.822  10.665  21.923  0.00  0.00    +0.000 C 
ATOM      9  C   UNL     1       1.046   9.206  21.510  0.00  0.00    +0.000 C 
ATOM     10  C   UNL     1       0.248   8.881  20.243  0.00  0.00    +0.000 C 
ATOM     11  N   UNL     1       0.652   9.791  19.169  0.00  0.00    +0.000 N 
ATOM     12  C   UNL     1       1.691   9.481  18.247  0.00  0.00    +0.000 C 
ATOM     13  O   UNL     1       2.101  10.337  17.465  0.00  0.00    +0.000 OA
BRANCH   6  15
ATOM     14  N   UNL     1       1.487  12.975  18.209  0.00  0.00    +0.000 N 
ATOM     15  C   UNL     1       0.316  12.303  18.417  0.00  0.00    +0.000 C 
ATOM     16  O   UNL     1      -0.693  12.609  17.782  0.00  0.00    +0.000 OA
ATOM     17  H   UNL     1       1.450  13.598  17.412  0.00  0.00    +0.000 HD
ATOM     18  H   UNL     1       2.311  12.374  18.201  0.00  0.00    +0.000 HD
ENDBRANCH   6  15
ENDBRANCH   1  12
BRANCH   3  19
ATOM     19  C   UNL     1       2.086   4.540  18.446  0.00  0.00    +0.000 A 
ATOM     20  C   UNL     1       2.488   3.589  17.501  0.00  0.00    +0.000 A 
ATOM     21  C   UNL     1       2.345   2.222  17.761  0.00  0.00    +0.000 A 
ATOM     22  C   UNL     1       1.803   1.787  18.969  0.00  0.00    +0.000 A 
ATOM     23  C   UNL     1       1.338   2.719  19.890  0.00  0.00    +0.000 A 
ATOM     24  C   UNL     1       1.436   4.082  19.607  0.00  0.00    +0.000 A 
ENDBRANCH   3  19
BRANCH   4  25
ATOM     25  C   UNL     1       4.804   5.864  17.436  0.00  0.00    +0.000 A 
ATOM     26  C   UNL     1       5.712   5.343  18.366  0.00  0.00    +0.000 A 
ATOM     27  C   UNL     1       6.966   4.902  17.945  0.00  0.00    +0.000 A 
ATOM     28  C   UNL     1       7.300   4.946  16.593  0.00  0.00    +0.000 A 
ATOM     29  C   UNL     1       6.363   5.386  15.655  0.00  0.00    +0.000 A 
ATOM     30  C   UNL     1       5.105   5.828  16.070  0.00  0.00    +0.000 A 
ENDBRANCH   4  25
TORSDOF 4
ENDMDL
MODEL 8
REMARK VINA RESULT:      -7.8      1.869      2.557
REMARK  Name = 
REMARK  4 active torsions:
REMARK  status: ('A' for Active; 'I' for Inactive)
REMARK    1  A    between atoms: C_2  and  C_4
REMARK    2  A    between atoms: C_10  and  C_12
REMARK    3  A    between atoms: C_14  and  C_15
REMARK    4  A    between atoms: N_21  and  C_22
REMARK                            x       y       z     vdW  Elec       q    Type
REMARK                         _______ _______ _______ _____ _____    ______ ____
ROOT
ATOM      1  C   UNL     1       2.331   7.439  19.342  0.00  0.00    +0.000 A 
ATOM      2  N   UNL     1       3.495   7.615  18.614  0.00  0.00    +0.000 NA
ATOM      3  C   UNL     1       3.826   6.399  18.208  0.00  0.00    +0.000 A 
ATOM      4  N   UNL     1       2.970   5.489  18.828  0.00  0.00    +0.000 N 
ATOM      5  N   UNL     1       1.954   6.153  19.427  0.00  0.00    +0.000 NA
ENDROOT
BRANCH   1  12
ATOM      6  C   UNL     1       0.191  10.622  19.869  0.00  0.00    +0.000 C 
ATOM      7  C   UNL     1      -1.212  10.211  19.384  0.00  0.00    +0.000 C 
ATOM      8  C   UNL     1      -1.256  10.124  17.851  0.00  0.00    +0.000 C 
ATOM      9  C   UNL     1      -0.113   9.267  17.298  0.00  0.00    +0.000 C 
ATOM     10  C   UNL     1       1.233   9.752  17.846  0.00  0.00    +0.000 C 
ATOM     11  N   UNL     1       1.207   9.699  19.309  0.00  0.00    +0.000 N 
ATOM     12  C   UNL     1       1.644   8.563  20.047  0.00  0.00    +0.000 C 
ATOM     13  O   UNL     1       1.457   8.503  21.260  0.00  0.00    +0.000 OA
BRANCH   6  15
ATOM     14  N   UNL     1      -0.602  10.297  22.200  0.00  0.00    +0.000 N 
ATOM     15  C   UNL     1       0.195  11.024  21.361  0.00  0.00    +0.000 C 
ATOM     16  O   UNL     1       0.847  11.972  21.797  0.00  0.00    +0.000 OA
ATOM     17  H   UNL     1      -0.466  10.528  23.176  0.00  0.00    +0.000 HD
ATOM     18  H   UNL     1      -0.574   9.292  22.026  0.00  0.00    +0.000 HD
ENDBRANCH   6  15
ENDBRANCH   1  12
BRANCH   3  19
ATOM     19  C   UNL     1       4.897   6.075  17.246  0.00  0.00    +0.000 A 
ATOM     20  C   UNL     1       6.199   6.536  17.475  0.00  0.00    +0.000 A 
ATOM     21  C   UNL     1       7.254   6.125  16.655  0.00  0.00    +0.000 A 
ATOM     22  C   UNL     1       7.025   5.246  15.598  0.00  0.00    +0.000 A 
ATOM     23  C   UNL     1       5.729   4.832  15.316  0.00  0.00    +0.000 A 
ATOM     24  C   UNL     1       4.669   5.282  16.106  0.00  0.00    +0.000 A 
ENDBRANCH   3  19
BRANCH   4  25
ATOM     25  C   UNL     1       3.022   4.074  18.870  0.00  0.00    +0.000 A 
ATOM     26  C   UNL     1       3.971   3.413  19.660  0.00  0.00    +0.000 A 
ATOM     27  C   UNL     1       4.147   2.036  19.532  0.00  0.00    +0.000 A 
ATOM     28  C   UNL     1       3.352   1.313  18.644  0.00  0.00    +0.000 A 
ATOM     29  C   UNL     1       2.348   1.959  17.919  0.00  0.00    +0.000 A 
ATOM     30  C   UNL     1       2.165   3.338  18.044  0.00  0.00    +0.000 A 
ENDBRANCH   4  25
TORSDOF 4
ENDMDL
MODEL 9
REMARK VINA RESULT:      -7.7      1.948      2.644
REMARK  Name = 
REMARK  4 active torsions:
REMARK  status: ('A' for Active; 'I' for Inactive)
REMARK    1  A    between atoms: C_2  and  C_4
REMARK    2  A    between atoms: C_10  and  C_12
REMARK    3  A    between atoms: C_14  and  C_15
REMARK    4  A    between atoms: N_21  and  C_22
REMARK                            x       y       z     vdW  Elec       q    Type
REMARK                         _______ _______ _______ _____ _____    ______ ____
ROOT
ATOM      1  C   UNL     1       1.543   8.161  20.240  0.00  0.00    +0.000 A 
ATOM      2  N   UNL     1       2.740   8.062  19.551  0.00  0.00    +0.000 NA
ATOM      3  C   UNL     1       2.905   6.765  19.346  0.00  0.00    +0.000 A 
ATOM      4  N   UNL     1       1.912   6.086  20.052  0.00  0.00    +0.000 N 
ATOM      5  N   UNL     1       0.984   6.967  20.496  0.00  0.00    +0.000 NA
ENDROOT
BRANCH   1  12
ATOM      6  C   UNL     1      -0.187  11.624  20.195  0.00  0.00    +0.000 C 
ATOM      7  C   UNL     1      -1.633  11.311  19.769  0.00  0.00    +0.000 C 
ATOM      8  C   UNL     1      -1.700  10.974  18.272  0.00  0.00    +0.000 C 
ATOM      9  C   UNL     1      -0.675   9.902  17.886  0.00  0.00    +0.000 C 
ATOM     10  C   UNL     1       0.725  10.305  18.362  0.00  0.00    +0.000 C 
ATOM     11  N   UNL     1       0.704  10.503  19.813  0.00  0.00    +0.000 N 
ATOM     12  C   UNL     1       1.004   9.463  20.736  0.00  0.00    +0.000 C 
ATOM     13  O   UNL     1       0.821   9.632  21.940  0.00  0.00    +0.000 OA
BRANCH   6  15
ATOM     14  N   UNL     1      -1.037  11.841  22.519  0.00  0.00    +0.000 N 
ATOM     15  C   UNL     1      -0.122  12.268  21.599  0.00  0.00    +0.000 C 
ATOM     16  O   UNL     1       0.682  13.153  21.892  0.00  0.00    +0.000 OA
ATOM     17  H   UNL     1      -0.868  12.209  23.447  0.00  0.00    +0.000 HD
ATOM     18  H   UNL     1      -1.182  10.831  22.517  0.00  0.00    +0.000 HD
ENDBRANCH   6  15
ENDBRANCH   1  12
BRANCH   3  19
ATOM     19  C   UNL     1       3.944   6.154  18.496  0.00  0.00    +0.000 A 
ATOM     20  C   UNL     1       4.803   5.188  19.034  0.00  0.00    +0.000 A 
ATOM     21  C   UNL     1       5.699   4.496  18.213  0.00  0.00    +0.000 A 
ATOM     22  C   UNL     1       5.747   4.756  16.845  0.00  0.00    +0.000 A 
ATOM     23  C   UNL     1       4.949   5.758  16.306  0.00  0.00    +0.000 A 
ATOM     24  C   UNL     1       4.091   6.482  17.135  0.00  0.00    +0.000 A 
ENDBRANCH   3  19
BRANCH   4  25
ATOM     25  C   UNL     1       1.760   4.701  20.306  0.00  0.00    +0.000 A 
ATOM     26  C   UNL     1       2.222   4.135  21.501  0.00  0.00    +0.000 A 
ATOM     27  C   UNL     1       2.256   2.748  21.647  0.00  0.00    +0.000 A 
ATOM     28  C   UNL     1       1.795   1.929  20.618  0.00  0.00    +0.000 A 
ATOM     29  C   UNL     1       1.255   2.496  19.461  0.00  0.00    +0.000 A 
ATOM     30  C   UNL     1       1.217   3.883  19.309  0.00  0.00    +0.000 A 
ENDBRANCH   4  25
TORSDOF 4
ENDMDL
