MODEL 1
REMARK VINA RESULT:      -8.7      0.000      0.000
REMARK  Name = 
REMARK  3 active torsions:
REMARK  status: ('A' for Active; 'I' for Inactive)
REMARK    1  A    between atoms: C_2  and  C_3
REMARK    2  A    between atoms: C_3  and  C_4
REMARK    3  A    between atoms: N_15  and  C_16
REMARK                            x       y       z     vdW  Elec       q    Type
REMARK                         _______ _______ _______ _____ _____    ______ ____
ROOT
ATOM      1  O   UNL     1       3.117   8.510  17.265  0.00  0.00    +0.000 OA
ATOM      2  C   UNL     1       2.166   8.194  17.983  0.00  0.00    +0.000 C 
ATOM      3  N   UNL     1       1.912   6.920  18.455  0.00  0.00    +0.000 N 
ATOM      4  H   UNL     1       0.975   6.767  18.823  0.00  0.00    +0.000 HD
ENDROOT
BRANCH   3   5
ATOM      5  C   UNL     1       2.780   5.796  18.375  0.00  0.00    +0.000 A 
ATOM      6  C   UNL     1       3.799   5.753  17.412  0.00  0.00    +0.000 A 
ATOM      7  C   UNL     1       4.698   4.689  17.350  0.00  0.00    +0.000 A 
ATOM      8  C   UNL     1       4.599   3.647  18.257  0.00  0.00    +0.000 A 
ATOM      9  C   UNL     1       3.603   3.658  19.243  0.00  0.00    +0.000 A 
ATOM     10  C   UNL     1       2.669   4.727  19.302  0.00  0.00    +0.000 A 
ATOM     11  C   UNL     1       1.603   4.712  20.380  0.00  0.00    +0.000 C 
ATOM     12  C   UNL     1       1.360   3.331  20.995  0.00  0.00    +0.000 C 
ATOM     13  C   UNL     1       2.678   2.697  21.405  0.00  0.00    +0.000 C 
ATOM     14  C   UNL     1       3.542   2.467  20.173  0.00  0.00    +0.000 C 
ENDBRANCH   3   5
BRANCH   2  15
ATOM     15  C   UNL     1       1.247   9.300  18.468  0.00  0.00    +0.000 C 
BRANCH  15  16
ATOM     16  C   UNL     1       0.924   9.417  19.944  0.00  0.00    +0.000 A 
ATOM     17  N   UNL     1       1.558   8.634  20.764  0.00  0.00    +0.000 NA
ATOM     18  N   UNL     1       1.311   8.751  22.095  0.00  0.00    +0.000 N 
ATOM     19  C   UNL     1       0.440   9.630  22.685  0.00  0.00    +0.000 A 
ATOM     20  O   UNL     1       0.277   9.672  23.899  0.00  0.00    +0.000 OA
ATOM     21  C   UNL     1      -0.278  10.541  21.780  0.00  0.00    +0.000 A 
ATOM     22  C   UNL     1      -1.165  11.488  22.306  0.00  0.00    +0.000 A 
ATOM     23  C   UNL     1      -1.798  12.392  21.457  0.00  0.00    +0.000 A 
ATOM     24  C   UNL     1      -1.540  12.351  20.090  0.00  0.00    +0.000 A 
ATOM     25  C   UNL     1      -0.660  11.394  19.563  0.00  0.00    +0.000 A 
ATOM     26  C   UNL     1      -0.030  10.471  20.408  0.00  0.00    +0.000 A 
ATOM     27  H   UNL     1       1.837   8.145  22.718  0.00  0.00    +0.000 HD
ENDBRANCH  15  16
ENDBRANCH   2  15
TORSDOF 3
ENDMDL
MODEL 2
REMARK VINA RESULT:      -8.6      1.012      1.067
REMARK  Name = 
REMARK  3 active torsions:
REMARK  status: ('A' for Active; 'I' for Inactive)
REMARK    1  A    between atoms: C_2  and  C_3
REMARK    2  A    between atoms: C_3  and  C_4
REMARK    3  A    between atoms: N_15  and  C_16
REMARK                            x       y       z     vdW  Elec       q    Type
REMARK                         _______ _______ _______ _____ _____    ______ ____
ROOT
ATOM      1  O   UNL     1       2.827   8.996  17.049  0.00  0.00    +0.000 OA
ATOM      2  C   UNL     1       2.008   8.489  17.818  0.00  0.00    +0.000 C 
ATOM      3  N   UNL     1       2.003   7.166  18.219  0.00  0.00    +0.000 N 
ATOM      4  H   UNL     1       1.140   6.842  18.650  0.00  0.00    +0.000 HD
ENDROOT
BRANCH   3   5
ATOM      5  C   UNL     1       3.027   6.206  17.990  0.00  0.00    +0.000 A 
ATOM      6  C   UNL     1       4.307   6.614  17.588  0.00  0.00    +0.000 A 
ATOM      7  C   UNL     1       5.343   5.698  17.413  0.00  0.00    +0.000 A 
ATOM      8  C   UNL     1       5.119   4.350  17.644  0.00  0.00    +0.000 A 
ATOM      9  C   UNL     1       3.858   3.902  18.060  0.00  0.00    +0.000 A 
ATOM     10  C   UNL     1       2.791   4.825  18.221  0.00  0.00    +0.000 A 
ATOM     11  C   UNL     1       1.437   4.312  18.672  0.00  0.00    +0.000 C 
ATOM     12  C   UNL     1       1.241   2.807  18.460  0.00  0.00    +0.000 C 
ATOM     13  C   UNL     1       2.425   2.038  19.020  0.00  0.00    +0.000 C 
ATOM     14  C   UNL     1       3.688   2.413  18.257  0.00  0.00    +0.000 C 
ENDBRANCH   3   5
BRANCH   2  15
ATOM     15  C   UNL     1       0.973   9.401  18.452  0.00  0.00    +0.000 C 
BRANCH  15  16
ATOM     16  C   UNL     1       0.818   9.428  19.959  0.00  0.00    +0.000 A 
ATOM     17  N   UNL     1       1.586   8.648  20.659  0.00  0.00    +0.000 NA
ATOM     18  N   UNL     1       1.489   8.687  22.014  0.00  0.00    +0.000 N 
ATOM     19  C   UNL     1       0.643   9.482  22.745  0.00  0.00    +0.000 A 
ATOM     20  O   UNL     1       0.620   9.457  23.970  0.00  0.00    +0.000 OA
ATOM     21  C   UNL     1      -0.225  10.388  21.977  0.00  0.00    +0.000 A 
ATOM     22  C   UNL     1      -1.098  11.252  22.650  0.00  0.00    +0.000 A 
ATOM     23  C   UNL     1      -1.875  12.153  21.928  0.00  0.00    +0.000 A 
ATOM     24  C   UNL     1      -1.776  12.192  20.539  0.00  0.00    +0.000 A 
ATOM     25  C   UNL     1      -0.910  11.317  19.866  0.00  0.00    +0.000 A 
ATOM     26  C   UNL     1      -0.134  10.397  20.584  0.00  0.00    +0.000 A 
ATOM     27  H   UNL     1       2.117   8.088  22.540  0.00  0.00    +0.000 HD
ENDBRANCH  15  16
ENDBRANCH   2  15
TORSDOF 3
ENDMDL
MODEL 3
REMARK VINA RESULT:      -8.6      1.942      7.480
REMARK  Name = 
REMARK  3 active torsions:
REMARK  status: ('A' for Active; 'I' for Inactive)
REMARK    1  A    between atoms: C_2  and  C_3
REMARK    2  A    between atoms: C_3  and  C_4
REMARK    3  A    between atoms: N_15  and  C_16
REMARK                            x       y       z     vdW  Elec       q    Type
REMARK                         _______ _______ _______ _____ _____    ______ ____
ROOT
ATOM      1  O   UNL     1       2.285  10.442  17.620  0.00  0.00    +0.000 OA
ATOM      2  C   UNL     1       1.855   9.355  18.010  0.00  0.00    +0.000 C 
ATOM      3  N   UNL     1       0.574   9.125  18.476  0.00  0.00    +0.000 N 
ATOM      4  H   UNL     1       0.443   8.253  18.986  0.00  0.00    +0.000 HD
ENDROOT
BRANCH   3   5
ATOM      5  C   UNL     1      -0.527  10.023  18.411  0.00  0.00    +0.000 A 
ATOM      6  C   UNL     1      -1.369  10.034  17.290  0.00  0.00    +0.000 A 
ATOM      7  C   UNL     1      -2.488  10.862  17.226  0.00  0.00    +0.000 A 
ATOM      8  C   UNL     1      -2.792  11.695  18.291  0.00  0.00    +0.000 A 
ATOM      9  C   UNL     1      -1.984  11.705  19.436  0.00  0.00    +0.000 A 
ATOM     10  C   UNL     1      -0.830  10.879  19.502  0.00  0.00    +0.000 A 
ATOM     11  C   UNL     1       0.026  10.911  20.753  0.00  0.00    +0.000 C 
ATOM     12  C   UNL     1      -0.182  12.158  21.617  0.00  0.00    +0.000 C 
ATOM     13  C   UNL     1      -1.664  12.389  21.861  0.00  0.00    +0.000 C 
ATOM     14  C   UNL     1      -2.364  12.668  20.539  0.00  0.00    +0.000 C 
ENDBRANCH   3   5
BRANCH   2  15
ATOM     15  C   UNL     1       2.768   8.148  17.889  0.00  0.00    +0.000 C 
BRANCH  15  16
ATOM     16  C   UNL     1       2.654   7.018  18.891  0.00  0.00    +0.000 A 
ATOM     17  N   UNL     1       2.068   7.270  20.023  0.00  0.00    +0.000 NA
ATOM     18  N   UNL     1       1.922   6.258  20.918  0.00  0.00    +0.000 N 
ATOM     19  C   UNL     1       2.339   4.962  20.754  0.00  0.00    +0.000 A 
ATOM     20  O   UNL     1       2.165   4.107  21.615  0.00  0.00    +0.000 OA
ATOM     21  C   UNL     1       2.990   4.645  19.474  0.00  0.00    +0.000 A 
ATOM     22  C   UNL     1       3.420   3.337  19.217  0.00  0.00    +0.000 A 
ATOM     23  C   UNL     1       3.980   3.022  17.983  0.00  0.00    +0.000 A 
ATOM     24  C   UNL     1       4.105   4.008  17.009  0.00  0.00    +0.000 A 
ATOM     25  C   UNL     1       3.685   5.321  17.272  0.00  0.00    +0.000 A 
ATOM     26  C   UNL     1       3.133   5.651  18.517  0.00  0.00    +0.000 A 
ATOM     27  H   UNL     1       1.437   6.474  21.784  0.00  0.00    +0.000 HD
ENDBRANCH  15  16
ENDBRANCH   2  15
TORSDOF 3
ENDMDL
MODEL 4
REMARK VINA RESULT:      -8.5      2.193      7.504
REMARK  Name = 
REMARK  3 active torsions:
REMARK  status: ('A' for Active; 'I' for Inactive)
REMARK    1  A    between atoms: C_2  and  C_3
REMARK    2  A    between atoms: C_3  and  C_4
REMARK    3  A    between atoms: N_15  and  C_16
REMARK                            x       y       z     vdW  Elec       q    Type
REMARK                         _______ _______ _______ _____ _____    ______ ____
ROOT
ATOM      1  O   UNL     1       2.313   9.643  17.533  0.00  0.00    +0.000 OA
ATOM      2  C   UNL     1       1.986   8.740  18.306  0.00  0.00    +0.000 C 
ATOM      3  N   UNL     1       1.157   8.890  19.402  0.00  0.00    +0.000 N 
ATOM      4  H   UNL     1       1.178   8.127  20.075  0.00  0.00    +0.000 HD
ENDROOT
BRANCH   3   5
ATOM      5  C   UNL     1       0.379  10.035  19.728  0.00  0.00    +0.000 A 
ATOM      6  C   UNL     1       0.754  10.870  20.790  0.00  0.00    +0.000 A 
ATOM      7  C   UNL     1       0.042  12.030  21.093  0.00  0.00    +0.000 A 
ATOM      8  C   UNL     1      -1.061  12.381  20.331  0.00  0.00    +0.000 A 
ATOM      9  C   UNL     1      -1.461  11.582  19.252  0.00  0.00    +0.000 A 
ATOM     10  C   UNL     1      -0.754  10.388  18.949  0.00  0.00    +0.000 A 
ATOM     11  C   UNL     1      -1.210   9.542  17.775  0.00  0.00    +0.000 C 
ATOM     12  C   UNL     1      -2.650   9.818  17.332  0.00  0.00    +0.000 C 
ATOM     13  C   UNL     1      -2.870  11.311  17.156  0.00  0.00    +0.000 C 
ATOM     14  C   UNL     1      -2.695  12.017  18.494  0.00  0.00    +0.000 C 
ENDBRANCH   3   5
BRANCH   2  15
ATOM     15  C   UNL     1       2.454   7.332  17.988  0.00  0.00    +0.000 C 
BRANCH  15  16
ATOM     16  C   UNL     1       2.420   6.268  19.066  0.00  0.00    +0.000 A 
ATOM     17  N   UNL     1       2.247   6.656  20.293  0.00  0.00    +0.000 NA
ATOM     18  N   UNL     1       2.174   5.714  21.269  0.00  0.00    +0.000 N 
ATOM     19  C   UNL     1       2.268   4.356  21.095  0.00  0.00    +0.000 A 
ATOM     20  O   UNL     1       2.189   3.571  22.033  0.00  0.00    +0.000 OA
ATOM     21  C   UNL     1       2.446   3.888  19.712  0.00  0.00    +0.000 A 
ATOM     22  C   UNL     1       2.522   2.515  19.447  0.00  0.00    +0.000 A 
ATOM     23  C   UNL     1       2.629   2.068  18.134  0.00  0.00    +0.000 A 
ATOM     24  C   UNL     1       2.654   2.989  17.090  0.00  0.00    +0.000 A 
ATOM     25  C   UNL     1       2.589   4.365  17.359  0.00  0.00    +0.000 A 
ATOM     26  C   UNL     1       2.497   4.825  18.679  0.00  0.00    +0.000 A 
ATOM     27  H   UNL     1       2.013   6.040  22.217  0.00  0.00    +0.000 HD
ENDBRANCH  15  16
ENDBRANCH   2  15
TORSDOF 3
ENDMDL
MODEL 5
REMARK VINA RESULT:      -8.5      2.247      7.637
REMARK  Name = 
REMARK  3 active torsions:
REMARK  status: ('A' for Active; 'I' for Inactive)
REMARK    1  A    between atoms: C_2  and  C_3
REMARK    2  A    between atoms: C_3  and  C_4
REMARK    3  A    between atoms: N_15  and  C_16
REMARK                            x       y       z     vdW  Elec       q    Type
REMARK                         _______ _______ _______ _____ _____    ______ ____
ROOT
ATOM      1  O   UNL     1       2.059  10.786  17.869  0.00  0.00    +0.000 OA
ATOM      2  C   UNL     1       1.711   9.707  18.353  0.00  0.00    +0.000 C 
ATOM      3  N   UNL     1       0.587   9.508  19.131  0.00  0.00    +0.000 N 
ATOM      4  H   UNL     1       0.564   8.635  19.654  0.00  0.00    +0.000 HD
ENDROOT
BRANCH   3   5
ATOM      5  C   UNL     1      -0.468  10.436  19.353  0.00  0.00    +0.000 A 
ATOM      6  C   UNL     1      -0.447  11.279  20.473  0.00  0.00    +0.000 A 
ATOM      7  C   UNL     1      -1.438  12.237  20.684  0.00  0.00    +0.000 A 
ATOM      8  C   UNL     1      -2.469  12.375  19.769  0.00  0.00    +0.000 A 
ATOM      9  C   UNL     1      -2.520  11.562  18.629  0.00  0.00    +0.000 A 
ATOM     10  C   UNL     1      -1.526  10.569  18.417  0.00  0.00    +0.000 A 
ATOM     11  C   UNL     1      -1.606   9.703  17.175  0.00  0.00    +0.000 C 
ATOM     12  C   UNL     1      -2.992   9.677  16.523  0.00  0.00    +0.000 C 
ATOM     13  C   UNL     1      -3.514  11.092  16.340  0.00  0.00    +0.000 C 
ATOM     14  C   UNL     1      -3.697  11.752  17.699  0.00  0.00    +0.000 C 
ENDBRANCH   3   5
BRANCH   2  15
ATOM     15  C   UNL     1       2.526   8.477  17.998  0.00  0.00    +0.000 C 
BRANCH  15  16
ATOM     16  C   UNL     1       2.536   7.286  18.935  0.00  0.00    +0.000 A 
ATOM     17  N   UNL     1       1.892   7.396  20.058  0.00  0.00    +0.000 NA
ATOM     18  N   UNL     1       1.856   6.326  20.893  0.00  0.00    +0.000 N 
ATOM     19  C   UNL     1       2.443   5.105  20.676  0.00  0.00    +0.000 A 
ATOM     20  O   UNL     1       2.360   4.187  21.484  0.00  0.00    +0.000 OA
ATOM     21  C   UNL     1       3.163   4.948  19.403  0.00  0.00    +0.000 A 
ATOM     22  C   UNL     1       3.766   3.722  19.092  0.00  0.00    +0.000 A 
ATOM     23  C   UNL     1       4.394   3.552  17.862  0.00  0.00    +0.000 A 
ATOM     24  C   UNL     1       4.415   4.600  16.945  0.00  0.00    +0.000 A 
ATOM     25  C   UNL     1       3.820   5.830  17.263  0.00  0.00    +0.000 A 
ATOM     26  C   UNL     1       3.198   6.016  18.505  0.00  0.00    +0.000 A 
ATOM     27  H   UNL     1       1.326   6.428  21.754  0.00  0.00    +0.000 HD
ENDBRANCH  15  16
ENDBRANCH   2  15
TORSDOF 3
ENDMDL
MODEL 6
REMARK VINA RESULT:      -8.5      2.312      7.003
REMARK  Name = 
REMARK  3 active torsions:
REMARK  status: ('A' for Active; 'I' for Inactive)
REMARK    1  A    between atoms: C_2  and  C_3
REMARK    2  A    between atoms: C_3  and  C_4
REMARK    3  A    between atoms: N_15  and  C_16
REMARK                            x       y       z     vdW  Elec       q    Type
REMARK                         _______ _______ _______ _____ _____    ______ ____
ROOT
ATOM      1  O   UNL     1       4.290   7.721  17.787  0.00  0.00    +0.000 OA
ATOM      2  C   UNL     1       3.271   7.056  17.984  0.00  0.00    +0.000 C 
ATOM      3  N   UNL     1       2.104   7.533  18.550  0.00  0.00    +0.000 N 
ATOM      4  H   UNL     1       1.449   6.822  18.871  0.00  0.00    +0.000 HD
ENDROOT
BRANCH   3   5
ATOM      5  C   UNL     1       1.786   8.893  18.823  0.00  0.00    +0.000 A 
ATOM      6  C   UNL     1       2.038   9.887  17.866  0.00  0.00    +0.000 A 
ATOM      7  C   UNL     1       1.684  11.217  18.086  0.00  0.00    +0.000 A 
ATOM      8  C   UNL     1       1.062  11.579  19.269  0.00  0.00    +0.000 A 
ATOM      9  C   UNL     1       0.780  10.614  20.246  0.00  0.00    +0.000 A 
ATOM     10  C   UNL     1       1.156   9.260  20.040  0.00  0.00    +0.000 A 
ATOM     11  C   UNL     1       0.838   8.237  21.114  0.00  0.00    +0.000 C 
ATOM     12  C   UNL     1       0.564   8.848  22.492  0.00  0.00    +0.000 C 
ATOM     13  C   UNL     1      -0.447   9.976  22.377  0.00  0.00    +0.000 C 
ATOM     14  C   UNL     1       0.130  11.097  21.523  0.00  0.00    +0.000 C 
ENDBRANCH   3   5
BRANCH   2  15
ATOM     15  C   UNL     1       3.256   5.621  17.488  0.00  0.00    +0.000 C 
BRANCH  15  16
ATOM     16  C   UNL     1       3.752   4.509  18.390  0.00  0.00    +0.000 A 
ATOM     17  N   UNL     1       4.990   4.137  18.264  0.00  0.00    +0.000 NA
ATOM     18  N   UNL     1       5.464   3.169  19.091  0.00  0.00    +0.000 N 
ATOM     19  C   UNL     1       4.758   2.522  20.073  0.00  0.00    +0.000 A 
ATOM     20  O   UNL     1       5.265   1.658  20.780  0.00  0.00    +0.000 OA
ATOM     21  C   UNL     1       3.359   2.938  20.249  0.00  0.00    +0.000 A 
ATOM     22  C   UNL     1       2.577   2.345  21.250  0.00  0.00    +0.000 A 
ATOM     23  C   UNL     1       1.272   2.781  21.458  0.00  0.00    +0.000 A 
ATOM     24  C   UNL     1       0.753   3.807  20.674  0.00  0.00    +0.000 A 
ATOM     25  C   UNL     1       1.533   4.391  19.665  0.00  0.00    +0.000 A 
ATOM     26  C   UNL     1       2.843   3.950  19.438  0.00  0.00    +0.000 A 
ATOM     27  H   UNL     1       6.442   2.913  18.991  0.00  0.00    +0.000 HD
ENDBRANCH  15  16
ENDBRANCH   2  15
TORSDOF 3
ENDMDL
MODEL 7
REMARK VINA RESULT:      -8.5      1.971      7.236
REMARK  Name = 
REMARK  3 active torsions:
REMARK  status: ('A' for Active; 'I' for Inactive)
REMARK    1  A    between atoms: C_2  and  C_3
REMARK    2  A    between atoms: C_3  and  C_4
REMARK    3  A    between atoms: N_15  and  C_16
REMARK                            x       y       z     vdW  Elec       q    Type
REMARK                         _______ _______ _______ _____ _____    ______ ____
ROOT
ATOM      1  O   UNL     1       2.711   9.188  17.390  0.00  0.00    +0.000 OA
ATOM      2  C   UNL     1       2.229   8.385  18.190  0.00  0.00    +0.000 C 
ATOM      3  N   UNL     1       1.464   8.718  19.292  0.00  0.00    +0.000 N 
ATOM      4  H   UNL     1       1.347   7.981  19.984  0.00  0.00    +0.000 HD
ENDROOT
BRANCH   3   5
ATOM      5  C   UNL     1       0.929  10.000  19.599  0.00  0.00    +0.000 A 
ATOM      6  C   UNL     1       0.972  11.033  18.651  0.00  0.00    +0.000 A 
ATOM      7  C   UNL     1       0.404  12.280  18.905  0.00  0.00    +0.000 A 
ATOM      8  C   UNL     1      -0.226  12.518  20.115  0.00  0.00    +0.000 A 
ATOM      9  C   UNL     1      -0.302  11.509  21.086  0.00  0.00    +0.000 A 
ATOM     10  C   UNL     1       0.292  10.242  20.844  0.00  0.00    +0.000 A 
ATOM     11  C   UNL     1       0.194   9.169  21.911  0.00  0.00    +0.000 C 
ATOM     12  C   UNL     1      -0.127   9.709  23.308  0.00  0.00    +0.000 C 
ATOM     13  C   UNL     1      -1.320  10.649  23.248  0.00  0.00    +0.000 C 
ATOM     14  C   UNL     1      -0.975  11.861  22.393  0.00  0.00    +0.000 C 
ENDBRANCH   3   5
BRANCH   2  15
ATOM     15  C   UNL     1       2.407   6.905  17.902  0.00  0.00    +0.000 C 
BRANCH  15  16
ATOM     16  C   UNL     1       2.393   5.910  19.045  0.00  0.00    +0.000 A 
ATOM     17  N   UNL     1       2.217   6.372  20.246  0.00  0.00    +0.000 NA
ATOM     18  N   UNL     1       2.162   5.492  21.279  0.00  0.00    +0.000 N 
ATOM     19  C   UNL     1       2.278   4.128  21.190  0.00  0.00    +0.000 A 
ATOM     20  O   UNL     1       2.214   3.402  22.176  0.00  0.00    +0.000 OA
ATOM     21  C   UNL     1       2.460   3.577  19.839  0.00  0.00    +0.000 A 
ATOM     22  C   UNL     1       2.559   2.191  19.660  0.00  0.00    +0.000 A 
ATOM     23  C   UNL     1       2.669   1.664  18.377  0.00  0.00    +0.000 A 
ATOM     24  C   UNL     1       2.677   2.519  17.278  0.00  0.00    +0.000 A 
ATOM     25  C   UNL     1       2.590   3.907  17.459  0.00  0.00    +0.000 A 
ATOM     26  C   UNL     1       2.493   4.448  18.749  0.00  0.00    +0.000 A 
ATOM     27  H   UNL     1       1.997   5.875  22.205  0.00  0.00    +0.000 HD
ENDBRANCH  15  16
ENDBRANCH   2  15
TORSDOF 3
ENDMDL
MODEL 8
REMARK VINA RESULT:      -8.4      2.068      3.669
REMARK  Name = 
REMARK  3 active torsions:
REMARK  status: ('A' for Active; 'I' for Inactive)
REMARK    1  A    between atoms: C_2  and  C_3
REMARK    2  A    between atoms: C_3  and  C_4
REMARK    3  A    between atoms: N_15  and  C_16
REMARK                            x       y       z     vdW  Elec       q    Type
REMARK                         _______ _______ _______ _____ _____    ______ ____
ROOT
ATOM      1  O   UNL     1       0.874   5.083  20.409  0.00  0.00    +0.000 OA
ATOM      2  C   UNL     1       1.842   5.819  20.615  0.00  0.00    +0.000 C 
ATOM      3  N   UNL     1       3.118   5.614  20.125  0.00  0.00    +0.000 N 
ATOM      4  H   UNL     1       3.853   6.158  20.574  0.00  0.00    +0.000 HD
ENDROOT
BRANCH   3   5
ATOM      5  C   UNL     1       3.510   4.653  19.152  0.00  0.00    +0.000 A 
ATOM      6  C   UNL     1       3.185   3.300  19.318  0.00  0.00    +0.000 A 
ATOM      7  C   UNL     1       3.506   2.348  18.352  0.00  0.00    +0.000 A 
ATOM      8  C   UNL     1       4.157   2.735  17.192  0.00  0.00    +0.000 A 
ATOM      9  C   UNL     1       4.489   4.080  16.980  0.00  0.00    +0.000 A 
ATOM     10  C   UNL     1       4.184   5.054  17.969  0.00  0.00    +0.000 A 
ATOM     11  C   UNL     1       4.555   6.502  17.713  0.00  0.00    +0.000 C 
ATOM     12  C   UNL     1       5.624   6.688  16.632  0.00  0.00    +0.000 C 
ATOM     13  C   UNL     1       5.254   5.902  15.385  0.00  0.00    +0.000 C 
ATOM     14  C   UNL     1       5.229   4.414  15.705  0.00  0.00    +0.000 C 
ENDBRANCH   3   5
BRANCH   2  15
ATOM     15  C   UNL     1       1.603   7.101  21.391  0.00  0.00    +0.000 C 
BRANCH  15  16
ATOM     16  C   UNL     1       1.276   8.380  20.647  0.00  0.00    +0.000 A 
ATOM     17  N   UNL     1       1.677   8.482  19.416  0.00  0.00    +0.000 NA
ATOM     18  N   UNL     1       1.358   9.604  18.720  0.00  0.00    +0.000 N 
ATOM     19  C   UNL     1       0.638  10.673  19.189  0.00  0.00    +0.000 A 
ATOM     20  O   UNL     1       0.392  11.650  18.491  0.00  0.00    +0.000 OA
ATOM     21  C   UNL     1       0.156  10.575  20.575  0.00  0.00    +0.000 A 
ATOM     22  C   UNL     1      -0.611  11.614  21.120  0.00  0.00    +0.000 A 
ATOM     23  C   UNL     1      -1.120  11.495  22.409  0.00  0.00    +0.000 A 
ATOM     24  C   UNL     1      -0.868  10.343  23.148  0.00  0.00    +0.000 A 
ATOM     25  C   UNL     1      -0.090   9.309  22.605  0.00  0.00    +0.000 A 
ATOM     26  C   UNL     1       0.439   9.425  21.313  0.00  0.00    +0.000 A 
ATOM     27  H   UNL     1       1.661   9.650  17.751  0.00  0.00    +0.000 HD
ENDBRANCH  15  16
ENDBRANCH   2  15
TORSDOF 3
ENDMDL
MODEL 9
REMARK VINA RESULT:      -8.3      2.461      8.190
REMARK  Name = 
REMARK  3 active torsions:
REMARK  status: ('A' for Active; 'I' for Inactive)
REMARK    1  A    between atoms: C_2  and  C_3
REMARK    2  A    between atoms: C_3  and  C_4
REMARK    3  A    between atoms: N_15  and  C_16
REMARK                            x       y       z     vdW  Elec       q    Type
REMARK                         _______ _______ _______ _____ _____    ______ ____
ROOT
ATOM      1  O   UNL     1       1.719   8.394  19.794  0.00  0.00    +0.000 OA
ATOM      2  C   UNL     1       1.858   8.715  18.612  0.00  0.00    +0.000 C 
ATOM      3  N   UNL     1       1.164   9.725  17.972  0.00  0.00    +0.000 N 
ATOM      4  H   UNL     1       1.205   9.709  16.955  0.00  0.00    +0.000 HD
ENDROOT
BRANCH   3   5
ATOM      5  C   UNL     1       0.323  10.696  18.583  0.00  0.00    +0.000 A 
ATOM      6  C   UNL     1       0.862  11.663  19.443  0.00  0.00    +0.000 A 
ATOM      7  C   UNL     1       0.069  12.660  20.008  0.00  0.00    +0.000 A 
ATOM      8  C   UNL     1      -1.284  12.713  19.717  0.00  0.00    +0.000 A 
ATOM      9  C   UNL     1      -1.861  11.773  18.852  0.00  0.00    +0.000 A 
ATOM     10  C   UNL     1      -1.065  10.741  18.288  0.00  0.00    +0.000 A 
ATOM     11  C   UNL     1      -1.716   9.738  17.355  0.00  0.00    +0.000 C 
ATOM     12  C   UNL     1      -3.240   9.667  17.485  0.00  0.00    +0.000 C 
ATOM     13  C   UNL     1      -3.840  11.062  17.428  0.00  0.00    +0.000 C 
ATOM     14  C   UNL     1      -3.350  11.880  18.615  0.00  0.00    +0.000 C 
ENDBRANCH   3   5
BRANCH   2  15
ATOM     15  C   UNL     1       2.939   8.013  17.811  0.00  0.00    +0.000 C 
BRANCH  15  16
ATOM     16  C   UNL     1       3.059   6.503  17.872  0.00  0.00    +0.000 A 
ATOM     17  N   UNL     1       2.163   5.854  18.552  0.00  0.00    +0.000 NA
ATOM     18  N   UNL     1       2.231   4.497  18.586  0.00  0.00    +0.000 N 
ATOM     19  C   UNL     1       3.170   3.715  17.963  0.00  0.00    +0.000 A 
ATOM     20  O   UNL     1       3.158   2.492  18.043  0.00  0.00    +0.000 OA
ATOM     21  C   UNL     1       4.186   4.425  17.171  0.00  0.00    +0.000 A 
ATOM     22  C   UNL     1       5.164   3.697  16.481  0.00  0.00    +0.000 A 
ATOM     23  C   UNL     1       6.087   4.363  15.682  0.00  0.00    +0.000 A 
ATOM     24  C   UNL     1       6.031   5.750  15.569  0.00  0.00    +0.000 A 
ATOM     25  C   UNL     1       5.058   6.478  16.270  0.00  0.00    +0.000 A 
ATOM     26  C   UNL     1       4.133   5.817  17.089  0.00  0.00    +0.000 A 
ATOM     27  H   UNL     1       1.505   4.010  19.103  0.00  0.00    +0.000 HD
ENDBRANCH  15  16
ENDBRANCH   2  15
TORSDOF 3
ENDMDL
