MODEL 1
REMARK VINA RESULT:      -8.2      0.000      0.000
REMARK  Name = 
REMARK  8 active torsions:
REMARK  status: ('A' for Active; 'I' for Inactive)
REMARK    1  A    between atoms: C_1  and  N_2
REMARK    2  A    between atoms: C_6  and  C_7
REMARK    3  A    between atoms: C_7  and  C_8
REMARK    4  A    between atoms: C_8  and  C_9
REMARK    5  A    between atoms: C_13  and  N_14
REMARK    6  A    between atoms: C_19  and  C_20
REMARK    7  A    between atoms: C_20  and  N_21
REMARK    8  A    between atoms: N_21  and  C_22
REMARK                            x       y       z     vdW  Elec       q    Type
REMARK                         _______ _______ _______ _____ _____    ______ ____
ROOT
ATOM      1  C   UNL     1       2.507   7.046  19.187  0.00  0.00    +0.000 A 
ATOM      2  C   UNL     1       2.140   6.741  20.513  0.00  0.00    +0.000 A 
ATOM      3  C   UNL     1       1.282   7.557  21.244  0.00  0.00    +0.000 A 
ATOM      4  C   UNL     1       0.812   8.736  20.680  0.00  0.00    +0.000 A 
ATOM      5  C   UNL     1       1.224   9.133  19.402  0.00  0.00    +0.000 A 
ATOM      6  C   UNL     1       2.020   8.262  18.653  0.00  0.00    +0.000 A 
ENDROOT
BRANCH   5   7
ATOM      7  N   UNL     1       0.983  10.460  18.914  0.00  0.00    +0.000 N 
ATOM      8  C   UNL     1       1.042  11.586  19.878  0.00  0.00    +0.000 C 
ATOM      9  C   UNL     1      -0.378  11.815  19.533  0.00  0.00    +0.000 A 
ATOM     10  C   UNL     1      -1.556  12.457  19.797  0.00  0.00    +0.000 A 
ATOM     11  C   UNL     1      -2.624  12.178  18.940  0.00  0.00    +0.000 A 
ATOM     12  C   UNL     1      -2.483  11.273  17.850  0.00  0.00    +0.000 A 
ATOM     13  C   UNL     1      -1.277  10.572  17.674  0.00  0.00    +0.000 A 
ATOM     14  C   UNL     1      -0.277  10.869  18.550  0.00  0.00    +0.000 A 
BRANCH  12  15
ATOM     15  C   UNL     1      -3.620  11.114  16.860  0.00  0.00    +0.000 C 
BRANCH  15  16
ATOM     16  N   UNL     1      -3.181  11.359  15.492  0.00  0.00    +0.000 NA
ATOM     17  H   UNL     1      -2.165  11.412  15.495  0.00  0.00    +0.000 HD
BRANCH  16  18
ATOM     18  C   UNL     1      -3.553  10.247  14.643  0.00  0.00    +0.000 C 
ATOM     19  F   UNL     1      -2.477   9.895  13.905  0.00  0.00    +0.000 F 
ENDBRANCH  16  18
ENDBRANCH  15  16
ENDBRANCH  12  15
ENDBRANCH   5   7
BRANCH   1  20
ATOM     20  C   UNL     1       3.474   6.085  18.344  0.00  0.00    +0.000 C 
ATOM     21  C   UNL     1       4.540   5.256  19.114  0.00  0.00    +0.000 C 
ATOM     22  O   UNL     1       3.993   4.004  18.649  0.00  0.00    +0.000 OA
ATOM     23  C   UNL     1       2.894   4.680  18.009  0.00  0.00    +0.000 C 
BRANCH  20  24
ATOM     24  C   UNL     1       3.979   6.807  17.081  0.00  0.00    +0.000 C 
BRANCH  24  30
ATOM     25  C   UNL     1       5.225   4.385  15.399  0.00  0.00    +0.000 C 
ATOM     26  N   UNL     1       5.919   5.471  16.044  0.00  0.00    +0.000 N 
ATOM     27  C   UNL     1       7.274   5.594  16.094  0.00  0.00    +0.000 A 
ATOM     28  N   UNL     1       7.591   6.691  16.734  0.00  0.00    +0.000 NA
ATOM     29  N   UNL     1       6.423   7.292  17.133  0.00  0.00    +0.000 NA
ATOM     30  C   UNL     1       5.411   6.546  16.734  0.00  0.00    +0.000 A 
ENDBRANCH  24  30
ENDBRANCH  20  24
ENDBRANCH   1  20
TORSDOF 7
ENDMDL
MODEL 2
REMARK VINA RESULT:      -8.0      0.843      1.089
REMARK  Name = 
REMARK  8 active torsions:
REMARK  status: ('A' for Active; 'I' for Inactive)
REMARK    1  A    between atoms: C_1  and  N_2
REMARK    2  A    between atoms: C_6  and  C_7
REMARK    3  A    between atoms: C_7  and  C_8
REMARK    4  A    between atoms: C_8  and  C_9
REMARK    5  A    between atoms: C_13  and  N_14
REMARK    6  A    between atoms: C_19  and  C_20
REMARK    7  A    between atoms: C_20  and  N_21
REMARK    8  A    between atoms: N_21  and  C_22
REMARK                            x       y       z     vdW  Elec       q    Type
REMARK                         _______ _______ _______ _____ _____    ______ ____
ROOT
ATOM      1  C   UNL     1       2.820   6.768  19.097  0.00  0.00    +0.000 A 
ATOM      2  C   UNL     1       2.343   6.500  20.396  0.00  0.00    +0.000 A 
ATOM      3  C   UNL     1       1.394   7.310  21.012  0.00  0.00    +0.000 A 
ATOM      4  C   UNL     1       0.935   8.447  20.359  0.00  0.00    +0.000 A 
ATOM      5  C   UNL     1       1.449   8.810  19.108  0.00  0.00    +0.000 A 
ATOM      6  C   UNL     1       2.341   7.942  18.471  0.00  0.00    +0.000 A 
ENDROOT
BRANCH   5   7
ATOM      7  N   UNL     1       1.206  10.107  18.545  0.00  0.00    +0.000 N 
ATOM      8  C   UNL     1       1.391  11.296  19.411  0.00  0.00    +0.000 C 
ATOM      9  C   UNL     1      -0.046  11.556  19.180  0.00  0.00    +0.000 A 
ATOM     10  C   UNL     1      -1.172  12.261  19.500  0.00  0.00    +0.000 A 
ATOM     11  C   UNL     1      -2.324  11.963  18.768  0.00  0.00    +0.000 A 
ATOM     12  C   UNL     1      -2.316  10.976  17.742  0.00  0.00    +0.000 A 
ATOM     13  C   UNL     1      -1.155  10.218  17.510  0.00  0.00    +0.000 A 
ATOM     14  C   UNL     1      -0.069  10.537  18.267  0.00  0.00    +0.000 A 
BRANCH  12  15
ATOM     15  C   UNL     1      -3.545  10.791  16.874  0.00  0.00    +0.000 C 
BRANCH  15  16
ATOM     16  N   UNL     1      -3.302  11.211  15.500  0.00  0.00    +0.000 NA
ATOM     17  H   UNL     1      -2.311  11.417  15.407  0.00  0.00    +0.000 HD
BRANCH  16  18
ATOM     18  C   UNL     1      -3.605  10.127  14.587  0.00  0.00    +0.000 C 
ATOM     19  F   UNL     1      -2.531   9.925  13.794  0.00  0.00    +0.000 F 
ENDBRANCH  16  18
ENDBRANCH  15  16
ENDBRANCH  12  15
ENDBRANCH   5   7
BRANCH   1  20
ATOM     20  C   UNL     1       3.893   5.814  18.386  0.00  0.00    +0.000 C 
ATOM     21  C   UNL     1       4.430   4.591  19.182  0.00  0.00    +0.000 C 
ATOM     22  O   UNL     1       3.940   3.656  18.196  0.00  0.00    +0.000 OA
ATOM     23  C   UNL     1       3.300   4.714  17.458  0.00  0.00    +0.000 C 
BRANCH  20  24
ATOM     24  C   UNL     1       4.960   6.654  17.660  0.00  0.00    +0.000 C 
BRANCH  24  30
ATOM     25  C   UNL     1       7.507   4.719  17.766  0.00  0.00    +0.000 C 
ATOM     26  N   UNL     1       6.775   5.165  16.607  0.00  0.00    +0.000 N 
ATOM     27  C   UNL     1       7.118   4.870  15.323  0.00  0.00    +0.000 A 
ATOM     28  N   UNL     1       6.249   5.407  14.504  0.00  0.00    +0.000 NA
ATOM     29  N   UNL     1       5.328   6.086  15.261  0.00  0.00    +0.000 NA
ATOM     30  C   UNL     1       5.655   5.958  16.533  0.00  0.00    +0.000 A 
ENDBRANCH  24  30
ENDBRANCH  20  24
ENDBRANCH   1  20
TORSDOF 7
ENDMDL
MODEL 3
REMARK VINA RESULT:      -8.0      2.041      2.867
REMARK  Name = 
REMARK  8 active torsions:
REMARK  status: ('A' for Active; 'I' for Inactive)
REMARK    1  A    between atoms: C_1  and  N_2
REMARK    2  A    between atoms: C_6  and  C_7
REMARK    3  A    between atoms: C_7  and  C_8
REMARK    4  A    between atoms: C_8  and  C_9
REMARK    5  A    between atoms: C_13  and  N_14
REMARK    6  A    between atoms: C_19  and  C_20
REMARK    7  A    between atoms: C_20  and  N_21
REMARK    8  A    between atoms: N_21  and  C_22
REMARK                            x       y       z     vdW  Elec       q    Type
REMARK                         _______ _______ _______ _____ _____    ______ ____
ROOT
ATOM      1  C   UNL     1       2.166   7.324  19.338  0.00  0.00    +0.000 A 
ATOM      2  C   UNL     1       1.998   7.083  20.717  0.00  0.00    +0.000 A 
ATOM      3  C   UNL     1       1.258   7.939  21.527  0.00  0.00    +0.000 A 
ATOM      4  C   UNL     1       0.710   9.094  20.983  0.00  0.00    +0.000 A 
ATOM      5  C   UNL     1       0.929   9.427  19.642  0.00  0.00    +0.000 A 
ATOM      6  C   UNL     1       1.605   8.516  18.825  0.00  0.00    +0.000 A 
ENDROOT
BRANCH   5   7
ATOM      7  N   UNL     1       0.619  10.732  19.132  0.00  0.00    +0.000 N 
ATOM      8  C   UNL     1       0.491  11.852  20.097  0.00  0.00    +0.000 C 
ATOM      9  C   UNL     1      -0.906  11.960  19.622  0.00  0.00    +0.000 A 
ATOM     10  C   UNL     1      -2.154  12.495  19.777  0.00  0.00    +0.000 A 
ATOM     11  C   UNL     1      -3.111  12.131  18.826  0.00  0.00    +0.000 A 
ATOM     12  C   UNL     1      -2.793  11.249  17.754  0.00  0.00    +0.000 A 
ATOM     13  C   UNL     1      -1.519  10.657  17.690  0.00  0.00    +0.000 A 
ATOM     14  C   UNL     1      -0.633  11.033  18.654  0.00  0.00    +0.000 A 
BRANCH  12  15
ATOM     15  C   UNL     1      -3.817  10.999  16.664  0.00  0.00    +0.000 C 
BRANCH  15  16
ATOM     16  N   UNL     1      -3.292  11.335  15.346  0.00  0.00    +0.000 NA
ATOM     17  H   UNL     1      -2.374  11.754  15.473  0.00  0.00    +0.000 HD
BRANCH  16  18
ATOM     18  C   UNL     1      -3.114  10.132  14.560  0.00  0.00    +0.000 C 
ATOM     19  F   UNL     1      -4.268   9.873  13.908  0.00  0.00    +0.000 F 
ENDBRANCH  16  18
ENDBRANCH  15  16
ENDBRANCH  12  15
ENDBRANCH   5   7
BRANCH   1  20
ATOM     20  C   UNL     1       2.996   6.317  18.409  0.00  0.00    +0.000 C 
ATOM     21  C   UNL     1       4.120   6.904  17.508  0.00  0.00    +0.000 C 
ATOM     22  O   UNL     1       5.135   6.096  18.143  0.00  0.00    +0.000 OA
ATOM     23  C   UNL     1       4.186   5.592  19.102  0.00  0.00    +0.000 C 
BRANCH  20  24
ATOM     24  C   UNL     1       2.048   5.318  17.720  0.00  0.00    +0.000 C 
BRANCH  24  30
ATOM     25  C   UNL     1       1.001   3.605  20.213  0.00  0.00    +0.000 C 
ATOM     26  N   UNL     1       1.872   3.182  19.145  0.00  0.00    +0.000 N 
ATOM     27  C   UNL     1       2.461   1.956  19.075  0.00  0.00    +0.000 A 
ATOM     28  N   UNL     1       3.176   1.877  17.981  0.00  0.00    +0.000 NA
ATOM     29  N   UNL     1       3.075   3.081  17.329  0.00  0.00    +0.000 NA
ATOM     30  C   UNL     1       2.303   3.879  18.041  0.00  0.00    +0.000 A 
ENDBRANCH  24  30
ENDBRANCH  20  24
ENDBRANCH   1  20
TORSDOF 7
ENDMDL
MODEL 4
REMARK VINA RESULT:      -7.8      2.254      3.147
REMARK  Name = 
REMARK  8 active torsions:
REMARK  status: ('A' for Active; 'I' for Inactive)
REMARK    1  A    between atoms: C_1  and  N_2
REMARK    2  A    between atoms: C_6  and  C_7
REMARK    3  A    between atoms: C_7  and  C_8
REMARK    4  A    between atoms: C_8  and  C_9
REMARK    5  A    between atoms: C_13  and  N_14
REMARK    6  A    between atoms: C_19  and  C_20
REMARK    7  A    between atoms: C_20  and  N_21
REMARK    8  A    between atoms: N_21  and  C_22
REMARK                            x       y       z     vdW  Elec       q    Type
REMARK                         _______ _______ _______ _____ _____    ______ ____
ROOT
ATOM      1  C   UNL     1       3.550   6.253  18.405  0.00  0.00    +0.000 A 
ATOM      2  C   UNL     1       3.163   5.990  19.735  0.00  0.00    +0.000 A 
ATOM      3  C   UNL     1       2.207   6.763  20.387  0.00  0.00    +0.000 A 
ATOM      4  C   UNL     1       1.650   7.858  19.738  0.00  0.00    +0.000 A 
ATOM      5  C   UNL     1       2.072   8.218  18.453  0.00  0.00    +0.000 A 
ATOM      6  C   UNL     1       2.973   7.384  17.784  0.00  0.00    +0.000 A 
ENDROOT
BRANCH   5   7
ATOM      7  N   UNL     1       1.727   9.486  17.878  0.00  0.00    +0.000 N 
ATOM      8  C   UNL     1       2.201  10.718  18.556  0.00  0.00    +0.000 C 
ATOM      9  C   UNL     1       0.769  11.048  18.723  0.00  0.00    +0.000 A 
ATOM     10  C   UNL     1      -0.188  11.840  19.293  0.00  0.00    +0.000 A 
ATOM     11  C   UNL     1      -1.514  11.564  18.946  0.00  0.00    +0.000 A 
ATOM     12  C   UNL     1      -1.840  10.511  18.044  0.00  0.00    +0.000 A 
ATOM     13  C   UNL     1      -0.826   9.670  17.554  0.00  0.00    +0.000 A 
ATOM     14  C   UNL     1       0.444   9.974  17.941  0.00  0.00    +0.000 A 
BRANCH  12  15
ATOM     15  C   UNL     1      -3.274  10.343  17.581  0.00  0.00    +0.000 C 
BRANCH  15  16
ATOM     16  N   UNL     1      -3.345   9.714  16.269  0.00  0.00    +0.000 NA
ATOM     17  H   UNL     1      -4.262   9.284  16.178  0.00  0.00    +0.000 HD
BRANCH  16  18
ATOM     18  C   UNL     1      -3.234  10.717  15.229  0.00  0.00    +0.000 C 
ATOM     19  F   UNL     1      -2.668  10.145  14.144  0.00  0.00    +0.000 F 
ENDBRANCH  16  18
ENDBRANCH  15  16
ENDBRANCH  12  15
ENDBRANCH   5   7
BRANCH   1  20
ATOM     20  C   UNL     1       4.632   5.341  17.654  0.00  0.00    +0.000 C 
ATOM     21  C   UNL     1       5.755   6.048  16.844  0.00  0.00    +0.000 C 
ATOM     22  O   UNL     1       6.796   5.450  17.648  0.00  0.00    +0.000 OA
ATOM     23  C   UNL     1       5.824   4.857  18.529  0.00  0.00    +0.000 C 
BRANCH  20  24
ATOM     24  C   UNL     1       3.938   4.166  16.939  0.00  0.00    +0.000 C 
BRANCH  24  30
ATOM     25  C   UNL     1       4.065   2.074  19.359  0.00  0.00    +0.000 C 
ATOM     26  N   UNL     1       2.897   2.612  18.708  0.00  0.00    +0.000 N 
ATOM     27  C   UNL     1       1.619   2.240  18.992  0.00  0.00    +0.000 A 
ATOM     28  N   UNL     1       0.788   2.919  18.244  0.00  0.00    +0.000 NA
ATOM     29  N   UNL     1       1.532   3.740  17.434  0.00  0.00    +0.000 NA
ATOM     30  C   UNL     1       2.810   3.542  17.699  0.00  0.00    +0.000 A 
ENDBRANCH  24  30
ENDBRANCH  20  24
ENDBRANCH   1  20
TORSDOF 7
ENDMDL
MODEL 5
REMARK VINA RESULT:      -7.6      1.853      2.529
REMARK  Name = 
REMARK  8 active torsions:
REMARK  status: ('A' for Active; 'I' for Inactive)
REMARK    1  A    between atoms: C_1  and  N_2
REMARK    2  A    between atoms: C_6  and  C_7
REMARK    3  A    between atoms: C_7  and  C_8
REMARK    4  A    between atoms: C_8  and  C_9
REMARK    5  A    between atoms: C_13  and  N_14
REMARK    6  A    between atoms: C_19  and  C_20
REMARK    7  A    between atoms: C_20  and  N_21
REMARK    8  A    between atoms: N_21  and  C_22
REMARK                            x       y       z     vdW  Elec       q    Type
REMARK                         _______ _______ _______ _____ _____    ______ ____
ROOT
ATOM      1  C   UNL     1       2.215   7.324  19.305  0.00  0.00    +0.000 A 
ATOM      2  C   UNL     1       1.933   7.017  20.651  0.00  0.00    +0.000 A 
ATOM      3  C   UNL     1       1.130   7.836  21.439  0.00  0.00    +0.000 A 
ATOM      4  C   UNL     1       0.630   9.020  20.910  0.00  0.00    +0.000 A 
ATOM      5  C   UNL     1       0.961   9.417  19.609  0.00  0.00    +0.000 A 
ATOM      6  C   UNL     1       1.701   8.544  18.807  0.00  0.00    +0.000 A 
ENDROOT
BRANCH   5   7
ATOM      7  N   UNL     1       0.695  10.748  19.141  0.00  0.00    +0.000 N 
ATOM      8  C   UNL     1       0.634  11.844  20.138  0.00  0.00    +0.000 C 
ATOM      9  C   UNL     1      -0.766  12.023  19.696  0.00  0.00    +0.000 A 
ATOM     10  C   UNL     1      -1.987  12.606  19.890  0.00  0.00    +0.000 A 
ATOM     11  C   UNL     1      -2.977  12.307  18.950  0.00  0.00    +0.000 A 
ATOM     12  C   UNL     1      -2.718  11.443  17.849  0.00  0.00    +0.000 A 
ATOM     13  C   UNL     1      -1.471  10.800  17.742  0.00  0.00    +0.000 A 
ATOM     14  C   UNL     1      -0.552  11.113  18.698  0.00  0.00    +0.000 A 
BRANCH  12  15
ATOM     15  C   UNL     1      -3.773  11.266  16.774  0.00  0.00    +0.000 C 
BRANCH  15  16
ATOM     16  N   UNL     1      -3.193  11.320  15.438  0.00  0.00    +0.000 NA
ATOM     17  H   UNL     1      -2.234  11.646  15.527  0.00  0.00    +0.000 HD
BRANCH  16  18
ATOM     18  C   UNL     1      -3.148   9.993  14.860  0.00  0.00    +0.000 C 
ATOM     19  F   UNL     1      -2.937  10.113  13.532  0.00  0.00    +0.000 F 
ENDBRANCH  16  18
ENDBRANCH  15  16
ENDBRANCH  12  15
ENDBRANCH   5   7
BRANCH   1  20
ATOM     20  C   UNL     1       3.119   6.360  18.399  0.00  0.00    +0.000 C 
ATOM     21  C   UNL     1       4.167   7.009  17.451  0.00  0.00    +0.000 C 
ATOM     22  O   UNL     1       5.263   6.325  18.096  0.00  0.00    +0.000 OA
ATOM     23  C   UNL     1       4.382   5.777  19.095  0.00  0.00    +0.000 C 
BRANCH  20  24
ATOM     24  C   UNL     1       2.254   5.251  17.771  0.00  0.00    +0.000 C 
BRANCH  24  30
ATOM     25  C   UNL     1       4.512   3.402  16.454  0.00  0.00    +0.000 C 
ATOM     26  N   UNL     1       3.601   3.071  17.521  0.00  0.00    +0.000 N 
ATOM     27  C   UNL     1       3.516   1.844  18.105  0.00  0.00    +0.000 A 
ATOM     28  N   UNL     1       2.608   1.870  19.048  0.00  0.00    +0.000 NA
ATOM     29  N   UNL     1       2.068   3.132  19.071  0.00  0.00    +0.000 NA
ATOM     30  C   UNL     1       2.653   3.855  18.136  0.00  0.00    +0.000 A 
ENDBRANCH  24  30
ENDBRANCH  20  24
ENDBRANCH   1  20
TORSDOF 7
ENDMDL
MODEL 6
REMARK VINA RESULT:      -7.6      2.468      3.209
REMARK  Name = 
REMARK  8 active torsions:
REMARK  status: ('A' for Active; 'I' for Inactive)
REMARK    1  A    between atoms: C_1  and  N_2
REMARK    2  A    between atoms: C_6  and  C_7
REMARK    3  A    between atoms: C_7  and  C_8
REMARK    4  A    between atoms: C_8  and  C_9
REMARK    5  A    between atoms: C_13  and  N_14
REMARK    6  A    between atoms: C_19  and  C_20
REMARK    7  A    between atoms: C_20  and  N_21
REMARK    8  A    between atoms: N_21  and  C_22
REMARK                            x       y       z     vdW  Elec       q    Type
REMARK                         _______ _______ _______ _____ _____    ______ ____
ROOT
ATOM      1  C   UNL     1       3.165   6.720  18.759  0.00  0.00    +0.000 A 
ATOM      2  C   UNL     1       2.692   6.389  20.045  0.00  0.00    +0.000 A 
ATOM      3  C   UNL     1       1.670   7.107  20.659  0.00  0.00    +0.000 A 
ATOM      4  C   UNL     1       1.130   8.215  20.019  0.00  0.00    +0.000 A 
ATOM      5  C   UNL     1       1.632   8.642  18.783  0.00  0.00    +0.000 A 
ATOM      6  C   UNL     1       2.601   7.862  18.146  0.00  0.00    +0.000 A 
ENDROOT
BRANCH   5   7
ATOM      7  N   UNL     1       1.292   9.926  18.239  0.00  0.00    +0.000 N 
ATOM      8  C   UNL     1       1.587  11.133  19.048  0.00  0.00    +0.000 C 
ATOM      9  C   UNL     1       0.128  11.374  19.025  0.00  0.00    +0.000 A 
ATOM     10  C   UNL     1      -0.948  12.073  19.495  0.00  0.00    +0.000 A 
ATOM     11  C   UNL     1      -2.191  11.749  18.944  0.00  0.00    +0.000 A 
ATOM     12  C   UNL     1      -2.320  10.743  17.945  0.00  0.00    +0.000 A 
ATOM     13  C   UNL     1      -1.196   9.993  17.559  0.00  0.00    +0.000 A 
ATOM     14  C   UNL     1      -0.015  10.338  18.143  0.00  0.00    +0.000 A 
BRANCH  12  15
ATOM     15  C   UNL     1      -3.661  10.529  17.270  0.00  0.00    +0.000 C 
BRANCH  15  16
ATOM     16  N   UNL     1      -4.202  11.775  16.741  0.00  0.00    +0.000 NA
ATOM     17  H   UNL     1      -4.267  11.683  15.731  0.00  0.00    +0.000 HD
BRANCH  16  18
ATOM     18  C   UNL     1      -5.544  11.988  17.243  0.00  0.00    +0.000 C 
ATOM     19  F   UNL     1      -5.891  13.270  17.000  0.00  0.00    +0.000 F 
ENDBRANCH  16  18
ENDBRANCH  15  16
ENDBRANCH  12  15
ENDBRANCH   5   7
BRANCH   1  20
ATOM     20  C   UNL     1       4.323   5.869  18.049  0.00  0.00    +0.000 C 
ATOM     21  C   UNL     1       5.511   6.638  17.405  0.00  0.00    +0.000 C 
ATOM     22  O   UNL     1       6.476   5.985  18.259  0.00  0.00    +0.000 OA
ATOM     23  C   UNL     1       5.430   5.325  18.997  0.00  0.00    +0.000 C 
BRANCH  20  24
ATOM     24  C   UNL     1       3.712   4.749  17.187  0.00  0.00    +0.000 C 
BRANCH  24  30
ATOM     25  C   UNL     1       4.033   2.417  19.356  0.00  0.00    +0.000 C 
ATOM     26  N   UNL     1       2.820   2.916  18.759  0.00  0.00    +0.000 N 
ATOM     27  C   UNL     1       1.582   2.398  18.987  0.00  0.00    +0.000 A 
ATOM     28  N   UNL     1       0.691   3.079  18.312  0.00  0.00    +0.000 NA
ATOM     29  N   UNL     1       1.356   4.051  17.607  0.00  0.00    +0.000 NA
ATOM     30  C   UNL     1       2.646   3.942  17.860  0.00  0.00    +0.000 A 
ENDBRANCH  24  30
ENDBRANCH  20  24
ENDBRANCH   1  20
TORSDOF 7
ENDMDL
MODEL 7
REMARK VINA RESULT:      -7.5      1.744      2.257
REMARK  Name = 
REMARK  8 active torsions:
REMARK  status: ('A' for Active; 'I' for Inactive)
REMARK    1  A    between atoms: C_1  and  N_2
REMARK    2  A    between atoms: C_6  and  C_7
REMARK    3  A    between atoms: C_7  and  C_8
REMARK    4  A    between atoms: C_8  and  C_9
REMARK    5  A    between atoms: C_13  and  N_14
REMARK    6  A    between atoms: C_19  and  C_20
REMARK    7  A    between atoms: C_20  and  N_21
REMARK    8  A    between atoms: N_21  and  C_22
REMARK                            x       y       z     vdW  Elec       q    Type
REMARK                         _______ _______ _______ _____ _____    ______ ____
ROOT
ATOM      1  C   UNL     1       2.768   5.449  18.773  0.00  0.00    +0.000 A 
ATOM      2  C   UNL     1       2.633   5.557  20.172  0.00  0.00    +0.000 A 
ATOM      3  C   UNL     1       2.071   6.680  20.772  0.00  0.00    +0.000 A 
ATOM      4  C   UNL     1       1.677   7.753  19.983  0.00  0.00    +0.000 A 
ATOM      5  C   UNL     1       1.878   7.735  18.598  0.00  0.00    +0.000 A 
ATOM      6  C   UNL     1       2.369   6.568  18.006  0.00  0.00    +0.000 A 
ENDROOT
BRANCH   5   7
ATOM      7  N   UNL     1       1.743   8.923  17.805  0.00  0.00    +0.000 N 
ATOM      8  C   UNL     1       2.700  10.034  18.033  0.00  0.00    +0.000 C 
ATOM      9  C   UNL     1       1.514  10.836  18.406  0.00  0.00    +0.000 A 
ATOM     10  C   UNL     1       1.002  11.984  18.943  0.00  0.00    +0.000 A 
ATOM     11  C   UNL     1      -0.390  12.096  18.962  0.00  0.00    +0.000 A 
ATOM     12  C   UNL     1      -1.225  11.064  18.446  0.00  0.00    +0.000 A 
ATOM     13  C   UNL     1      -0.651   9.866  17.985  0.00  0.00    +0.000 A 
ATOM     14  C   UNL     1       0.709   9.804  18.008  0.00  0.00    +0.000 A 
BRANCH  12  15
ATOM     15  C   UNL     1      -2.721  11.292  18.351  0.00  0.00    +0.000 C 
BRANCH  15  16
ATOM     16  N   UNL     1      -3.109  11.771  17.031  0.00  0.00    +0.000 NA
ATOM     17  H   UNL     1      -2.376  11.509  16.376  0.00  0.00    +0.000 HD
BRANCH  16  18
ATOM     18  C   UNL     1      -4.327  11.114  16.601  0.00  0.00    +0.000 C 
ATOM     19  F   UNL     1      -4.069  10.443  15.457  0.00  0.00    +0.000 F 
ENDBRANCH  16  18
ENDBRANCH  15  16
ENDBRANCH  12  15
ENDBRANCH   5   7
BRANCH   1  20
ATOM     20  C   UNL     1       3.391   4.140  18.091  0.00  0.00    +0.000 C 
ATOM     21  C   UNL     1       3.411   2.821  18.913  0.00  0.00    +0.000 C 
ATOM     22  O   UNL     1       2.602   2.129  17.937  0.00  0.00    +0.000 OA
ATOM     23  C   UNL     1       2.424   3.337  17.174  0.00  0.00    +0.000 C 
BRANCH  20  24
ATOM     24  C   UNL     1       4.704   4.489  17.365  0.00  0.00    +0.000 C 
BRANCH  24  30
ATOM     25  C   UNL     1       6.515   7.094  16.941  0.00  0.00    +0.000 C 
ATOM     26  N   UNL     1       6.578   6.130  18.011  0.00  0.00    +0.000 N 
ATOM     27  C   UNL     1       7.506   6.149  19.007  0.00  0.00    +0.000 A 
ATOM     28  N   UNL     1       7.287   5.154  19.829  0.00  0.00    +0.000 NA
ATOM     29  N   UNL     1       6.207   4.453  19.354  0.00  0.00    +0.000 NA
ATOM     30  C   UNL     1       5.788   5.029  18.244  0.00  0.00    +0.000 A 
ENDBRANCH  24  30
ENDBRANCH  20  24
ENDBRANCH   1  20
TORSDOF 7
ENDMDL
MODEL 8
REMARK VINA RESULT:      -7.5      3.279      8.535
REMARK  Name = 
REMARK  8 active torsions:
REMARK  status: ('A' for Active; 'I' for Inactive)
REMARK    1  A    between atoms: C_1  and  N_2
REMARK    2  A    between atoms: C_6  and  C_7
REMARK    3  A    between atoms: C_7  and  C_8
REMARK    4  A    between atoms: C_8  and  C_9
REMARK    5  A    between atoms: C_13  and  N_14
REMARK    6  A    between atoms: C_19  and  C_20
REMARK    7  A    between atoms: C_20  and  N_21
REMARK    8  A    between atoms: N_21  and  C_22
REMARK                            x       y       z     vdW  Elec       q    Type
REMARK                         _______ _______ _______ _____ _____    ______ ____
ROOT
ATOM      1  C   UNL     1       1.536   7.114  20.357  0.00  0.00    +0.000 A 
ATOM      2  C   UNL     1       1.063   5.933  20.965  0.00  0.00    +0.000 A 
ATOM      3  C   UNL     1       1.524   4.676  20.585  0.00  0.00    +0.000 A 
ATOM      4  C   UNL     1       2.436   4.566  19.543  0.00  0.00    +0.000 A 
ATOM      5  C   UNL     1       2.863   5.701  18.844  0.00  0.00    +0.000 A 
ATOM      6  C   UNL     1       2.452   6.960  19.292  0.00  0.00    +0.000 A 
ENDROOT
BRANCH   5   7
ATOM      7  N   UNL     1       3.574   5.594  17.602  0.00  0.00    +0.000 N 
ATOM      8  C   UNL     1       4.017   4.249  17.160  0.00  0.00    +0.000 C 
ATOM      9  C   UNL     1       5.390   4.792  17.242  0.00  0.00    +0.000 A 
ATOM     10  C   UNL     1       6.738   4.567  17.222  0.00  0.00    +0.000 A 
ATOM     11  C   UNL     1       7.560   5.691  17.349  0.00  0.00    +0.000 A 
ATOM     12  C   UNL     1       7.012   6.998  17.489  0.00  0.00    +0.000 A 
ATOM     13  C   UNL     1       5.620   7.165  17.591  0.00  0.00    +0.000 A 
ATOM     14  C   UNL     1       4.870   6.034  17.481  0.00  0.00    +0.000 A 
BRANCH  12  15
ATOM     15  C   UNL     1       7.937   8.199  17.474  0.00  0.00    +0.000 C 
BRANCH  15  16
ATOM     16  N   UNL     1       8.584   8.396  18.764  0.00  0.00    +0.000 NA
ATOM     17  H   UNL     1       9.406   7.797  18.796  0.00  0.00    +0.000 HD
BRANCH  16  18
ATOM     18  C   UNL     1       9.043   9.765  18.888  0.00  0.00    +0.000 C 
ATOM     19  F   UNL     1       8.420  10.509  17.949  0.00  0.00    +0.000 F 
ENDBRANCH  16  18
ENDBRANCH  15  16
ENDBRANCH  12  15
ENDBRANCH   5   7
BRANCH   1  20
ATOM     20  C   UNL     1       1.019   8.558  20.821  0.00  0.00    +0.000 C 
ATOM     21  C   UNL     1      -0.317   8.642  21.612  0.00  0.00    +0.000 C 
ATOM     22  O   UNL     1       0.327   9.244  22.756  0.00  0.00    +0.000 OA
ATOM     23  C   UNL     1       1.626   9.091  22.152  0.00  0.00    +0.000 C 
BRANCH  20  24
ATOM     24  C   UNL     1       1.178   9.576  19.677  0.00  0.00    +0.000 C 
BRANCH  24  30
ATOM     25  C   UNL     1       0.434  12.382  21.027  0.00  0.00    +0.000 C 
ATOM     26  N   UNL     1      -0.328  11.627  20.063  0.00  0.00    +0.000 N 
ATOM     27  C   UNL     1      -1.566  11.980  19.617  0.00  0.00    +0.000 A 
ATOM     28  N   UNL     1      -1.981  11.102  18.739  0.00  0.00    +0.000 NA
ATOM     29  N   UNL     1      -1.008  10.140  18.620  0.00  0.00    +0.000 NA
ATOM     30  C   UNL     1      -0.016  10.445  19.434  0.00  0.00    +0.000 A 
ENDBRANCH  24  30
ENDBRANCH  20  24
ENDBRANCH   1  20
TORSDOF 7
ENDMDL
MODEL 9
REMARK VINA RESULT:      -7.4      1.286      1.571
REMARK  Name = 
REMARK  8 active torsions:
REMARK  status: ('A' for Active; 'I' for Inactive)
REMARK    1  A    between atoms: C_1  and  N_2
REMARK    2  A    between atoms: C_6  and  C_7
REMARK    3  A    between atoms: C_7  and  C_8
REMARK    4  A    between atoms: C_8  and  C_9
REMARK    5  A    between atoms: C_13  and  N_14
REMARK    6  A    between atoms: C_19  and  C_20
REMARK    7  A    between atoms: C_20  and  N_21
REMARK    8  A    between atoms: N_21  and  C_22
REMARK                            x       y       z     vdW  Elec       q    Type
REMARK                         _______ _______ _______ _____ _____    ______ ____
ROOT
ATOM      1  C   UNL     1       2.883   6.887  18.970  0.00  0.00    +0.000 A 
ATOM      2  C   UNL     1       2.431   6.731  20.296  0.00  0.00    +0.000 A 
ATOM      3  C   UNL     1       1.480   7.581  20.853  0.00  0.00    +0.000 A 
ATOM      4  C   UNL     1       0.994   8.648  20.108  0.00  0.00    +0.000 A 
ATOM      5  C   UNL     1       1.483   8.903  18.821  0.00  0.00    +0.000 A 
ATOM      6  C   UNL     1       2.377   7.993  18.249  0.00  0.00    +0.000 A 
ENDROOT
BRANCH   5   7
ATOM      7  N   UNL     1       1.212  10.141  18.147  0.00  0.00    +0.000 N 
ATOM      8  C   UNL     1       2.025  11.328  18.504  0.00  0.00    +0.000 C 
ATOM      9  C   UNL     1       0.749  11.941  18.931  0.00  0.00    +0.000 A 
ATOM     10  C   UNL     1       0.097  12.960  19.568  0.00  0.00    +0.000 A 
ATOM     11  C   UNL     1      -1.299  12.902  19.570  0.00  0.00    +0.000 A 
ATOM     12  C   UNL     1      -1.998  11.836  18.936  0.00  0.00    +0.000 A 
ATOM     13  C   UNL     1      -1.281  10.768  18.371  0.00  0.00    +0.000 A 
ATOM     14  C   UNL     1       0.077  10.866  18.416  0.00  0.00    +0.000 A 
BRANCH  12  15
ATOM     15  C   UNL     1      -3.510  11.892  18.834  0.00  0.00    +0.000 C 
BRANCH  15  16
ATOM     16  N   UNL     1      -3.948  12.125  17.463  0.00  0.00    +0.000 NA
ATOM     17  H   UNL     1      -3.119  12.175  16.875  0.00  0.00    +0.000 HD
BRANCH  16  18
ATOM     18  C   UNL     1      -4.742  11.007  16.997  0.00  0.00    +0.000 C 
ATOM     19  F   UNL     1      -4.382  10.729  15.725  0.00  0.00    +0.000 F 
ENDBRANCH  16  18
ENDBRANCH  15  16
ENDBRANCH  12  15
ENDBRANCH   5   7
BRANCH   1  20
ATOM     20  C   UNL     1       3.958   5.886  18.330  0.00  0.00    +0.000 C 
ATOM     21  C   UNL     1       4.454   4.690  19.191  0.00  0.00    +0.000 C 
ATOM     22  O   UNL     1       3.974   3.722  18.232  0.00  0.00    +0.000 OA
ATOM     23  C   UNL     1       3.372   4.758  17.433  0.00  0.00    +0.000 C 
BRANCH  20  24
ATOM     24  C   UNL     1       5.059   6.679  17.600  0.00  0.00    +0.000 C 
BRANCH  24  30
ATOM     25  C   UNL     1       7.543   4.662  17.712  0.00  0.00    +0.000 C 
ATOM     26  N   UNL     1       6.818   5.120  16.552  0.00  0.00    +0.000 N 
ATOM     27  C   UNL     1       7.144   4.801  15.269  0.00  0.00    +0.000 A 
ATOM     28  N   UNL     1       6.288   5.357  14.449  0.00  0.00    +0.000 NA
ATOM     29  N   UNL     1       5.393   6.073  15.205  0.00  0.00    +0.000 NA
ATOM     30  C   UNL     1       5.724   5.948  16.476  0.00  0.00    +0.000 A 
ENDBRANCH  24  30
ENDBRANCH  20  24
ENDBRANCH   1  20
TORSDOF 7
ENDMDL
