MODEL 1
REMARK VINA RESULT:      -7.8      0.000      0.000
REMARK  Name = 
REMARK  3 active torsions:
REMARK  status: ('A' for Active; 'I' for Inactive)
REMARK    1  A    between atoms: C_2  and  C_3
REMARK    2  A    between atoms: C_16  and  C_17
REMARK    3  A    between atoms: C_17  and  C_18
REMARK                            x       y       z     vdW  Elec       q    Type
REMARK                         _______ _______ _______ _____ _____    ______ ____
ROOT
ATOM      1  O   UNL     1       4.914   5.123  15.983  0.00  0.00    +0.000 OA
ATOM      2  C   UNL     1       5.340   5.117  17.133  0.00  0.00    +0.000 C 
ATOM      3  N   UNL     1       6.585   5.608  17.454  0.00  0.00    +0.000 N 
ATOM      4  C   UNL     1       7.490   6.302  16.551  0.00  0.00    +0.000 C 
ATOM      5  C   UNL     1       7.821   7.248  17.718  0.00  0.00    +0.000 C 
ATOM      6  C   UNL     1       7.112   6.241  18.652  0.00  0.00    +0.000 C 
ENDROOT
BRANCH   2   7
ATOM      7  C   UNL     1       4.471   4.528  18.253  0.00  0.00    +0.000 A 
ATOM      8  N   UNL     1       4.698   3.292  18.604  0.00  0.00    +0.000 NA
ATOM      9  N   UNL     1       3.977   2.759  19.627  0.00  0.00    +0.000 N 
ATOM     10  C   UNL     1       3.052   3.421  20.395  0.00  0.00    +0.000 A 
ATOM     11  O   UNL     1       2.460   2.875  21.321  0.00  0.00    +0.000 OA
ATOM     12  C   UNL     1       2.799   4.824  20.035  0.00  0.00    +0.000 A 
ATOM     13  C   UNL     1       1.896   5.582  20.795  0.00  0.00    +0.000 A 
ATOM     14  C   UNL     1       1.638   6.906  20.448  0.00  0.00    +0.000 A 
ATOM     15  C   UNL     1       2.254   7.456  19.326  0.00  0.00    +0.000 A 
ATOM     16  C   UNL     1       3.148   6.693  18.565  0.00  0.00    +0.000 A 
ATOM     17  C   UNL     1       3.455   5.377  18.936  0.00  0.00    +0.000 A 
ATOM     18  H   UNL     1       4.171   1.792  19.872  0.00  0.00    +0.000 HD
ENDBRANCH   2   7
BRANCH   5  19
ATOM     19  C   UNL     1       7.186   8.635  17.604  0.00  0.00    +0.000 C 
BRANCH  19  20
ATOM     20  C   UNL     1       8.147   9.685  18.110  0.00  0.00    +0.000 A 
ATOM     21  C   UNL     1       8.989   9.426  19.204  0.00  0.00    +0.000 A 
ATOM     22  C   UNL     1       9.897  10.394  19.645  0.00  0.00    +0.000 A 
ATOM     23  C   UNL     1       9.963  11.623  18.996  0.00  0.00    +0.000 A 
ATOM     24  F   UNL     1      10.837  12.544  19.423  0.00  0.00    +0.000 F 
ATOM     25  C   UNL     1       9.135  11.889  17.915  0.00  0.00    +0.000 A 
ATOM     26  F   UNL     1       9.200  13.072  17.288  0.00  0.00    +0.000 F 
ATOM     27  C   UNL     1       8.230  10.931  17.465  0.00  0.00    +0.000 A 
ENDBRANCH  19  20
ENDBRANCH   5  19
TORSDOF 3
ENDMDL
MODEL 2
REMARK VINA RESULT:      -7.5      4.843      7.001
REMARK  Name = 
REMARK  3 active torsions:
REMARK  status: ('A' for Active; 'I' for Inactive)
REMARK    1  A    between atoms: C_2  and  C_3
REMARK    2  A    between atoms: C_16  and  C_17
REMARK    3  A    between atoms: C_17  and  C_18
REMARK                            x       y       z     vdW  Elec       q    Type
REMARK                         _______ _______ _______ _____ _____    ______ ____
ROOT
ATOM      1  O   UNL     1       4.466   6.790  16.313  0.00  0.00    +0.000 OA
ATOM      2  C   UNL     1       4.069   6.642  17.464  0.00  0.00    +0.000 C 
ATOM      3  N   UNL     1       3.474   7.663  18.170  0.00  0.00    +0.000 N 
ATOM      4  C   UNL     1       3.115   8.971  17.643  0.00  0.00    +0.000 C 
ATOM      5  C   UNL     1       1.821   8.872  18.468  0.00  0.00    +0.000 C 
ATOM      6  C   UNL     1       2.459   7.677  19.210  0.00  0.00    +0.000 C 
ENDROOT
BRANCH   2   7
ATOM      7  C   UNL     1       4.255   5.284  18.154  0.00  0.00    +0.000 A 
ATOM      8  N   UNL     1       5.428   5.022  18.662  0.00  0.00    +0.000 NA
ATOM      9  N   UNL     1       5.608   3.846  19.323  0.00  0.00    +0.000 N 
ATOM     10  C   UNL     1       4.642   2.904  19.574  0.00  0.00    +0.000 A 
ATOM     11  O   UNL     1       4.878   1.877  20.203  0.00  0.00    +0.000 OA
ATOM     12  C   UNL     1       3.304   3.190  19.034  0.00  0.00    +0.000 A 
ATOM     13  C   UNL     1       2.252   2.296  19.280  0.00  0.00    +0.000 A 
ATOM     14  C   UNL     1       0.988   2.552  18.756  0.00  0.00    +0.000 A 
ATOM     15  C   UNL     1       0.787   3.678  17.960  0.00  0.00    +0.000 A 
ATOM     16  C   UNL     1       1.842   4.563  17.710  0.00  0.00    +0.000 A 
ATOM     17  C   UNL     1       3.105   4.343  18.276  0.00  0.00    +0.000 A 
ATOM     18  H   UNL     1       6.534   3.668  19.700  0.00  0.00    +0.000 HD
ENDBRANCH   2   7
BRANCH   5  19
ATOM     19  C   UNL     1       0.569   8.570  17.641  0.00  0.00    +0.000 C 
BRANCH  19  20
ATOM     20  C   UNL     1      -0.510   9.582  17.951  0.00  0.00    +0.000 A 
ATOM     21  C   UNL     1      -1.602   9.761  17.087  0.00  0.00    +0.000 A 
ATOM     22  C   UNL     1      -2.610  10.678  17.397  0.00  0.00    +0.000 A 
ATOM     23  C   UNL     1      -2.528  11.421  18.572  0.00  0.00    +0.000 A 
ATOM     24  F   UNL     1      -3.499  12.296  18.864  0.00  0.00    +0.000 F 
ATOM     25  C   UNL     1      -1.452  11.252  19.432  0.00  0.00    +0.000 A 
ATOM     26  F   UNL     1      -1.374  11.966  20.565  0.00  0.00    +0.000 F 
ATOM     27  C   UNL     1      -0.445  10.338  19.134  0.00  0.00    +0.000 A 
ENDBRANCH  19  20
ENDBRANCH   5  19
TORSDOF 3
ENDMDL
MODEL 3
REMARK VINA RESULT:      -7.4      1.023      1.447
REMARK  Name = 
REMARK  3 active torsions:
REMARK  status: ('A' for Active; 'I' for Inactive)
REMARK    1  A    between atoms: C_2  and  C_3
REMARK    2  A    between atoms: C_16  and  C_17
REMARK    3  A    between atoms: C_17  and  C_18
REMARK                            x       y       z     vdW  Elec       q    Type
REMARK                         _______ _______ _______ _____ _____    ______ ____
ROOT
ATOM      1  O   UNL     1       5.111   6.030  16.130  0.00  0.00    +0.000 OA
ATOM      2  C   UNL     1       5.689   5.729  17.169  0.00  0.00    +0.000 C 
ATOM      3  N   UNL     1       6.979   6.130  17.432  0.00  0.00    +0.000 N 
ATOM      4  C   UNL     1       7.773   7.043  16.623  0.00  0.00    +0.000 C 
ATOM      5  C   UNL     1       8.284   7.655  17.937  0.00  0.00    +0.000 C 
ATOM      6  C   UNL     1       7.681   6.435  18.667  0.00  0.00    +0.000 C 
ENDROOT
BRANCH   2   7
ATOM      7  C   UNL     1       4.964   4.862  18.207  0.00  0.00    +0.000 A 
ATOM      8  N   UNL     1       5.449   3.675  18.445  0.00  0.00    +0.000 NA
ATOM      9  N   UNL     1       4.857   2.903  19.395  0.00  0.00    +0.000 N 
ATOM     10  C   UNL     1       3.809   3.273  20.201  0.00  0.00    +0.000 A 
ATOM     11  O   UNL     1       3.346   2.527  21.057  0.00  0.00    +0.000 OA
ATOM     12  C   UNL     1       3.262   4.619  19.970  0.00  0.00    +0.000 A 
ATOM     13  C   UNL     1       2.215   5.089  20.777  0.00  0.00    +0.000 A 
ATOM     14  C   UNL     1       1.681   6.355  20.551  0.00  0.00    +0.000 A 
ATOM     15  C   UNL     1       2.167   7.130  19.501  0.00  0.00    +0.000 A 
ATOM     16  C   UNL     1       3.206   6.654  18.693  0.00  0.00    +0.000 A 
ATOM     17  C   UNL     1       3.787   5.404  18.944  0.00  0.00    +0.000 A 
ATOM     18  H   UNL     1       5.253   1.980  19.551  0.00  0.00    +0.000 HD
ENDBRANCH   2   7
BRANCH   5  19
ATOM     19  C   UNL     1       7.679   9.019  18.275  0.00  0.00    +0.000 C 
BRANCH  19  20
ATOM     20  C   UNL     1       8.778  10.012  18.571  0.00  0.00    +0.000 A 
ATOM     21  C   UNL     1       9.508  10.613  17.533  0.00  0.00    +0.000 A 
ATOM     22  C   UNL     1      10.502  11.554  17.815  0.00  0.00    +0.000 A 
ATOM     23  C   UNL     1      10.771  11.895  19.138  0.00  0.00    +0.000 A 
ATOM     24  F   UNL     1      11.723  12.799  19.402  0.00  0.00    +0.000 F 
ATOM     25  C   UNL     1      10.056  11.307  20.171  0.00  0.00    +0.000 A 
ATOM     26  F   UNL     1      10.313  11.637  21.445  0.00  0.00    +0.000 F 
ATOM     27  C   UNL     1       9.061  10.371  19.900  0.00  0.00    +0.000 A 
ENDBRANCH  19  20
ENDBRANCH   5  19
TORSDOF 3
ENDMDL
MODEL 4
REMARK VINA RESULT:      -7.4      5.126      6.945
REMARK  Name = 
REMARK  3 active torsions:
REMARK  status: ('A' for Active; 'I' for Inactive)
REMARK    1  A    between atoms: C_2  and  C_3
REMARK    2  A    between atoms: C_16  and  C_17
REMARK    3  A    between atoms: C_17  and  C_18
REMARK                            x       y       z     vdW  Elec       q    Type
REMARK                         _______ _______ _______ _____ _____    ______ ____
ROOT
ATOM      1  O   UNL     1       4.465   6.529  16.231  0.00  0.00    +0.000 OA
ATOM      2  C   UNL     1       4.114   6.450  17.403  0.00  0.00    +0.000 C 
ATOM      3  N   UNL     1       3.600   7.528  18.088  0.00  0.00    +0.000 N 
ATOM      4  C   UNL     1       3.280   8.828  17.520  0.00  0.00    +0.000 C 
ATOM      5  C   UNL     1       2.021   8.828  18.402  0.00  0.00    +0.000 C 
ATOM      6  C   UNL     1       2.634   7.635  19.169  0.00  0.00    +0.000 C 
ENDROOT
BRANCH   2   7
ATOM      7  C   UNL     1       4.266   5.114  18.144  0.00  0.00    +0.000 A 
ATOM      8  N   UNL     1       5.431   4.844  18.665  0.00  0.00    +0.000 NA
ATOM      9  N   UNL     1       5.581   3.690  19.369  0.00  0.00    +0.000 N 
ATOM     10  C   UNL     1       4.593   2.781  19.654  0.00  0.00    +0.000 A 
ATOM     11  O   UNL     1       4.803   1.773  20.321  0.00  0.00    +0.000 OA
ATOM     12  C   UNL     1       3.264   3.078  19.099  0.00  0.00    +0.000 A 
ATOM     13  C   UNL     1       2.190   2.219  19.375  0.00  0.00    +0.000 A 
ATOM     14  C   UNL     1       0.933   2.486  18.838  0.00  0.00    +0.000 A 
ATOM     15  C   UNL     1       0.761   3.585  18.000  0.00  0.00    +0.000 A 
ATOM     16  C   UNL     1       1.837   4.435  17.720  0.00  0.00    +0.000 A 
ATOM     17  C   UNL     1       3.094   4.207  18.298  0.00  0.00    +0.000 A 
ATOM     18  H   UNL     1       6.503   3.504  19.756  0.00  0.00    +0.000 HD
ENDBRANCH   2   7
BRANCH   5  19
ATOM     19  C   UNL     1       0.720   8.554  17.645  0.00  0.00    +0.000 C 
BRANCH  19  20
ATOM     20  C   UNL     1      -0.333   9.560  18.048  0.00  0.00    +0.000 A 
ATOM     21  C   UNL     1      -0.184  10.335  19.209  0.00  0.00    +0.000 A 
ATOM     22  C   UNL     1      -1.149  11.285  19.557  0.00  0.00    +0.000 A 
ATOM     23  C   UNL     1      -2.267  11.459  18.746  0.00  0.00    +0.000 A 
ATOM     24  F   UNL     1      -3.187  12.372  19.084  0.00  0.00    +0.000 F 
ATOM     25  C   UNL     1      -2.424  10.697  17.597  0.00  0.00    +0.000 A 
ATOM     26  F   UNL     1      -3.500  10.868  16.815  0.00  0.00    +0.000 F 
ATOM     27  C   UNL     1      -1.467   9.752  17.239  0.00  0.00    +0.000 A 
ENDBRANCH  19  20
ENDBRANCH   5  19
TORSDOF 3
ENDMDL
MODEL 5
REMARK VINA RESULT:      -7.3      6.098      8.194
REMARK  Name = 
REMARK  3 active torsions:
REMARK  status: ('A' for Active; 'I' for Inactive)
REMARK    1  A    between atoms: C_2  and  C_3
REMARK    2  A    between atoms: C_16  and  C_17
REMARK    3  A    between atoms: C_17  and  C_18
REMARK                            x       y       z     vdW  Elec       q    Type
REMARK                         _______ _______ _______ _____ _____    ______ ____
ROOT
ATOM      1  O   UNL     1       3.171   7.275  17.350  0.00  0.00    +0.000 OA
ATOM      2  C   UNL     1       2.613   7.410  18.433  0.00  0.00    +0.000 C 
ATOM      3  N   UNL     1       2.077   8.612  18.835  0.00  0.00    +0.000 N 
ATOM      4  C   UNL     1       1.972   9.816  18.025  0.00  0.00    +0.000 C 
ATOM      5  C   UNL     1       0.580  10.029  18.644  0.00  0.00    +0.000 C 
ATOM      6  C   UNL     1       0.947   8.949  19.685  0.00  0.00    +0.000 C 
ENDROOT
BRANCH   2   7
ATOM      7  C   UNL     1       2.520   6.209  19.384  0.00  0.00    +0.000 A 
ATOM      8  N   UNL     1       2.374   6.459  20.656  0.00  0.00    +0.000 NA
ATOM      9  N   UNL     1       2.239   5.415  21.517  0.00  0.00    +0.000 N 
ATOM     10  C   UNL     1       2.175   4.087  21.175  0.00  0.00    +0.000 A 
ATOM     11  O   UNL     1       2.025   3.203  22.012  0.00  0.00    +0.000 OA
ATOM     12  C   UNL     1       2.309   3.782  19.743  0.00  0.00    +0.000 A 
ATOM     13  C   UNL     1       2.216   2.453  19.306  0.00  0.00    +0.000 A 
ATOM     14  C   UNL     1       2.362   2.156  17.953  0.00  0.00    +0.000 A 
ATOM     15  C   UNL     1       2.634   3.180  17.049  0.00  0.00    +0.000 A 
ATOM     16  C   UNL     1       2.735   4.505  17.490  0.00  0.00    +0.000 A 
ATOM     17  C   UNL     1       2.538   4.821  18.841  0.00  0.00    +0.000 A 
ATOM     18  H   UNL     1       2.135   5.642  22.503  0.00  0.00    +0.000 HD
ENDBRANCH   2   7
BRANCH   5  19
ATOM     19  C   UNL     1      -0.583   9.703  17.705  0.00  0.00    +0.000 C 
BRANCH  19  20
ATOM     20  C   UNL     1      -1.809  10.488  18.112  0.00  0.00    +0.000 A 
ATOM     21  C   UNL     1      -1.743  11.456  19.127  0.00  0.00    +0.000 A 
ATOM     22  C   UNL     1      -2.875  12.199  19.474  0.00  0.00    +0.000 A 
ATOM     23  C   UNL     1      -4.077  11.973  18.811  0.00  0.00    +0.000 A 
ATOM     24  F   UNL     1      -5.158  12.689  19.147  0.00  0.00    +0.000 F 
ATOM     25  C   UNL     1      -4.153  11.017  17.807  0.00  0.00    +0.000 A 
ATOM     26  F   UNL     1      -5.311  10.802  17.166  0.00  0.00    +0.000 F 
ATOM     27  C   UNL     1      -3.031  10.275  17.450  0.00  0.00    +0.000 A 
ENDBRANCH  19  20
ENDBRANCH   5  19
TORSDOF 3
ENDMDL
MODEL 6
REMARK VINA RESULT:      -7.3      5.701      8.094
REMARK  Name = 
REMARK  3 active torsions:
REMARK  status: ('A' for Active; 'I' for Inactive)
REMARK    1  A    between atoms: C_2  and  C_3
REMARK    2  A    between atoms: C_16  and  C_17
REMARK    3  A    between atoms: C_17  and  C_18
REMARK                            x       y       z     vdW  Elec       q    Type
REMARK                         _______ _______ _______ _____ _____    ______ ____
ROOT
ATOM      1  O   UNL     1       3.211   7.238  17.333  0.00  0.00    +0.000 OA
ATOM      2  C   UNL     1       2.622   7.377  18.399  0.00  0.00    +0.000 C 
ATOM      3  N   UNL     1       2.053   8.575  18.770  0.00  0.00    +0.000 N 
ATOM      4  C   UNL     1       1.948   9.765  17.939  0.00  0.00    +0.000 C 
ATOM      5  C   UNL     1       0.536   9.961  18.518  0.00  0.00    +0.000 C 
ATOM      6  C   UNL     1       0.895   8.902  19.584  0.00  0.00    +0.000 C 
ENDROOT
BRANCH   2   7
ATOM      7  C   UNL     1       2.525   6.189  19.365  0.00  0.00    +0.000 A 
ATOM      8  N   UNL     1       2.383   6.454  20.634  0.00  0.00    +0.000 NA
ATOM      9  N   UNL     1       2.245   5.421  21.508  0.00  0.00    +0.000 N 
ATOM     10  C   UNL     1       2.174   4.089  21.182  0.00  0.00    +0.000 A 
ATOM     11  O   UNL     1       2.021   3.215  22.029  0.00  0.00    +0.000 OA
ATOM     12  C   UNL     1       2.304   3.767  19.752  0.00  0.00    +0.000 A 
ATOM     13  C   UNL     1       2.204   2.433  19.331  0.00  0.00    +0.000 A 
ATOM     14  C   UNL     1       2.345   2.120  17.982  0.00  0.00    +0.000 A 
ATOM     15  C   UNL     1       2.621   3.132  17.065  0.00  0.00    +0.000 A 
ATOM     16  C   UNL     1       2.728   4.461  17.491  0.00  0.00    +0.000 A 
ATOM     17  C   UNL     1       2.536   4.794  18.838  0.00  0.00    +0.000 A 
ATOM     18  H   UNL     1       2.144   5.660  22.491  0.00  0.00    +0.000 HD
ENDBRANCH   2   7
BRANCH   5  19
ATOM     19  C   UNL     1      -0.596   9.600  17.554  0.00  0.00    +0.000 C 
BRANCH  19  20
ATOM     20  C   UNL     1      -1.847  10.365  17.919  0.00  0.00    +0.000 A 
ATOM     21  C   UNL     1      -3.085  10.041  17.342  0.00  0.00    +0.000 A 
ATOM     22  C   UNL     1      -4.242  10.734  17.709  0.00  0.00    +0.000 A 
ATOM     23  C   UNL     1      -4.163  11.755  18.651  0.00  0.00    +0.000 A 
ATOM     24  F   UNL     1      -5.277  12.414  19.000  0.00  0.00    +0.000 F 
ATOM     25  C   UNL     1      -2.944  12.084  19.226  0.00  0.00    +0.000 A 
ATOM     26  F   UNL     1      -2.869  13.067  20.136  0.00  0.00    +0.000 F 
ATOM     27  C   UNL     1      -1.787  11.397  18.871  0.00  0.00    +0.000 A 
ENDBRANCH  19  20
ENDBRANCH   5  19
TORSDOF 3
ENDMDL
MODEL 7
REMARK VINA RESULT:      -7.2      3.655      6.875
REMARK  Name = 
REMARK  3 active torsions:
REMARK  status: ('A' for Active; 'I' for Inactive)
REMARK    1  A    between atoms: C_2  and  C_3
REMARK    2  A    between atoms: C_16  and  C_17
REMARK    3  A    between atoms: C_17  and  C_18
REMARK                            x       y       z     vdW  Elec       q    Type
REMARK                         _______ _______ _______ _____ _____    ______ ____
ROOT
ATOM      1  O   UNL     1       4.783   2.608  19.681  0.00  0.00    +0.000 OA
ATOM      2  C   UNL     1       4.241   3.347  18.867  0.00  0.00    +0.000 C 
ATOM      3  N   UNL     1       2.912   3.692  18.963  0.00  0.00    +0.000 N 
ATOM      4  C   UNL     1       2.020   3.364  20.064  0.00  0.00    +0.000 C 
ATOM      5  C   UNL     1       1.437   4.779  19.925  0.00  0.00    +0.000 C 
ATOM      6  C   UNL     1       2.176   4.883  18.572  0.00  0.00    +0.000 C 
ENDROOT
BRANCH   2   7
ATOM      7  C   UNL     1       5.059   3.895  17.689  0.00  0.00    +0.000 A 
ATOM      8  N   UNL     1       4.755   3.467  16.495  0.00  0.00    +0.000 NA
ATOM      9  N   UNL     1       5.430   3.973  15.427  0.00  0.00    +0.000 N 
ATOM     10  C   UNL     1       6.382   4.960  15.466  0.00  0.00    +0.000 A 
ATOM     11  O   UNL     1       6.929   5.382  14.452  0.00  0.00    +0.000 OA
ATOM     12  C   UNL     1       6.722   5.478  16.800  0.00  0.00    +0.000 A 
ATOM     13  C   UNL     1       7.658   6.515  16.923  0.00  0.00    +0.000 A 
ATOM     14  C   UNL     1       7.998   6.996  18.185  0.00  0.00    +0.000 A 
ATOM     15  C   UNL     1       7.430   6.418  19.318  0.00  0.00    +0.000 A 
ATOM     16  C   UNL     1       6.503   5.377  19.191  0.00  0.00    +0.000 A 
ATOM     17  C   UNL     1       6.115   4.921  17.925  0.00  0.00    +0.000 A 
ATOM     18  H   UNL     1       5.176   3.614  14.511  0.00  0.00    +0.000 HD
ENDBRANCH   2   7
BRANCH   5  19
ATOM     19  C   UNL     1       1.878   5.753  21.019  0.00  0.00    +0.000 C 
BRANCH  19  20
ATOM     20  C   UNL     1       1.476   7.162  20.648  0.00  0.00    +0.000 A 
ATOM     21  C   UNL     1       1.970   7.771  19.484  0.00  0.00    +0.000 A 
ATOM     22  C   UNL     1       1.567   9.063  19.133  0.00  0.00    +0.000 A 
ATOM     23  C   UNL     1       0.672   9.750  19.948  0.00  0.00    +0.000 A 
ATOM     24  F   UNL     1       0.289  10.987  19.605  0.00  0.00    +0.000 F 
ATOM     25  C   UNL     1       0.179   9.157  21.101  0.00  0.00    +0.000 A 
ATOM     26  F   UNL     1      -0.685   9.819  21.885  0.00  0.00    +0.000 F 
ATOM     27  C   UNL     1       0.570   7.870  21.457  0.00  0.00    +0.000 A 
ENDBRANCH  19  20
ENDBRANCH   5  19
TORSDOF 3
ENDMDL
MODEL 8
REMARK VINA RESULT:      -7.2      4.782      6.760
REMARK  Name = 
REMARK  3 active torsions:
REMARK  status: ('A' for Active; 'I' for Inactive)
REMARK    1  A    between atoms: C_2  and  C_3
REMARK    2  A    between atoms: C_16  and  C_17
REMARK    3  A    between atoms: C_17  and  C_18
REMARK                            x       y       z     vdW  Elec       q    Type
REMARK                         _______ _______ _______ _____ _____    ______ ____
ROOT
ATOM      1  O   UNL     1       2.252   5.642  20.034  0.00  0.00    +0.000 OA
ATOM      2  C   UNL     1       2.772   6.498  19.326  0.00  0.00    +0.000 C 
ATOM      3  N   UNL     1       4.027   6.337  18.785  0.00  0.00    +0.000 N 
ATOM      4  C   UNL     1       4.838   5.131  18.850  0.00  0.00    +0.000 C 
ATOM      5  C   UNL     1       5.242   5.404  17.392  0.00  0.00    +0.000 C 
ATOM      6  C   UNL     1       4.636   6.816  17.555  0.00  0.00    +0.000 C 
ENDROOT
BRANCH   2   7
ATOM      7  C   UNL     1       2.012   7.801  19.043  0.00  0.00    +0.000 A 
ATOM      8  N   UNL     1       1.871   8.158  17.796  0.00  0.00    +0.000 NA
ATOM      9  N   UNL     1       1.160   9.282  17.512  0.00  0.00    +0.000 N 
ATOM     10  C   UNL     1       0.501  10.073  18.420  0.00  0.00    +0.000 A 
ATOM     11  O   UNL     1      -0.144  11.060  18.081  0.00  0.00    +0.000 OA
ATOM     12  C   UNL     1       0.623   9.675  19.831  0.00  0.00    +0.000 A 
ATOM     13  C   UNL     1      -0.052  10.408  20.818  0.00  0.00    +0.000 A 
ATOM     14  C   UNL     1       0.074  10.048  22.157  0.00  0.00    +0.000 A 
ATOM     15  C   UNL     1       0.900   8.982  22.508  0.00  0.00    +0.000 A 
ATOM     16  C   UNL     1       1.578   8.259  21.521  0.00  0.00    +0.000 A 
ATOM     17  C   UNL     1       1.417   8.579  20.166  0.00  0.00    +0.000 A 
ATOM     18  H   UNL     1       1.075   9.538  16.532  0.00  0.00    +0.000 HD
ENDBRANCH   2   7
BRANCH   5  19
ATOM     19  C   UNL     1       4.567   4.488  16.369  0.00  0.00    +0.000 C 
BRANCH  19  20
ATOM     20  C   UNL     1       5.392   4.430  15.105  0.00  0.00    +0.000 A 
ATOM     21  C   UNL     1       6.641   5.067  15.028  0.00  0.00    +0.000 A 
ATOM     22  C   UNL     1       7.412   4.982  13.864  0.00  0.00    +0.000 A 
ATOM     23  C   UNL     1       6.933   4.262  12.774  0.00  0.00    +0.000 A 
ATOM     24  F   UNL     1       7.677   4.183  11.663  0.00  0.00    +0.000 F 
ATOM     25  C   UNL     1       5.700   3.630  12.839  0.00  0.00    +0.000 A 
ATOM     26  F   UNL     1       5.241   2.934  11.788  0.00  0.00    +0.000 F 
ATOM     27  C   UNL     1       4.927   3.705  13.994  0.00  0.00    +0.000 A 
ENDBRANCH  19  20
ENDBRANCH   5  19
TORSDOF 3
ENDMDL
MODEL 9
REMARK VINA RESULT:      -7.2      6.624      9.039
REMARK  Name = 
REMARK  3 active torsions:
REMARK  status: ('A' for Active; 'I' for Inactive)
REMARK    1  A    between atoms: C_2  and  C_3
REMARK    2  A    between atoms: C_16  and  C_17
REMARK    3  A    between atoms: C_17  and  C_18
REMARK                            x       y       z     vdW  Elec       q    Type
REMARK                         _______ _______ _______ _____ _____    ______ ____
ROOT
ATOM      1  O   UNL     1       2.606  12.008  18.640  0.00  0.00    +0.000 OA
ATOM      2  C   UNL     1       1.528  11.425  18.609  0.00  0.00    +0.000 C 
ATOM      3  N   UNL     1       1.376  10.200  18.001  0.00  0.00    +0.000 N 
ATOM      4  C   UNL     1       2.443   9.380  17.448  0.00  0.00    +0.000 C 
ATOM      5  C   UNL     1       1.718   8.158  18.035  0.00  0.00    +0.000 C 
ATOM      6  C   UNL     1       0.495   9.074  18.266  0.00  0.00    +0.000 C 
ENDROOT
BRANCH   2   7
ATOM      7  C   UNL     1       0.299  12.084  19.251  0.00  0.00    +0.000 A 
ATOM      8  N   UNL     1      -0.348  12.969  18.543  0.00  0.00    +0.000 NA
ATOM      9  N   UNL     1      -1.469  13.533  19.067  0.00  0.00    +0.000 N 
ATOM     10  C   UNL     1      -2.047  13.217  20.271  0.00  0.00    +0.000 A 
ATOM     11  O   UNL     1      -3.078  13.754  20.663  0.00  0.00    +0.000 OA
ATOM     12  C   UNL     1      -1.350  12.201  21.075  0.00  0.00    +0.000 A 
ATOM     13  C   UNL     1      -1.896  11.794  22.301  0.00  0.00    +0.000 A 
ATOM     14  C   UNL     1      -1.231  10.847  23.075  0.00  0.00    +0.000 A 
ATOM     15  C   UNL     1      -0.009  10.337  22.641  0.00  0.00    +0.000 A 
ATOM     16  C   UNL     1       0.537  10.753  21.421  0.00  0.00    +0.000 A 
ATOM     17  C   UNL     1      -0.150  11.666  20.609  0.00  0.00    +0.000 A 
ATOM     18  H   UNL     1      -1.947  14.224  18.495  0.00  0.00    +0.000 HD
ENDBRANCH   2   7
BRANCH   5  19
ATOM     19  C   UNL     1       2.379   7.575  19.286  0.00  0.00    +0.000 C 
BRANCH  19  20
ATOM     20  C   UNL     1       2.163   6.080  19.334  0.00  0.00    +0.000 A 
ATOM     21  C   UNL     1       2.208   5.306  18.163  0.00  0.00    +0.000 A 
ATOM     22  C   UNL     1       2.038   3.920  18.221  0.00  0.00    +0.000 A 
ATOM     23  C   UNL     1       1.819   3.305  19.450  0.00  0.00    +0.000 A 
ATOM     24  F   UNL     1       1.658   1.975  19.499  0.00  0.00    +0.000 F 
ATOM     25  C   UNL     1       1.771   4.060  20.613  0.00  0.00    +0.000 A 
ATOM     26  F   UNL     1       1.562   3.467  21.797  0.00  0.00    +0.000 F 
ATOM     27  C   UNL     1       1.944   5.441  20.566  0.00  0.00    +0.000 A 
ENDBRANCH  19  20
ENDBRANCH   5  19
TORSDOF 3
ENDMDL
