MODEL 1
REMARK VINA RESULT:      -9.0      0.000      0.000
REMARK  Name = 
REMARK  8 active torsions:
REMARK  status: ('A' for Active; 'I' for Inactive)
REMARK    1  A    between atoms: C_2  and  C_4
REMARK    2  A    between atoms: C_7  and  N_8
REMARK    3  A    between atoms: C_9  and  C_11
REMARK    4  A    between atoms: C_15  and  S_16
REMARK    5  A    between atoms: S_16  and  N_19
REMARK    6  A    between atoms: N_19  and  C_20
REMARK    7  A    between atoms: N_19  and  C_27
REMARK    8  A    between atoms: C_20  and  C_21
REMARK                            x       y       z     vdW  Elec       q    Type
REMARK                         _______ _______ _______ _____ _____    ______ ____
ROOT
ATOM      1  C   UNL     1       7.751   7.780  18.159  0.00  0.00    +0.000 A 
ATOM      2  C   UNL     1       8.464   6.834  18.915  0.00  0.00    +0.000 A 
ATOM      3  C   UNL     1       7.974   5.542  19.090  0.00  0.00    +0.000 A 
ATOM      4  C   UNL     1       6.772   5.169  18.490  0.00  0.00    +0.000 A 
ATOM      5  C   UNL     1       6.095   6.073  17.670  0.00  0.00    +0.000 A 
ATOM      6  C   UNL     1       6.567   7.393  17.520  0.00  0.00    +0.000 A 
ENDROOT
BRANCH   1   8
ATOM      7  N   UNL     1       9.121   9.534  19.229  0.00  0.00    +0.000 N 
ATOM      8  C   UNL     1       8.267   9.180  18.195  0.00  0.00    +0.000 C 
ATOM      9  O   UNL     1       7.872   9.928  17.303  0.00  0.00    +0.000 OA
ATOM     10  H   UNL     1       9.301   8.854  19.954  0.00  0.00    +0.000 HD
BRANCH   7  14
ATOM     11  C   UNL     1      10.764  13.397  19.861  0.00  0.00    +0.000 A 
ATOM     12  C   UNL     1      10.901  12.786  18.618  0.00  0.00    +0.000 A 
ATOM     13  C   UNL     1      10.373  11.510  18.401  0.00  0.00    +0.000 A 
ATOM     14  C   UNL     1       9.701  10.817  19.413  0.00  0.00    +0.000 A 
ATOM     15  C   UNL     1       9.601  11.420  20.675  0.00  0.00    +0.000 A 
ATOM     16  C   UNL     1      10.134  12.701  20.899  0.00  0.00    +0.000 A 
BRANCH  11  18
ATOM     17  N   UNL     1      12.322  15.184  19.306  0.00  0.00    +0.000 N 
ATOM     18  C   UNL     1      11.293  14.764  20.106  0.00  0.00    +0.000 C 
ATOM     19  O   UNL     1      10.812  15.497  20.961  0.00  0.00    +0.000 OA
ATOM     20  H   UNL     1      12.628  16.141  19.417  0.00  0.00    +0.000 HD
ATOM     21  H   UNL     1      12.585  14.702  18.459  0.00  0.00    +0.000 HD
ENDBRANCH  11  18
ENDBRANCH   7  14
ENDBRANCH   1   8
BRANCH   5  22
ATOM     22  S   UNL     1       4.564   5.644  16.840  0.00  0.00    +0.000 S 
ATOM     23  O   UNL     1       4.349   6.729  15.904  0.00  0.00    +0.000 OA
ATOM     24  O   UNL     1       4.729   4.281  16.382  0.00  0.00    +0.000 OA
BRANCH  22  25
ATOM     25  N   UNL     1       3.340   5.668  18.028  0.00  0.00    +0.000 N 
BRANCH  25  26
ATOM     26  C   UNL     1       2.858   4.366  18.410  0.00  0.00    +0.000 A 
ATOM     27  C   UNL     1       3.582   3.512  19.249  0.00  0.00    +0.000 A 
ATOM     28  C   UNL     1       3.009   2.313  19.677  0.00  0.00    +0.000 A 
ATOM     29  C   UNL     1       1.720   1.968  19.266  0.00  0.00    +0.000 A 
ATOM     30  C   UNL     1       1.010   2.808  18.408  0.00  0.00    +0.000 A 
ATOM     31  C   UNL     1       1.587   3.999  17.969  0.00  0.00    +0.000 A 
ENDBRANCH  25  26
BRANCH  25  32
ATOM     32  C   UNL     1       3.445   6.667  19.141  0.00  0.00    +0.000 C 
BRANCH  32  33
ATOM     33  C   UNL     1       2.347   7.722  19.076  0.00  0.00    +0.000 A 
ATOM     34  C   UNL     1       2.067   8.407  17.882  0.00  0.00    +0.000 A 
ATOM     35  C   UNL     1       1.204   9.503  17.869  0.00  0.00    +0.000 A 
ATOM     36  C   UNL     1       0.564   9.896  19.039  0.00  0.00    +0.000 A 
ATOM     37  C   UNL     1       0.755   9.167  20.211  0.00  0.00    +0.000 A 
ATOM     38  C   UNL     1       1.634   8.081  20.229  0.00  0.00    +0.000 A 
ENDBRANCH  32  33
ENDBRANCH  25  32
ENDBRANCH  22  25
ENDBRANCH   5  22
TORSDOF 8
ENDMDL
MODEL 2
REMARK VINA RESULT:      -8.6      5.202      8.690
REMARK  Name = 
REMARK  8 active torsions:
REMARK  status: ('A' for Active; 'I' for Inactive)
REMARK    1  A    between atoms: C_2  and  C_4
REMARK    2  A    between atoms: C_7  and  N_8
REMARK    3  A    between atoms: C_9  and  C_11
REMARK    4  A    between atoms: C_15  and  S_16
REMARK    5  A    between atoms: S_16  and  N_19
REMARK    6  A    between atoms: N_19  and  C_20
REMARK    7  A    between atoms: N_19  and  C_27
REMARK    8  A    between atoms: C_20  and  C_21
REMARK                            x       y       z     vdW  Elec       q    Type
REMARK                         _______ _______ _______ _____ _____    ______ ____
ROOT
ATOM      1  C   UNL     1       1.512   8.465  19.622  0.00  0.00    +0.000 A 
ATOM      2  C   UNL     1       1.295   7.543  20.660  0.00  0.00    +0.000 A 
ATOM      3  C   UNL     1       0.637   7.922  21.828  0.00  0.00    +0.000 A 
ATOM      4  C   UNL     1       0.166   9.227  21.967  0.00  0.00    +0.000 A 
ATOM      5  C   UNL     1       0.303  10.131  20.912  0.00  0.00    +0.000 A 
ATOM      6  C   UNL     1       1.000   9.763  19.742  0.00  0.00    +0.000 A 
ENDROOT
BRANCH   1   8
ATOM      7  N   UNL     1       3.103   6.831  18.675  0.00  0.00    +0.000 N 
ATOM      8  C   UNL     1       2.389   8.008  18.504  0.00  0.00    +0.000 C 
ATOM      9  O   UNL     1       2.427   8.733  17.513  0.00  0.00    +0.000 OA
ATOM     10  H   UNL     1       3.057   6.370  19.573  0.00  0.00    +0.000 HD
BRANCH   7  14
ATOM     11  C   UNL     1       5.728   5.218  15.755  0.00  0.00    +0.000 A 
ATOM     12  C   UNL     1       4.745   4.409  16.318  0.00  0.00    +0.000 A 
ATOM     13  C   UNL     1       3.882   4.926  17.288  0.00  0.00    +0.000 A 
ATOM     14  C   UNL     1       3.978   6.254  17.718  0.00  0.00    +0.000 A 
ATOM     15  C   UNL     1       4.995   7.053  17.176  0.00  0.00    +0.000 A 
ATOM     16  C   UNL     1       5.868   6.537  16.203  0.00  0.00    +0.000 A 
BRANCH  11  18
ATOM     17  N   UNL     1       6.256   3.549  14.063  0.00  0.00    +0.000 N 
ATOM     18  C   UNL     1       6.639   4.698  14.702  0.00  0.00    +0.000 C 
ATOM     19  O   UNL     1       7.669   5.284  14.394  0.00  0.00    +0.000 OA
ATOM     20  H   UNL     1       6.832   3.239  13.292  0.00  0.00    +0.000 HD
ATOM     21  H   UNL     1       5.321   3.173  14.131  0.00  0.00    +0.000 HD
ENDBRANCH  11  18
ENDBRANCH   7  14
ENDBRANCH   1   8
BRANCH   5  22
ATOM     22  S   UNL     1      -0.313  11.812  21.011  0.00  0.00    +0.000 S 
ATOM     23  O   UNL     1      -1.551  11.696  21.753  0.00  0.00    +0.000 OA
ATOM     24  O   UNL     1       0.788  12.609  21.511  0.00  0.00    +0.000 OA
BRANCH  22  25
ATOM     25  N   UNL     1      -0.650  12.304  19.413  0.00  0.00    +0.000 N 
BRANCH  25  26
ATOM     26  C   UNL     1      -1.783  11.647  18.816  0.00  0.00    +0.000 A 
ATOM     27  C   UNL     1      -3.100  12.052  19.054  0.00  0.00    +0.000 A 
ATOM     28  C   UNL     1      -4.147  11.450  18.354  0.00  0.00    +0.000 A 
ATOM     29  C   UNL     1      -3.879  10.444  17.422  0.00  0.00    +0.000 A 
ATOM     30  C   UNL     1      -2.567  10.023  17.205  0.00  0.00    +0.000 A 
ATOM     31  C   UNL     1      -1.522  10.614  17.913  0.00  0.00    +0.000 A 
ENDBRANCH  25  26
BRANCH  25  32
ATOM     32  C   UNL     1      -0.488  13.753  19.063  0.00  0.00    +0.000 C 
BRANCH  32  33
ATOM     33  C   UNL     1       0.938  14.092  18.646  0.00  0.00    +0.000 A 
ATOM     34  C   UNL     1       1.824  13.094  18.210  0.00  0.00    +0.000 A 
ATOM     35  C   UNL     1       3.178  13.369  18.019  0.00  0.00    +0.000 A 
ATOM     36  C   UNL     1       3.656  14.662  18.205  0.00  0.00    +0.000 A 
ATOM     37  C   UNL     1       2.772  15.685  18.543  0.00  0.00    +0.000 A 
ATOM     38  C   UNL     1       1.419  15.405  18.754  0.00  0.00    +0.000 A 
ENDBRANCH  32  33
ENDBRANCH  25  32
ENDBRANCH  22  25
ENDBRANCH   5  22
TORSDOF 8
ENDMDL
MODEL 3
REMARK VINA RESULT:      -8.5      5.458      9.295
REMARK  Name = 
REMARK  8 active torsions:
REMARK  status: ('A' for Active; 'I' for Inactive)
REMARK    1  A    between atoms: C_2  and  C_4
REMARK    2  A    between atoms: C_7  and  N_8
REMARK    3  A    between atoms: C_9  and  C_11
REMARK    4  A    between atoms: C_15  and  S_16
REMARK    5  A    between atoms: S_16  and  N_19
REMARK    6  A    between atoms: N_19  and  C_20
REMARK    7  A    between atoms: N_19  and  C_27
REMARK    8  A    between atoms: C_20  and  C_21
REMARK                            x       y       z     vdW  Elec       q    Type
REMARK                         _______ _______ _______ _____ _____    ______ ____
ROOT
ATOM      1  C   UNL     1       1.465   8.833  19.764  0.00  0.00    +0.000 A 
ATOM      2  C   UNL     1       1.200   7.958  20.831  0.00  0.00    +0.000 A 
ATOM      3  C   UNL     1       0.634   8.424  22.016  0.00  0.00    +0.000 A 
ATOM      4  C   UNL     1       0.305   9.773  22.143  0.00  0.00    +0.000 A 
ATOM      5  C   UNL     1       0.488  10.638  21.063  0.00  0.00    +0.000 A 
ATOM      6  C   UNL     1       1.094  10.179  19.875  0.00  0.00    +0.000 A 
ENDROOT
BRANCH   1   8
ATOM      7  N   UNL     1       3.011   7.136  18.853  0.00  0.00    +0.000 N 
ATOM      8  C   UNL     1       2.243   8.268  18.622  0.00  0.00    +0.000 C 
ATOM      9  O   UNL     1       2.157   8.872  17.556  0.00  0.00    +0.000 OA
ATOM     10  H   UNL     1       3.070   6.784  19.798  0.00  0.00    +0.000 HD
BRANCH   7  14
ATOM     11  C   UNL     1       5.402   5.256  15.893  0.00  0.00    +0.000 A 
ATOM     12  C   UNL     1       4.408   4.527  16.539  0.00  0.00    +0.000 A 
ATOM     13  C   UNL     1       3.621   5.132  17.523  0.00  0.00    +0.000 A 
ATOM     14  C   UNL     1       3.807   6.471  17.884  0.00  0.00    +0.000 A 
ATOM     15  C   UNL     1       4.835   7.189  17.258  0.00  0.00    +0.000 A 
ATOM     16  C   UNL     1       5.632   6.584  16.271  0.00  0.00    +0.000 A 
BRANCH  11  18
ATOM     17  N   UNL     1       7.430   5.243  14.545  0.00  0.00    +0.000 N 
ATOM     18  C   UNL     1       6.232   4.641  14.824  0.00  0.00    +0.000 C 
ATOM     19  O   UNL     1       5.879   3.626  14.238  0.00  0.00    +0.000 OA
ATOM     20  H   UNL     1       8.031   4.781  13.877  0.00  0.00    +0.000 HD
ATOM     21  H   UNL     1       7.847   5.934  15.153  0.00  0.00    +0.000 HD
ENDBRANCH  11  18
ENDBRANCH   7  14
ENDBRANCH   1   8
BRANCH   5  22
ATOM     22  S   UNL     1       0.051  12.376  21.148  0.00  0.00    +0.000 S 
ATOM     23  O   UNL     1       0.253  12.727  22.539  0.00  0.00    +0.000 OA
ATOM     24  O   UNL     1       0.801  13.025  20.094  0.00  0.00    +0.000 OA
BRANCH  22  25
ATOM     25  N   UNL     1      -1.609  12.480  20.770  0.00  0.00    +0.000 N 
BRANCH  25  26
ATOM     26  C   UNL     1      -2.431  12.985  21.839  0.00  0.00    +0.000 A 
ATOM     27  C   UNL     1      -2.969  14.276  21.830  0.00  0.00    +0.000 A 
ATOM     28  C   UNL     1      -3.853  14.665  22.838  0.00  0.00    +0.000 A 
ATOM     29  C   UNL     1      -4.196  13.768  23.853  0.00  0.00    +0.000 A 
ATOM     30  C   UNL     1      -3.638  12.490  23.874  0.00  0.00    +0.000 A 
ATOM     31  C   UNL     1      -2.745  12.105  22.876  0.00  0.00    +0.000 A 
ENDBRANCH  25  26
BRANCH  25  32
ATOM     32  C   UNL     1      -2.001  12.925  19.393  0.00  0.00    +0.000 C 
BRANCH  32  33
ATOM     33  C   UNL     1      -2.442  11.761  18.514  0.00  0.00    +0.000 A 
ATOM     34  C   UNL     1      -1.523  10.800  18.064  0.00  0.00    +0.000 A 
ATOM     35  C   UNL     1      -1.884   9.853  17.106  0.00  0.00    +0.000 A 
ATOM     36  C   UNL     1      -3.188   9.816  16.624  0.00  0.00    +0.000 A 
ATOM     37  C   UNL     1      -4.139  10.700  17.132  0.00  0.00    +0.000 A 
ATOM     38  C   UNL     1      -3.772  11.661  18.078  0.00  0.00    +0.000 A 
ENDBRANCH  32  33
ENDBRANCH  25  32
ENDBRANCH  22  25
ENDBRANCH   5  22
TORSDOF 8
ENDMDL
MODEL 4
REMARK VINA RESULT:      -8.4      5.577      9.438
REMARK  Name = 
REMARK  8 active torsions:
REMARK  status: ('A' for Active; 'I' for Inactive)
REMARK    1  A    between atoms: C_2  and  C_4
REMARK    2  A    between atoms: C_7  and  N_8
REMARK    3  A    between atoms: C_9  and  C_11
REMARK    4  A    between atoms: C_15  and  S_16
REMARK    5  A    between atoms: S_16  and  N_19
REMARK    6  A    between atoms: N_19  and  C_20
REMARK    7  A    between atoms: N_19  and  C_27
REMARK    8  A    between atoms: C_20  and  C_21
REMARK                            x       y       z     vdW  Elec       q    Type
REMARK                         _______ _______ _______ _____ _____    ______ ____
ROOT
ATOM      1  C   UNL     1       1.299   8.892  19.900  0.00  0.00    +0.000 A 
ATOM      2  C   UNL     1       0.994   7.994  20.937  0.00  0.00    +0.000 A 
ATOM      3  C   UNL     1       0.412   8.439  22.122  0.00  0.00    +0.000 A 
ATOM      4  C   UNL     1       0.105   9.790  22.278  0.00  0.00    +0.000 A 
ATOM      5  C   UNL     1       0.327  10.680  21.226  0.00  0.00    +0.000 A 
ATOM      6  C   UNL     1       0.949  10.241  20.039  0.00  0.00    +0.000 A 
ENDROOT
BRANCH   1   8
ATOM      7  N   UNL     1       2.771   7.150  18.954  0.00  0.00    +0.000 N 
ATOM      8  C   UNL     1       2.091   8.343  18.760  0.00  0.00    +0.000 C 
ATOM      9  O   UNL     1       2.095   9.012  17.730  0.00  0.00    +0.000 OA
ATOM     10  H   UNL     1       2.762   6.739  19.877  0.00  0.00    +0.000 HD
BRANCH   7  14
ATOM     11  C   UNL     1       5.144   5.279  15.973  0.00  0.00    +0.000 A 
ATOM     12  C   UNL     1       4.280   4.510  16.748  0.00  0.00    +0.000 A 
ATOM     13  C   UNL     1       3.502   5.113  17.739  0.00  0.00    +0.000 A 
ATOM     14  C   UNL     1       3.567   6.490  17.981  0.00  0.00    +0.000 A 
ATOM     15  C   UNL     1       4.467   7.253  17.225  0.00  0.00    +0.000 A 
ATOM     16  C   UNL     1       5.255   6.651  16.230  0.00  0.00    +0.000 A 
BRANCH  11  18
ATOM     17  N   UNL     1       7.322   4.733  15.031  0.00  0.00    +0.000 N 
ATOM     18  C   UNL     1       5.961   4.664  14.894  0.00  0.00    +0.000 C 
ATOM     19  O   UNL     1       5.446   4.093  13.942  0.00  0.00    +0.000 OA
ATOM     20  H   UNL     1       7.877   4.245  14.341  0.00  0.00    +0.000 HD
ATOM     21  H   UNL     1       7.770   4.989  15.899  0.00  0.00    +0.000 HD
ENDBRANCH  11  18
ENDBRANCH   7  14
ENDBRANCH   1   8
BRANCH   5  22
ATOM     22  S   UNL     1      -0.081  12.422  21.349  0.00  0.00    +0.000 S 
ATOM     23  O   UNL     1       0.123  12.739  22.747  0.00  0.00    +0.000 OA
ATOM     24  O   UNL     1       0.684  13.082  20.312  0.00  0.00    +0.000 OA
BRANCH  22  25
ATOM     25  N   UNL     1      -1.737  12.565  20.968  0.00  0.00    +0.000 N 
BRANCH  25  26
ATOM     26  C   UNL     1      -2.561  13.018  22.058  0.00  0.00    +0.000 A 
ATOM     27  C   UNL     1      -2.968  12.173  23.095  0.00  0.00    +0.000 A 
ATOM     28  C   UNL     1      -3.666  12.699  24.183  0.00  0.00    +0.000 A 
ATOM     29  C   UNL     1      -3.961  14.064  24.231  0.00  0.00    +0.000 A 
ATOM     30  C   UNL     1      -3.578  14.900  23.183  0.00  0.00    +0.000 A 
ATOM     31  C   UNL     1      -2.892  14.373  22.090  0.00  0.00    +0.000 A 
ENDBRANCH  25  26
BRANCH  25  32
ATOM     32  C   UNL     1      -2.115  13.088  19.614  0.00  0.00    +0.000 C 
BRANCH  32  33
ATOM     33  C   UNL     1      -2.518  11.974  18.656  0.00  0.00    +0.000 A 
ATOM     34  C   UNL     1      -3.866  11.631  18.465  0.00  0.00    +0.000 A 
ATOM     35  C   UNL     1      -4.222  10.491  17.744  0.00  0.00    +0.000 A 
ATOM     36  C   UNL     1      -3.237   9.706  17.155  0.00  0.00    +0.000 A 
ATOM     37  C   UNL     1      -1.900  10.086  17.253  0.00  0.00    +0.000 A 
ATOM     38  C   UNL     1      -1.542  11.218  17.991  0.00  0.00    +0.000 A 
ENDBRANCH  32  33
ENDBRANCH  25  32
ENDBRANCH  22  25
ENDBRANCH   5  22
TORSDOF 8
ENDMDL
MODEL 5
REMARK VINA RESULT:      -8.4      5.213      8.729
REMARK  Name = 
REMARK  8 active torsions:
REMARK  status: ('A' for Active; 'I' for Inactive)
REMARK    1  A    between atoms: C_2  and  C_4
REMARK    2  A    between atoms: C_7  and  N_8
REMARK    3  A    between atoms: C_9  and  C_11
REMARK    4  A    between atoms: C_15  and  S_16
REMARK    5  A    between atoms: S_16  and  N_19
REMARK    6  A    between atoms: N_19  and  C_20
REMARK    7  A    between atoms: N_19  and  C_27
REMARK    8  A    between atoms: C_20  and  C_21
REMARK                            x       y       z     vdW  Elec       q    Type
REMARK                         _______ _______ _______ _____ _____    ______ ____
ROOT
ATOM      1  C   UNL     1       1.483   8.560  19.676  0.00  0.00    +0.000 A 
ATOM      2  C   UNL     1       1.374   7.703  20.785  0.00  0.00    +0.000 A 
ATOM      3  C   UNL     1       0.774   8.135  21.966  0.00  0.00    +0.000 A 
ATOM      4  C   UNL     1       0.253   9.425  22.048  0.00  0.00    +0.000 A 
ATOM      5  C   UNL     1       0.281  10.259  20.928  0.00  0.00    +0.000 A 
ATOM      6  C   UNL     1       0.919   9.840  19.742  0.00  0.00    +0.000 A 
ENDROOT
BRANCH   1   8
ATOM      7  N   UNL     1       3.047   6.905  18.722  0.00  0.00    +0.000 N 
ATOM      8  C   UNL     1       2.308   8.064  18.536  0.00  0.00    +0.000 C 
ATOM      9  O   UNL     1       2.284   8.743  17.512  0.00  0.00    +0.000 OA
ATOM     10  H   UNL     1       3.055   6.485  19.641  0.00  0.00    +0.000 HD
BRANCH   7  14
ATOM     11  C   UNL     1       5.545   5.195  15.746  0.00  0.00    +0.000 A 
ATOM     12  C   UNL     1       4.595   4.403  16.385  0.00  0.00    +0.000 A 
ATOM     13  C   UNL     1       3.774   4.952  17.374  0.00  0.00    +0.000 A 
ATOM     14  C   UNL     1       3.882   6.297  17.747  0.00  0.00    +0.000 A 
ATOM     15  C   UNL     1       4.866   7.079  17.129  0.00  0.00    +0.000 A 
ATOM     16  C   UNL     1       5.697   6.531  16.137  0.00  0.00    +0.000 A 
BRANCH  11  18
ATOM     17  N   UNL     1       7.600   5.278  14.442  0.00  0.00    +0.000 N 
ATOM     18  C   UNL     1       6.410   4.640  14.672  0.00  0.00    +0.000 C 
ATOM     19  O   UNL     1       6.092   3.640  14.041  0.00  0.00    +0.000 OA
ATOM     20  H   UNL     1       8.224   4.854  13.769  0.00  0.00    +0.000 HD
ATOM     21  H   UNL     1       7.989   5.954  15.084  0.00  0.00    +0.000 HD
ENDBRANCH  11  18
ENDBRANCH   7  14
ENDBRANCH   1   8
BRANCH   5  22
ATOM     22  S   UNL     1      -0.406  11.915  20.955  0.00  0.00    +0.000 S 
ATOM     23  O   UNL     1      -1.696  11.757  21.594  0.00  0.00    +0.000 OA
ATOM     24  O   UNL     1       0.618  12.759  21.534  0.00  0.00    +0.000 OA
BRANCH  22  25
ATOM     25  N   UNL     1      -0.628  12.378  19.329  0.00  0.00    +0.000 N 
BRANCH  25  26
ATOM     26  C   UNL     1      -1.710  11.703  18.662  0.00  0.00    +0.000 A 
ATOM     27  C   UNL     1      -1.509  10.596  17.831  0.00  0.00    +0.000 A 
ATOM     28  C   UNL     1      -2.609   9.914  17.308  0.00  0.00    +0.000 A 
ATOM     29  C   UNL     1      -3.904  10.340  17.609  0.00  0.00    +0.000 A 
ATOM     30  C   UNL     1      -4.103  11.461  18.415  0.00  0.00    +0.000 A 
ATOM     31  C   UNL     1      -3.005  12.150  18.928  0.00  0.00    +0.000 A 
ENDBRANCH  25  26
BRANCH  25  32
ATOM     32  C   UNL     1      -0.450  13.822  18.967  0.00  0.00    +0.000 C 
BRANCH  32  33
ATOM     33  C   UNL     1       1.012  14.184  18.735  0.00  0.00    +0.000 A 
ATOM     34  C   UNL     1       1.454  15.514  18.822  0.00  0.00    +0.000 A 
ATOM     35  C   UNL     1       2.741  15.871  18.419  0.00  0.00    +0.000 A 
ATOM     36  C   UNL     1       3.626  14.893  17.977  0.00  0.00    +0.000 A 
ATOM     37  C   UNL     1       3.235  13.555  17.977  0.00  0.00    +0.000 A 
ATOM     38  C   UNL     1       1.939  13.200  18.362  0.00  0.00    +0.000 A 
ENDBRANCH  32  33
ENDBRANCH  25  32
ENDBRANCH  22  25
ENDBRANCH   5  22
TORSDOF 8
ENDMDL
MODEL 6
REMARK VINA RESULT:      -8.3      6.342     10.473
REMARK  Name = 
REMARK  8 active torsions:
REMARK  status: ('A' for Active; 'I' for Inactive)
REMARK    1  A    between atoms: C_2  and  C_4
REMARK    2  A    between atoms: C_7  and  N_8
REMARK    3  A    between atoms: C_9  and  C_11
REMARK    4  A    between atoms: C_15  and  S_16
REMARK    5  A    between atoms: S_16  and  N_19
REMARK    6  A    between atoms: N_19  and  C_20
REMARK    7  A    between atoms: N_19  and  C_27
REMARK    8  A    between atoms: C_20  and  C_21
REMARK                            x       y       z     vdW  Elec       q    Type
REMARK                         _______ _______ _______ _____ _____    ______ ____
ROOT
ATOM      1  C   UNL     1       0.753   9.096  20.970  0.00  0.00    +0.000 A 
ATOM      2  C   UNL     1      -0.067   8.763  22.062  0.00  0.00    +0.000 A 
ATOM      3  C   UNL     1      -0.651   9.755  22.847  0.00  0.00    +0.000 A 
ATOM      4  C   UNL     1      -0.441  11.098  22.537  0.00  0.00    +0.000 A 
ATOM      5  C   UNL     1       0.304  11.443  21.408  0.00  0.00    +0.000 A 
ATOM      6  C   UNL     1       0.928  10.444  20.631  0.00  0.00    +0.000 A 
ENDROOT
BRANCH   1   8
ATOM      7  N   UNL     1       1.407   6.716  20.915  0.00  0.00    +0.000 N 
ATOM      8  C   UNL     1       1.478   7.966  20.318  0.00  0.00    +0.000 C 
ATOM      9  O   UNL     1       2.107   8.240  19.299  0.00  0.00    +0.000 OA
ATOM     10  H   UNL     1       0.931   6.636  21.803  0.00  0.00    +0.000 HD
BRANCH   7  14
ATOM     11  C   UNL     1       3.315   3.166  19.583  0.00  0.00    +0.000 A 
ATOM     12  C   UNL     1       3.250   4.270  18.738  0.00  0.00    +0.000 A 
ATOM     13  C   UNL     1       2.615   5.441  19.162  0.00  0.00    +0.000 A 
ATOM     14  C   UNL     1       2.033   5.537  20.430  0.00  0.00    +0.000 A 
ATOM     15  C   UNL     1       2.067   4.409  21.261  0.00  0.00    +0.000 A 
ATOM     16  C   UNL     1       2.700   3.228  20.839  0.00  0.00    +0.000 A 
BRANCH  11  18
ATOM     17  N   UNL     1       5.093   1.535  19.908  0.00  0.00    +0.000 N 
ATOM     18  C   UNL     1       4.010   1.920  19.164  0.00  0.00    +0.000 C 
ATOM     19  O   UNL     1       3.616   1.249  18.219  0.00  0.00    +0.000 OA
ATOM     20  H   UNL     1       5.517   0.646  19.675  0.00  0.00    +0.000 HD
ATOM     21  H   UNL     1       5.303   1.932  20.812  0.00  0.00    +0.000 HD
ENDBRANCH  11  18
ENDBRANCH   7  14
ENDBRANCH   1   8
BRANCH   5  22
ATOM     22  S   UNL     1       0.581  13.150  20.932  0.00  0.00    +0.000 S 
ATOM     23  O   UNL     1       0.468  13.889  22.173  0.00  0.00    +0.000 OA
ATOM     24  O   UNL     1       1.809  13.154  20.167  0.00  0.00    +0.000 OA
BRANCH  22  25
ATOM     25  N   UNL     1      -0.701  13.581  19.894  0.00  0.00    +0.000 N 
BRANCH  25  26
ATOM     26  C   UNL     1      -1.165  14.935  20.052  0.00  0.00    +0.000 A 
ATOM     27  C   UNL     1      -0.512  16.027  19.470  0.00  0.00    +0.000 A 
ATOM     28  C   UNL     1      -1.077  17.300  19.563  0.00  0.00    +0.000 A 
ATOM     29  C   UNL     1      -2.287  17.482  20.238  0.00  0.00    +0.000 A 
ATOM     30  C   UNL     1      -2.922  16.396  20.840  0.00  0.00    +0.000 A 
ATOM     31  C   UNL     1      -2.353  15.127  20.759  0.00  0.00    +0.000 A 
ENDBRANCH  25  26
BRANCH  25  32
ATOM     32  C   UNL     1      -0.681  13.069  18.485  0.00  0.00    +0.000 C 
BRANCH  32  33
ATOM     33  C   UNL     1      -1.673  11.932  18.269  0.00  0.00    +0.000 A 
ATOM     34  C   UNL     1      -1.256  10.690  17.763  0.00  0.00    +0.000 A 
ATOM     35  C   UNL     1      -2.185   9.722  17.381  0.00  0.00    +0.000 A 
ATOM     36  C   UNL     1      -3.545   9.959  17.554  0.00  0.00    +0.000 A 
ATOM     37  C   UNL     1      -3.971  11.146  18.145  0.00  0.00    +0.000 A 
ATOM     38  C   UNL     1      -3.042  12.124  18.509  0.00  0.00    +0.000 A 
ENDBRANCH  32  33
ENDBRANCH  25  32
ENDBRANCH  22  25
ENDBRANCH   5  22
TORSDOF 8
ENDMDL
MODEL 7
REMARK VINA RESULT:      -8.3      6.162     10.332
REMARK  Name = 
REMARK  8 active torsions:
REMARK  status: ('A' for Active; 'I' for Inactive)
REMARK    1  A    between atoms: C_2  and  C_4
REMARK    2  A    between atoms: C_7  and  N_8
REMARK    3  A    between atoms: C_9  and  C_11
REMARK    4  A    between atoms: C_15  and  S_16
REMARK    5  A    between atoms: S_16  and  N_19
REMARK    6  A    between atoms: N_19  and  C_20
REMARK    7  A    between atoms: N_19  and  C_27
REMARK    8  A    between atoms: C_20  and  C_21
REMARK                            x       y       z     vdW  Elec       q    Type
REMARK                         _______ _______ _______ _____ _____    ______ ____
ROOT
ATOM      1  C   UNL     1       0.695   9.374  20.887  0.00  0.00    +0.000 A 
ATOM      2  C   UNL     1      -0.201   9.071  21.927  0.00  0.00    +0.000 A 
ATOM      3  C   UNL     1      -0.749  10.080  22.716  0.00  0.00    +0.000 A 
ATOM      4  C   UNL     1      -0.426  11.413  22.461  0.00  0.00    +0.000 A 
ATOM      5  C   UNL     1       0.398  11.733  21.381  0.00  0.00    +0.000 A 
ATOM      6  C   UNL     1       0.985  10.713  20.602  0.00  0.00    +0.000 A 
ENDROOT
BRANCH   1   8
ATOM      7  N   UNL     1       1.481   7.034  20.957  0.00  0.00    +0.000 N 
ATOM      8  C   UNL     1       1.366   8.212  20.234  0.00  0.00    +0.000 C 
ATOM      9  O   UNL     1       1.791   8.399  19.096  0.00  0.00    +0.000 OA
ATOM     10  H   UNL     1       1.172   7.031  21.919  0.00  0.00    +0.000 HD
BRANCH   7  14
ATOM     11  C   UNL     1       3.241   3.397  19.656  0.00  0.00    +0.000 A 
ATOM     12  C   UNL     1       3.910   4.599  19.444  0.00  0.00    +0.000 A 
ATOM     13  C   UNL     1       3.336   5.804  19.859  0.00  0.00    +0.000 A 
ATOM     14  C   UNL     1       2.087   5.838  20.490  0.00  0.00    +0.000 A 
ATOM     15  C   UNL     1       1.400   4.629  20.664  0.00  0.00    +0.000 A 
ATOM     16  C   UNL     1       1.971   3.415  20.246  0.00  0.00    +0.000 A 
BRANCH  11  18
ATOM     17  N   UNL     1       5.019   1.746  19.857  0.00  0.00    +0.000 N 
ATOM     18  C   UNL     1       3.845   2.101  19.249  0.00  0.00    +0.000 C 
ATOM     19  O   UNL     1       3.305   1.367  18.431  0.00  0.00    +0.000 OA
ATOM     20  H   UNL     1       5.388   0.829  19.642  0.00  0.00    +0.000 HD
ATOM     21  H   UNL     1       5.365   2.209  20.685  0.00  0.00    +0.000 HD
ENDBRANCH  11  18
ENDBRANCH   7  14
ENDBRANCH   1   8
BRANCH   5  22
ATOM     22  S   UNL     1       0.823  13.428  20.975  0.00  0.00    +0.000 S 
ATOM     23  O   UNL     1       1.020  14.064  22.262  0.00  0.00    +0.000 OA
ATOM     24  O   UNL     1       1.896  13.347  20.007  0.00  0.00    +0.000 OA
BRANCH  22  25
ATOM     25  N   UNL     1      -0.543  14.104  20.210  0.00  0.00    +0.000 N 
BRANCH  25  26
ATOM     26  C   UNL     1      -1.399  13.143  19.564  0.00  0.00    +0.000 A 
ATOM     27  C   UNL     1      -2.663  12.808  20.060  0.00  0.00    +0.000 A 
ATOM     28  C   UNL     1      -3.492  11.959  19.325  0.00  0.00    +0.000 A 
ATOM     29  C   UNL     1      -3.057  11.443  18.102  0.00  0.00    +0.000 A 
ATOM     30  C   UNL     1      -1.786  11.757  17.622  0.00  0.00    +0.000 A 
ATOM     31  C   UNL     1      -0.953  12.594  18.361  0.00  0.00    +0.000 A 
ENDBRANCH  25  26
BRANCH  25  32
ATOM     32  C   UNL     1      -1.248  15.243  20.883  0.00  0.00    +0.000 C 
BRANCH  32  33
ATOM     33  C   UNL     1      -1.608  16.358  19.909  0.00  0.00    +0.000 A 
ATOM     34  C   UNL     1      -0.723  16.748  18.891  0.00  0.00    +0.000 A 
ATOM     35  C   UNL     1      -0.964  17.890  18.128  0.00  0.00    +0.000 A 
ATOM     36  C   UNL     1      -2.124  18.629  18.333  0.00  0.00    +0.000 A 
ATOM     37  C   UNL     1      -3.061  18.201  19.272  0.00  0.00    +0.000 A 
ATOM     38  C   UNL     1      -2.810  17.067  20.050  0.00  0.00    +0.000 A 
ENDBRANCH  32  33
ENDBRANCH  25  32
ENDBRANCH  22  25
ENDBRANCH   5  22
TORSDOF 8
ENDMDL
MODEL 8
REMARK VINA RESULT:      -8.1      5.798     10.144
REMARK  Name = 
REMARK  8 active torsions:
REMARK  status: ('A' for Active; 'I' for Inactive)
REMARK    1  A    between atoms: C_2  and  C_4
REMARK    2  A    between atoms: C_7  and  N_8
REMARK    3  A    between atoms: C_9  and  C_11
REMARK    4  A    between atoms: C_15  and  S_16
REMARK    5  A    between atoms: S_16  and  N_19
REMARK    6  A    between atoms: N_19  and  C_20
REMARK    7  A    between atoms: N_19  and  C_27
REMARK    8  A    between atoms: C_20  and  C_21
REMARK                            x       y       z     vdW  Elec       q    Type
REMARK                         _______ _______ _______ _____ _____    ______ ____
ROOT
ATOM      1  C   UNL     1       1.700  10.268  19.069  0.00  0.00    +0.000 A 
ATOM      2  C   UNL     1       2.227  11.252  18.216  0.00  0.00    +0.000 A 
ATOM      3  C   UNL     1       1.911  12.597  18.393  0.00  0.00    +0.000 A 
ATOM      4  C   UNL     1       1.078  12.981  19.444  0.00  0.00    +0.000 A 
ATOM      5  C   UNL     1       0.614  12.024  20.348  0.00  0.00    +0.000 A 
ATOM      6  C   UNL     1       0.901  10.657  20.151  0.00  0.00    +0.000 A 
ENDROOT
BRANCH   1   8
ATOM      7  N   UNL     1       2.109   7.912  19.686  0.00  0.00    +0.000 N 
ATOM      8  C   UNL     1       1.948   8.850  18.676  0.00  0.00    +0.000 C 
ATOM      9  O   UNL     1       2.012   8.623  17.470  0.00  0.00    +0.000 OA
ATOM     10  H   UNL     1       2.124   8.237  20.642  0.00  0.00    +0.000 HD
BRANCH   7  14
ATOM     11  C   UNL     1       2.833   3.790  18.977  0.00  0.00    +0.000 A 
ATOM     12  C   UNL     1       2.040   4.174  20.055  0.00  0.00    +0.000 A 
ATOM     13  C   UNL     1       1.803   5.528  20.305  0.00  0.00    +0.000 A 
ATOM     14  C   UNL     1       2.349   6.526  19.490  0.00  0.00    +0.000 A 
ATOM     15  C   UNL     1       3.179   6.136  18.430  0.00  0.00    +0.000 A 
ATOM     16  C   UNL     1       3.423   4.775  18.178  0.00  0.00    +0.000 A 
BRANCH  11  18
ATOM     17  N   UNL     1       2.214   1.751  17.799  0.00  0.00    +0.000 N 
ATOM     18  C   UNL     1       3.075   2.354  18.676  0.00  0.00    +0.000 C 
ATOM     19  O   UNL     1       4.018   1.744  19.162  0.00  0.00    +0.000 OA
ATOM     20  H   UNL     1       2.425   0.799  17.531  0.00  0.00    +0.000 HD
ATOM     21  H   UNL     1       1.575   2.273  17.216  0.00  0.00    +0.000 HD
ENDBRANCH  11  18
ENDBRANCH   7  14
ENDBRANCH   1   8
BRANCH   5  22
ATOM     22  S   UNL     1      -0.429  12.456  21.742  0.00  0.00    +0.000 S 
ATOM     23  O   UNL     1      -0.222  11.381  22.690  0.00  0.00    +0.000 OA
ATOM     24  O   UNL     1      -0.097  13.824  22.076  0.00  0.00    +0.000 OA
BRANCH  22  25
ATOM     25  N   UNL     1      -2.039  12.416  21.178  0.00  0.00    +0.000 N 
BRANCH  25  26
ATOM     26  C   UNL     1      -3.025  12.748  22.173  0.00  0.00    +0.000 A 
ATOM     27  C   UNL     1      -3.088  12.106  23.414  0.00  0.00    +0.000 A 
ATOM     28  C   UNL     1      -3.992  12.554  24.379  0.00  0.00    +0.000 A 
ATOM     29  C   UNL     1      -4.831  13.636  24.105  0.00  0.00    +0.000 A 
ATOM     30  C   UNL     1      -4.784  14.258  22.857  0.00  0.00    +0.000 A 
ATOM     31  C   UNL     1      -3.892  13.804  21.888  0.00  0.00    +0.000 A 
ENDBRANCH  25  26
BRANCH  25  32
ATOM     32  C   UNL     1      -2.323  12.921  19.796  0.00  0.00    +0.000 C 
BRANCH  32  33
ATOM     33  C   UNL     1      -2.792  11.812  18.860  0.00  0.00    +0.000 A 
ATOM     34  C   UNL     1      -1.874  10.948  18.241  0.00  0.00    +0.000 A 
ATOM     35  C   UNL     1      -2.282  10.067  17.239  0.00  0.00    +0.000 A 
ATOM     36  C   UNL     1      -3.623   9.996  16.881  0.00  0.00    +0.000 A 
ATOM     37  C   UNL     1      -4.561  10.776  17.554  0.00  0.00    +0.000 A 
ATOM     38  C   UNL     1      -4.151  11.673  18.544  0.00  0.00    +0.000 A 
ENDBRANCH  32  33
ENDBRANCH  25  32
ENDBRANCH  22  25
ENDBRANCH   5  22
TORSDOF 8
ENDMDL
MODEL 9
REMARK VINA RESULT:      -8.1      5.849     10.248
REMARK  Name = 
REMARK  8 active torsions:
REMARK  status: ('A' for Active; 'I' for Inactive)
REMARK    1  A    between atoms: C_2  and  C_4
REMARK    2  A    between atoms: C_7  and  N_8
REMARK    3  A    between atoms: C_9  and  C_11
REMARK    4  A    between atoms: C_15  and  S_16
REMARK    5  A    between atoms: S_16  and  N_19
REMARK    6  A    between atoms: N_19  and  C_20
REMARK    7  A    between atoms: N_19  and  C_27
REMARK    8  A    between atoms: C_20  and  C_21
REMARK                            x       y       z     vdW  Elec       q    Type
REMARK                         _______ _______ _______ _____ _____    ______ ____
ROOT
ATOM      1  C   UNL     1       1.602  10.193  19.167  0.00  0.00    +0.000 A 
ATOM      2  C   UNL     1       2.179  11.162  18.329  0.00  0.00    +0.000 A 
ATOM      3  C   UNL     1       1.939  12.520  18.533  0.00  0.00    +0.000 A 
ATOM      4  C   UNL     1       1.133  12.929  19.595  0.00  0.00    +0.000 A 
ATOM      5  C   UNL     1       0.619  11.983  20.483  0.00  0.00    +0.000 A 
ATOM      6  C   UNL     1       0.829  10.606  20.260  0.00  0.00    +0.000 A 
ENDROOT
BRANCH   1   8
ATOM      7  N   UNL     1       2.134   7.844  19.712  0.00  0.00    +0.000 N 
ATOM      8  C   UNL     1       1.768   8.771  18.746  0.00  0.00    +0.000 C 
ATOM      9  O   UNL     1       1.586   8.532  17.555  0.00  0.00    +0.000 OA
ATOM     10  H   UNL     1       2.343   8.180  20.641  0.00  0.00    +0.000 HD
BRANCH   7  14
ATOM     11  C   UNL     1       2.740   3.679  19.160  0.00  0.00    +0.000 A 
ATOM     12  C   UNL     1       3.213   4.576  18.206  0.00  0.00    +0.000 A 
ATOM     13  C   UNL     1       3.010   5.949  18.371  0.00  0.00    +0.000 A 
ATOM     14  C   UNL     1       2.334   6.457  19.486  0.00  0.00    +0.000 A 
ATOM     15  C   UNL     1       1.825   5.548  20.423  0.00  0.00    +0.000 A 
ATOM     16  C   UNL     1       2.023   4.166  20.259  0.00  0.00    +0.000 A 
BRANCH  11  18
ATOM     17  N   UNL     1       1.902   1.460  18.614  0.00  0.00    +0.000 N 
ATOM     18  C   UNL     1       2.968   2.217  19.019  0.00  0.00    +0.000 C 
ATOM     19  O   UNL     1       4.065   1.714  19.224  0.00  0.00    +0.000 OA
ATOM     20  H   UNL     1       2.077   0.479  18.439  0.00  0.00    +0.000 HD
ATOM     21  H   UNL     1       1.063   1.864  18.224  0.00  0.00    +0.000 HD
ENDBRANCH  11  18
ENDBRANCH   7  14
ENDBRANCH   1   8
BRANCH   5  22
ATOM     22  S   UNL     1      -0.392  12.446  21.889  0.00  0.00    +0.000 S 
ATOM     23  O   UNL     1      -0.297  11.313  22.787  0.00  0.00    +0.000 OA
ATOM     24  O   UNL     1       0.064  13.760  22.291  0.00  0.00    +0.000 OA
BRANCH  22  25
ATOM     25  N   UNL     1      -1.993  12.584  21.316  0.00  0.00    +0.000 N 
BRANCH  25  26
ATOM     26  C   UNL     1      -2.941  13.035  22.301  0.00  0.00    +0.000 A 
ATOM     27  C   UNL     1      -3.688  14.207  22.146  0.00  0.00    +0.000 A 
ATOM     28  C   UNL     1      -4.674  14.527  23.080  0.00  0.00    +0.000 A 
ATOM     29  C   UNL     1      -4.911  13.682  24.167  0.00  0.00    +0.000 A 
ATOM     30  C   UNL     1      -4.146  12.527  24.334  0.00  0.00    +0.000 A 
ATOM     31  C   UNL     1      -3.152  12.213  23.409  0.00  0.00    +0.000 A 
ENDBRANCH  25  26
BRANCH  25  32
ATOM     32  C   UNL     1      -2.210  13.108  19.928  0.00  0.00    +0.000 C 
BRANCH  32  33
ATOM     33  C   UNL     1      -2.772  12.045  18.991  0.00  0.00    +0.000 A 
ATOM     34  C   UNL     1      -4.156  11.847  18.863  0.00  0.00    +0.000 A 
ATOM     35  C   UNL     1      -4.663  10.752  18.162  0.00  0.00    +0.000 A 
ATOM     36  C   UNL     1      -3.794   9.870  17.529  0.00  0.00    +0.000 A 
ATOM     37  C   UNL     1      -2.421  10.107  17.564  0.00  0.00    +0.000 A 
ATOM     38  C   UNL     1      -1.912  11.192  18.282  0.00  0.00    +0.000 A 
ENDBRANCH  32  33
ENDBRANCH  25  32
ENDBRANCH  22  25
ENDBRANCH   5  22
TORSDOF 8
ENDMDL
