MODEL 1
REMARK VINA RESULT:      -8.3      0.000      0.000
REMARK  Name = 
REMARK  4 active torsions:
REMARK  status: ('A' for Active; 'I' for Inactive)
REMARK    1  A    between atoms: C_2  and  C_14
REMARK    2  A    between atoms: N_3  and  C_4
REMARK    3  A    between atoms: C_12  and  O_13
REMARK    4  A    between atoms: C_18  and  C_19
REMARK                            x       y       z     vdW  Elec       q    Type
REMARK                         _______ _______ _______ _____ _____    ______ ____
ROOT
ATOM      1  O   UNL     1       4.044   3.288  16.716  0.00  0.00    +0.000 OA
ATOM      2  C   UNL     1       4.442   4.414  16.446  0.00  0.00    +0.000 C 
ATOM      3  N   UNL     1       3.934   5.554  17.033  0.00  0.00    +0.000 N 
ATOM      4  H   UNL     1       4.400   6.431  16.848  0.00  0.00    +0.000 HD
ENDROOT
BRANCH   3   5
ATOM      5  C   UNL     1       2.924   5.535  18.080  0.00  0.00    +0.000 C 
ATOM      6  C   UNL     1       2.363   6.886  18.440  0.00  0.00    +0.000 A 
ATOM      7  C   UNL     1       1.981   7.920  17.595  0.00  0.00    +0.000 A 
ATOM      8  C   UNL     1       1.473   9.093  18.161  0.00  0.00    +0.000 A 
ATOM      9  C   UNL     1       1.348   9.220  19.552  0.00  0.00    +0.000 A 
ATOM     10  C   UNL     1       1.699   8.164  20.394  0.00  0.00    +0.000 A 
ATOM     11  C   UNL     1       2.193   7.000  19.824  0.00  0.00    +0.000 A 
ATOM     12  C   UNL     1       2.536   5.724  20.532  0.00  0.00    +0.000 C 
ATOM     13  C   UNL     1       3.352   4.958  19.473  0.00  0.00    +0.000 C 
BRANCH  13  14
ATOM     14  O   UNL     1       4.742   5.078  19.788  0.00  0.00    +0.000 OA
ATOM     15  H   UNL     1       5.133   4.178  19.714  0.00  0.00    +0.000 HD
ENDBRANCH  13  14
ENDBRANCH   3   5
BRANCH   2  16
ATOM     16  C   UNL     1       5.490   4.640  15.460  0.00  0.00    +0.000 A 
ATOM     17  C   UNL     1       5.510   4.204  14.146  0.00  0.00    +0.000 A 
ATOM     18  N   UNL     1       6.738   4.529  13.657  0.00  0.00    +0.000 N 
ATOM     19  N   UNL     1       7.507   5.189  14.530  0.00  0.00    +0.000 NA
ATOM     20  C   UNL     1       6.757   5.286  15.644  0.00  0.00    +0.000 A 
ATOM     21  H   UNL     1       7.127   4.320  12.743  0.00  0.00    +0.000 HD
BRANCH  20  22
ATOM     22  C   UNL     1       7.276   5.981  16.824  0.00  0.00    +0.000 A 
ATOM     23  C   UNL     1       7.469   7.372  16.798  0.00  0.00    +0.000 A 
ATOM     24  C   UNL     1       7.963   8.046  17.920  0.00  0.00    +0.000 A 
ATOM     25  C   UNL     1       8.285   7.338  19.077  0.00  0.00    +0.000 A 
ATOM     26  C   UNL     1       8.088   5.961  19.121  0.00  0.00    +0.000 A 
ATOM     27  C   UNL     1       7.566   5.298  18.011  0.00  0.00    +0.000 A 
ATOM     28  F   UNL     1       7.306   3.987  18.132  0.00  0.00    +0.000 F 
ENDBRANCH  20  22
ENDBRANCH   2  16
TORSDOF 4
ENDMDL
MODEL 2
REMARK VINA RESULT:      -8.1      2.772      4.525
REMARK  Name = 
REMARK  4 active torsions:
REMARK  status: ('A' for Active; 'I' for Inactive)
REMARK    1  A    between atoms: C_2  and  C_14
REMARK    2  A    between atoms: N_3  and  C_4
REMARK    3  A    between atoms: C_12  and  O_13
REMARK    4  A    between atoms: C_18  and  C_19
REMARK                            x       y       z     vdW  Elec       q    Type
REMARK                         _______ _______ _______ _____ _____    ______ ____
ROOT
ATOM      1  O   UNL     1       2.947   8.387  17.334  0.00  0.00    +0.000 OA
ATOM      2  C   UNL     1       2.485   7.617  18.166  0.00  0.00    +0.000 C 
ATOM      3  N   UNL     1       1.868   8.041  19.324  0.00  0.00    +0.000 N 
ATOM      4  H   UNL     1       1.405   7.349  19.897  0.00  0.00    +0.000 HD
ENDROOT
BRANCH   3   5
ATOM      5  C   UNL     1       1.639   9.441  19.645  0.00  0.00    +0.000 C 
ATOM      6  C   UNL     1       0.826   9.680  20.890  0.00  0.00    +0.000 A 
ATOM      7  C   UNL     1       0.918   9.043  22.121  0.00  0.00    +0.000 A 
ATOM      8  C   UNL     1       0.056   9.441  23.147  0.00  0.00    +0.000 A 
ATOM      9  C   UNL     1      -0.880  10.465  22.937  0.00  0.00    +0.000 A 
ATOM     10  C   UNL     1      -0.943  11.126  21.709  0.00  0.00    +0.000 A 
ATOM     11  C   UNL     1      -0.077  10.731  20.701  0.00  0.00    +0.000 A 
ATOM     12  C   UNL     1       0.085  11.365  19.352  0.00  0.00    +0.000 C 
ATOM     13  C   UNL     1       0.887  10.305  18.574  0.00  0.00    +0.000 C 
BRANCH  13  14
ATOM     14  O   UNL     1      -0.008   9.585  17.722  0.00  0.00    +0.000 OA
ATOM     15  H   UNL     1      -0.128   8.692  18.118  0.00  0.00    +0.000 HD
ENDBRANCH  13  14
ENDBRANCH   3   5
BRANCH   2  16
ATOM     16  C   UNL     1       2.566   6.172  18.002  0.00  0.00    +0.000 A 
ATOM     17  C   UNL     1       1.513   5.287  17.844  0.00  0.00    +0.000 A 
ATOM     18  N   UNL     1       2.058   4.040  17.869  0.00  0.00    +0.000 N 
ATOM     19  N   UNL     1       3.390   4.038  17.978  0.00  0.00    +0.000 NA
ATOM     20  C   UNL     1       3.732   5.339  18.045  0.00  0.00    +0.000 A 
ATOM     21  H   UNL     1       1.582   3.145  17.831  0.00  0.00    +0.000 HD
BRANCH  20  22
ATOM     22  C   UNL     1       5.140   5.726  18.149  0.00  0.00    +0.000 A 
ATOM     23  C   UNL     1       5.895   5.355  19.274  0.00  0.00    +0.000 A 
ATOM     24  C   UNL     1       7.241   5.719  19.383  0.00  0.00    +0.000 A 
ATOM     25  C   UNL     1       7.847   6.471  18.377  0.00  0.00    +0.000 A 
ATOM     26  C   UNL     1       7.115   6.837  17.252  0.00  0.00    +0.000 A 
ATOM     27  C   UNL     1       5.782   6.445  17.133  0.00  0.00    +0.000 A 
ATOM     28  F   UNL     1       5.144   6.740  15.990  0.00  0.00    +0.000 F 
ENDBRANCH  20  22
ENDBRANCH   2  16
TORSDOF 4
ENDMDL
MODEL 3
REMARK VINA RESULT:      -8.0      1.369      2.061
REMARK  Name = 
REMARK  4 active torsions:
REMARK  status: ('A' for Active; 'I' for Inactive)
REMARK    1  A    between atoms: C_2  and  C_14
REMARK    2  A    between atoms: N_3  and  C_4
REMARK    3  A    between atoms: C_12  and  O_13
REMARK    4  A    between atoms: C_18  and  C_19
REMARK                            x       y       z     vdW  Elec       q    Type
REMARK                         _______ _______ _______ _____ _____    ______ ____
ROOT
ATOM      1  O   UNL     1       5.015   3.937  17.914  0.00  0.00    +0.000 OA
ATOM      2  C   UNL     1       4.643   4.029  16.751  0.00  0.00    +0.000 C 
ATOM      3  N   UNL     1       3.332   3.849  16.363  0.00  0.00    +0.000 N 
ATOM      4  H   UNL     1       3.087   4.064  15.407  0.00  0.00    +0.000 HD
ENDROOT
BRANCH   3   5
ATOM      5  C   UNL     1       2.246   3.600  17.297  0.00  0.00    +0.000 C 
ATOM      6  C   UNL     1       2.163   4.574  18.443  0.00  0.00    +0.000 A 
ATOM      7  C   UNL     1       2.303   5.956  18.420  0.00  0.00    +0.000 A 
ATOM      8  C   UNL     1       2.176   6.662  19.619  0.00  0.00    +0.000 A 
ATOM      9  C   UNL     1       1.908   5.989  20.820  0.00  0.00    +0.000 A 
ATOM     10  C   UNL     1       1.732   4.605  20.832  0.00  0.00    +0.000 A 
ATOM     11  C   UNL     1       1.850   3.913  19.636  0.00  0.00    +0.000 A 
ATOM     12  C   UNL     1       1.606   2.451  19.411  0.00  0.00    +0.000 C 
ATOM     13  C   UNL     1       2.234   2.212  18.025  0.00  0.00    +0.000 C 
BRANCH  13  14
ATOM     14  O   UNL     1       3.513   1.598  18.199  0.00  0.00    +0.000 OA
ATOM     15  H   UNL     1       3.577   0.872  17.537  0.00  0.00    +0.000 HD
ENDBRANCH  13  14
ENDBRANCH   3   5
BRANCH   2  16
ATOM     16  C   UNL     1       5.574   4.327  15.671  0.00  0.00    +0.000 A 
ATOM     17  C   UNL     1       5.561   3.806  14.388  0.00  0.00    +0.000 A 
ATOM     18  N   UNL     1       6.691   4.262  13.782  0.00  0.00    +0.000 N 
ATOM     19  N   UNL     1       7.419   5.081  14.548  0.00  0.00    +0.000 NA
ATOM     20  C   UNL     1       6.745   5.153  15.712  0.00  0.00    +0.000 A 
ATOM     21  H   UNL     1       7.039   4.044  12.854  0.00  0.00    +0.000 HD
BRANCH  20  22
ATOM     22  C   UNL     1       7.244   5.994  16.802  0.00  0.00    +0.000 A 
ATOM     23  C   UNL     1       7.178   7.393  16.702  0.00  0.00    +0.000 A 
ATOM     24  C   UNL     1       7.650   8.207  17.738  0.00  0.00    +0.000 A 
ATOM     25  C   UNL     1       8.207   7.634  18.880  0.00  0.00    +0.000 A 
ATOM     26  C   UNL     1       8.269   6.248  18.997  0.00  0.00    +0.000 A 
ATOM     27  C   UNL     1       7.769   5.441  17.976  0.00  0.00    +0.000 A 
ATOM     28  F   UNL     1       7.764   4.114  18.174  0.00  0.00    +0.000 F 
ENDBRANCH  20  22
ENDBRANCH   2  16
TORSDOF 4
ENDMDL
MODEL 4
REMARK VINA RESULT:      -7.9      3.480      5.881
REMARK  Name = 
REMARK  4 active torsions:
REMARK  status: ('A' for Active; 'I' for Inactive)
REMARK    1  A    between atoms: C_2  and  C_14
REMARK    2  A    between atoms: N_3  and  C_4
REMARK    3  A    between atoms: C_12  and  O_13
REMARK    4  A    between atoms: C_18  and  C_19
REMARK                            x       y       z     vdW  Elec       q    Type
REMARK                         _______ _______ _______ _____ _____    ______ ____
ROOT
ATOM      1  O   UNL     1       1.858   7.723  20.158  0.00  0.00    +0.000 OA
ATOM      2  C   UNL     1       2.204   7.999  19.016  0.00  0.00    +0.000 C 
ATOM      3  N   UNL     1       1.796   9.142  18.360  0.00  0.00    +0.000 N 
ATOM      4  H   UNL     1       2.223   9.357  17.470  0.00  0.00    +0.000 HD
ENDROOT
BRANCH   3   5
ATOM      5  C   UNL     1       0.972  10.170  18.977  0.00  0.00    +0.000 C 
ATOM      6  C   UNL     1      -0.381  10.361  18.343  0.00  0.00    +0.000 A 
ATOM      7  C   UNL     1      -1.280   9.395  17.910  0.00  0.00    +0.000 A 
ATOM      8  C   UNL     1      -2.493   9.811  17.354  0.00  0.00    +0.000 A 
ATOM      9  C   UNL     1      -2.796  11.176  17.238  0.00  0.00    +0.000 A 
ATOM     10  C   UNL     1      -1.903  12.142  17.707  0.00  0.00    +0.000 A 
ATOM     11  C   UNL     1      -0.707  11.719  18.268  0.00  0.00    +0.000 A 
ATOM     12  C   UNL     1       0.339  12.577  18.913  0.00  0.00    +0.000 C 
ATOM     13  C   UNL     1       1.549  11.627  19.002  0.00  0.00    +0.000 C 
BRANCH  13  14
ATOM     14  O   UNL     1       2.462  11.945  17.948  0.00  0.00    +0.000 OA
ATOM     15  H   UNL     1       2.430  11.201  17.305  0.00  0.00    +0.000 HD
ENDBRANCH  13  14
ENDBRANCH   3   5
BRANCH   2  16
ATOM     16  C   UNL     1       3.075   7.122  18.246  0.00  0.00    +0.000 A 
ATOM     17  C   UNL     1       3.970   7.490  17.256  0.00  0.00    +0.000 A 
ATOM     18  N   UNL     1       4.452   6.331  16.730  0.00  0.00    +0.000 N 
ATOM     19  N   UNL     1       3.983   5.232  17.330  0.00  0.00    +0.000 NA
ATOM     20  C   UNL     1       3.144   5.690  18.279  0.00  0.00    +0.000 A 
ATOM     21  H   UNL     1       5.092   6.211  15.952  0.00  0.00    +0.000 HD
BRANCH  20  22
ATOM     22  C   UNL     1       2.451   4.752  19.166  0.00  0.00    +0.000 A 
ATOM     23  C   UNL     1       2.821   4.652  20.517  0.00  0.00    +0.000 A 
ATOM     24  C   UNL     1       2.165   3.761  21.373  0.00  0.00    +0.000 A 
ATOM     25  C   UNL     1       1.142   2.948  20.887  0.00  0.00    +0.000 A 
ATOM     26  C   UNL     1       0.758   3.044  19.553  0.00  0.00    +0.000 A 
ATOM     27  C   UNL     1       1.393   3.956  18.711  0.00  0.00    +0.000 A 
ATOM     28  F   UNL     1       0.927   4.080  17.459  0.00  0.00    +0.000 F 
ENDBRANCH  20  22
ENDBRANCH   2  16
TORSDOF 4
ENDMDL
MODEL 5
REMARK VINA RESULT:      -7.8      2.578      4.330
REMARK  Name = 
REMARK  4 active torsions:
REMARK  status: ('A' for Active; 'I' for Inactive)
REMARK    1  A    between atoms: C_2  and  C_14
REMARK    2  A    between atoms: N_3  and  C_4
REMARK    3  A    between atoms: C_12  and  O_13
REMARK    4  A    between atoms: C_18  and  C_19
REMARK                            x       y       z     vdW  Elec       q    Type
REMARK                         _______ _______ _______ _____ _____    ______ ____
ROOT
ATOM      1  O   UNL     1       3.773   7.265  17.752  0.00  0.00    +0.000 OA
ATOM      2  C   UNL     1       2.816   6.699  18.265  0.00  0.00    +0.000 C 
ATOM      3  N   UNL     1       1.909   7.344  19.080  0.00  0.00    +0.000 N 
ATOM      4  H   UNL     1       1.081   6.838  19.361  0.00  0.00    +0.000 HD
ENDROOT
BRANCH   3   5
ATOM      5  C   UNL     1       1.953   8.771  19.358  0.00  0.00    +0.000 C 
ATOM      6  C   UNL     1       1.117   9.212  20.531  0.00  0.00    +0.000 A 
ATOM      7  C   UNL     1       0.981   8.610  21.775  0.00  0.00    +0.000 A 
ATOM      8  C   UNL     1       0.146   9.210  22.721  0.00  0.00    +0.000 A 
ATOM      9  C   UNL     1      -0.537  10.398  22.421  0.00  0.00    +0.000 A 
ATOM     10  C   UNL     1      -0.369  11.018  21.182  0.00  0.00    +0.000 A 
ATOM     11  C   UNL     1       0.470  10.421  20.253  0.00  0.00    +0.000 A 
ATOM     12  C   UNL     1       0.862  10.964  18.911  0.00  0.00    +0.000 C 
ATOM     13  C   UNL     1       1.481   9.736  18.217  0.00  0.00    +0.000 C 
BRANCH  13  14
ATOM     14  O   UNL     1       0.522   9.190  17.307  0.00  0.00    +0.000 OA
ATOM     15  H   UNL     1      -0.123   8.674  17.843  0.00  0.00    +0.000 HD
ENDBRANCH  13  14
ENDBRANCH   3   5
BRANCH   2  16
ATOM     16  C   UNL     1       2.565   5.279  18.062  0.00  0.00    +0.000 A 
ATOM     17  C   UNL     1       1.390   4.592  18.314  0.00  0.00    +0.000 A 
ATOM     18  N   UNL     1       1.668   3.276  18.108  0.00  0.00    +0.000 N 
ATOM     19  N   UNL     1       2.919   3.049  17.691  0.00  0.00    +0.000 NA
ATOM     20  C   UNL     1       3.489   4.268  17.637  0.00  0.00    +0.000 A 
ATOM     21  H   UNL     1       1.060   2.475  18.246  0.00  0.00    +0.000 HD
BRANCH  20  22
ATOM     22  C   UNL     1       4.876   4.413  17.191  0.00  0.00    +0.000 A 
ATOM     23  C   UNL     1       5.182   4.412  15.821  0.00  0.00    +0.000 A 
ATOM     24  C   UNL     1       6.504   4.551  15.384  0.00  0.00    +0.000 A 
ATOM     25  C   UNL     1       7.538   4.679  16.309  0.00  0.00    +0.000 A 
ATOM     26  C   UNL     1       7.249   4.693  17.671  0.00  0.00    +0.000 A 
ATOM     27  C   UNL     1       5.927   4.585  18.101  0.00  0.00    +0.000 A 
ATOM     28  F   UNL     1       5.687   4.697  19.417  0.00  0.00    +0.000 F 
ENDBRANCH  20  22
ENDBRANCH   2  16
TORSDOF 4
ENDMDL
MODEL 6
REMARK VINA RESULT:      -7.6      3.298      5.365
REMARK  Name = 
REMARK  4 active torsions:
REMARK  status: ('A' for Active; 'I' for Inactive)
REMARK    1  A    between atoms: C_2  and  C_14
REMARK    2  A    between atoms: N_3  and  C_4
REMARK    3  A    between atoms: C_12  and  O_13
REMARK    4  A    between atoms: C_18  and  C_19
REMARK                            x       y       z     vdW  Elec       q    Type
REMARK                         _______ _______ _______ _____ _____    ______ ____
ROOT
ATOM      1  O   UNL     1       1.308   8.038  17.366  0.00  0.00    +0.000 OA
ATOM      2  C   UNL     1       2.136   7.794  18.234  0.00  0.00    +0.000 C 
ATOM      3  N   UNL     1       2.062   8.307  19.512  0.00  0.00    +0.000 N 
ATOM      4  H   UNL     1       2.713   7.959  20.202  0.00  0.00    +0.000 HD
ENDROOT
BRANCH   3   5
ATOM      5  C   UNL     1       0.960   9.132  19.982  0.00  0.00    +0.000 C 
ATOM      6  C   UNL     1       1.132  10.610  19.746  0.00  0.00    +0.000 A 
ATOM      7  C   UNL     1       1.603  11.258  18.612  0.00  0.00    +0.000 A 
ATOM      8  C   UNL     1       1.668  12.654  18.617  0.00  0.00    +0.000 A 
ATOM      9  C   UNL     1       1.261  13.384  19.744  0.00  0.00    +0.000 A 
ATOM     10  C   UNL     1       0.754  12.729  20.868  0.00  0.00    +0.000 A 
ATOM     11  C   UNL     1       0.684  11.344  20.849  0.00  0.00    +0.000 A 
ATOM     12  C   UNL     1       0.090  10.457  21.902  0.00  0.00    +0.000 C 
ATOM     13  C   UNL     1       0.621   9.065  21.511  0.00  0.00    +0.000 C 
BRANCH  13  14
ATOM     14  O   UNL     1       1.716   8.733  22.370  0.00  0.00    +0.000 OA
ATOM     15  H   UNL     1       2.071   7.868  22.063  0.00  0.00    +0.000 HD
ENDBRANCH  13  14
ENDBRANCH   3   5
BRANCH   2  16
ATOM     16  C   UNL     1       3.289   6.941  17.975  0.00  0.00    +0.000 A 
ATOM     17  C   UNL     1       4.415   7.258  17.235  0.00  0.00    +0.000 A 
ATOM     18  N   UNL     1       5.149   6.115  17.153  0.00  0.00    +0.000 N 
ATOM     19  N   UNL     1       4.619   5.086  17.824  0.00  0.00    +0.000 NA
ATOM     20  C   UNL     1       3.481   5.571  18.355  0.00  0.00    +0.000 A 
ATOM     21  H   UNL     1       6.013   5.957  16.646  0.00  0.00    +0.000 HD
BRANCH  20  22
ATOM     22  C   UNL     1       2.633   4.717  19.189  0.00  0.00    +0.000 A 
ATOM     23  C   UNL     1       2.895   4.586  20.562  0.00  0.00    +0.000 A 
ATOM     24  C   UNL     1       2.091   3.773  21.369  0.00  0.00    +0.000 A 
ATOM     25  C   UNL     1       1.025   3.069  20.811  0.00  0.00    +0.000 A 
ATOM     26  C   UNL     1       0.747   3.198  19.454  0.00  0.00    +0.000 A 
ATOM     27  C   UNL     1       1.532   4.033  18.660  0.00  0.00    +0.000 A 
ATOM     28  F   UNL     1       1.169   4.199  17.379  0.00  0.00    +0.000 F 
ENDBRANCH  20  22
ENDBRANCH   2  16
TORSDOF 4
ENDMDL
MODEL 7
REMARK VINA RESULT:      -7.5      0.931      1.343
REMARK  Name = 
REMARK  4 active torsions:
REMARK  status: ('A' for Active; 'I' for Inactive)
REMARK    1  A    between atoms: C_2  and  C_14
REMARK    2  A    between atoms: N_3  and  C_4
REMARK    3  A    between atoms: C_12  and  O_13
REMARK    4  A    between atoms: C_18  and  C_19
REMARK                            x       y       z     vdW  Elec       q    Type
REMARK                         _______ _______ _______ _____ _____    ______ ____
ROOT
ATOM      1  O   UNL     1       3.890   3.277  16.710  0.00  0.00    +0.000 OA
ATOM      2  C   UNL     1       4.341   4.398  16.506  0.00  0.00    +0.000 C 
ATOM      3  N   UNL     1       3.849   5.531  17.119  0.00  0.00    +0.000 N 
ATOM      4  H   UNL     1       4.356   6.396  16.993  0.00  0.00    +0.000 HD
ENDROOT
BRANCH   3   5
ATOM      5  C   UNL     1       2.794   5.508  18.119  0.00  0.00    +0.000 C 
ATOM      6  C   UNL     1       2.290   6.865  18.537  0.00  0.00    +0.000 A 
ATOM      7  C   UNL     1       2.003   7.967  17.741  0.00  0.00    +0.000 A 
ATOM      8  C   UNL     1       1.534   9.131  18.355  0.00  0.00    +0.000 A 
ATOM      9  C   UNL     1       1.352   9.184  19.745  0.00  0.00    +0.000 A 
ATOM     10  C   UNL     1       1.608   8.062  20.535  0.00  0.00    +0.000 A 
ATOM     11  C   UNL     1       2.063   6.907  19.917  0.00  0.00    +0.000 A 
ATOM     12  C   UNL     1       2.305   5.574  20.560  0.00  0.00    +0.000 C 
ATOM     13  C   UNL     1       3.125   4.827  19.491  0.00  0.00    +0.000 C 
BRANCH  13  14
ATOM     14  O   UNL     1       4.504   4.850  19.872  0.00  0.00    +0.000 OA
ATOM     15  H   UNL     1       4.961   4.159  19.339  0.00  0.00    +0.000 HD
ENDBRANCH  13  14
ENDBRANCH   3   5
BRANCH   2  16
ATOM     16  C   UNL     1       5.440   4.623  15.577  0.00  0.00    +0.000 A 
ATOM     17  C   UNL     1       5.459   4.346  14.221  0.00  0.00    +0.000 A 
ATOM     18  N   UNL     1       6.731   4.591  13.801  0.00  0.00    +0.000 N 
ATOM     19  N   UNL     1       7.534   5.056  14.764  0.00  0.00    +0.000 NA
ATOM     20  C   UNL     1       6.761   5.102  15.865  0.00  0.00    +0.000 A 
ATOM     21  H   UNL     1       7.126   4.451  12.877  0.00  0.00    +0.000 HD
BRANCH  20  22
ATOM     22  C   UNL     1       7.309   5.592  17.131  0.00  0.00    +0.000 A 
ATOM     23  C   UNL     1       7.686   4.687  18.137  0.00  0.00    +0.000 A 
ATOM     24  C   UNL     1       8.212   5.144  19.349  0.00  0.00    +0.000 A 
ATOM     25  C   UNL     1       8.355   6.512  19.580  0.00  0.00    +0.000 A 
ATOM     26  C   UNL     1       7.996   7.421  18.588  0.00  0.00    +0.000 A 
ATOM     27  C   UNL     1       7.502   6.959  17.369  0.00  0.00    +0.000 A 
ATOM     28  F   UNL     1       7.258   7.865  16.410  0.00  0.00    +0.000 F 
ENDBRANCH  20  22
ENDBRANCH   2  16
TORSDOF 4
ENDMDL
MODEL 8
REMARK VINA RESULT:      -7.4      2.731      4.676
REMARK  Name = 
REMARK  4 active torsions:
REMARK  status: ('A' for Active; 'I' for Inactive)
REMARK    1  A    between atoms: C_2  and  C_14
REMARK    2  A    between atoms: N_3  and  C_4
REMARK    3  A    between atoms: C_12  and  O_13
REMARK    4  A    between atoms: C_18  and  C_19
REMARK                            x       y       z     vdW  Elec       q    Type
REMARK                         _______ _______ _______ _____ _____    ______ ____
ROOT
ATOM      1  O   UNL     1       3.283   7.384  18.124  0.00  0.00    +0.000 OA
ATOM      2  C   UNL     1       2.608   6.816  18.973  0.00  0.00    +0.000 C 
ATOM      3  N   UNL     1       1.884   7.488  19.934  0.00  0.00    +0.000 N 
ATOM      4  H   UNL     1       1.256   6.952  20.517  0.00  0.00    +0.000 HD
ENDROOT
BRANCH   3   5
ATOM      5  C   UNL     1       1.789   8.939  19.999  0.00  0.00    +0.000 C 
ATOM      6  C   UNL     1       0.873   9.465  21.073  0.00  0.00    +0.000 A 
ATOM      7  C   UNL     1       0.747   9.040  22.390  0.00  0.00    +0.000 A 
ATOM      8  C   UNL     1      -0.173   9.690  23.217  0.00  0.00    +0.000 A 
ATOM      9  C   UNL     1      -0.949  10.752  22.728  0.00  0.00    +0.000 A 
ATOM     10  C   UNL     1      -0.791  11.198  21.414  0.00  0.00    +0.000 A 
ATOM     11  C   UNL     1       0.131  10.553  20.604  0.00  0.00    +0.000 A 
ATOM     12  C   UNL     1       0.522  10.930  19.206  0.00  0.00    +0.000 C 
ATOM     13  C   UNL     1       1.274   9.678  18.716  0.00  0.00    +0.000 C 
BRANCH  13  14
ATOM     14  O   UNL     1       0.402   8.917  17.876  0.00  0.00    +0.000 OA
ATOM     15  H   UNL     1       0.862   8.801  17.013  0.00  0.00    +0.000 HD
ENDBRANCH  13  14
ENDBRANCH   3   5
BRANCH   2  16
ATOM     16  C   UNL     1       2.528   5.363  19.041  0.00  0.00    +0.000 A 
ATOM     17  C   UNL     1       1.435   4.602  19.419  0.00  0.00    +0.000 A 
ATOM     18  N   UNL     1       1.868   3.312  19.464  0.00  0.00    +0.000 N 
ATOM     19  N   UNL     1       3.145   3.160  19.097  0.00  0.00    +0.000 NA
ATOM     20  C   UNL     1       3.572   4.406  18.815  0.00  0.00    +0.000 A 
ATOM     21  H   UNL     1       1.354   2.486  19.751  0.00  0.00    +0.000 HD
BRANCH  20  22
ATOM     22  C   UNL     1       4.942   4.627  18.349  0.00  0.00    +0.000 A 
ATOM     23  C   UNL     1       5.919   5.117  19.231  0.00  0.00    +0.000 A 
ATOM     24  C   UNL     1       7.231   5.331  18.797  0.00  0.00    +0.000 A 
ATOM     25  C   UNL     1       7.582   5.074  17.472  0.00  0.00    +0.000 A 
ATOM     26  C   UNL     1       6.627   4.578  16.589  0.00  0.00    +0.000 A 
ATOM     27  C   UNL     1       5.328   4.337  17.034  0.00  0.00    +0.000 A 
ATOM     28  F   UNL     1       4.467   3.771  16.174  0.00  0.00    +0.000 F 
ENDBRANCH  20  22
ENDBRANCH   2  16
TORSDOF 4
ENDMDL
MODEL 9
REMARK VINA RESULT:      -7.4      3.258      5.730
REMARK  Name = 
REMARK  4 active torsions:
REMARK  status: ('A' for Active; 'I' for Inactive)
REMARK    1  A    between atoms: C_2  and  C_14
REMARK    2  A    between atoms: N_3  and  C_4
REMARK    3  A    between atoms: C_12  and  O_13
REMARK    4  A    between atoms: C_18  and  C_19
REMARK                            x       y       z     vdW  Elec       q    Type
REMARK                         _______ _______ _______ _____ _____    ______ ____
ROOT
ATOM      1  O   UNL     1       1.906   7.600  19.941  0.00  0.00    +0.000 OA
ATOM      2  C   UNL     1       2.287   7.949  18.830  0.00  0.00    +0.000 C 
ATOM      3  N   UNL     1       1.898   9.131  18.238  0.00  0.00    +0.000 N 
ATOM      4  H   UNL     1       2.352   9.403  17.377  0.00  0.00    +0.000 HD
ENDROOT
BRANCH   3   5
ATOM      5  C   UNL     1       1.054  10.118  18.893  0.00  0.00    +0.000 C 
ATOM      6  C   UNL     1      -0.296  10.320  18.255  0.00  0.00    +0.000 A 
ATOM      7  C   UNL     1      -1.178   9.363  17.770  0.00  0.00    +0.000 A 
ATOM      8  C   UNL     1      -2.391   9.788  17.221  0.00  0.00    +0.000 A 
ATOM      9  C   UNL     1      -2.712  11.153  17.166  0.00  0.00    +0.000 A 
ATOM     10  C   UNL     1      -1.837  12.107  17.688  0.00  0.00    +0.000 A 
ATOM     11  C   UNL     1      -0.640  11.676  18.240  0.00  0.00    +0.000 A 
ATOM     12  C   UNL     1       0.388  12.517  18.935  0.00  0.00    +0.000 C 
ATOM     13  C   UNL     1       1.610  11.580  18.991  0.00  0.00    +0.000 C 
BRANCH  13  14
ATOM     14  O   UNL     1       2.528  11.959  17.962  0.00  0.00    +0.000 OA
ATOM     15  H   UNL     1       2.074  12.631  17.404  0.00  0.00    +0.000 HD
ENDBRANCH  13  14
ENDBRANCH   3   5
BRANCH   2  16
ATOM     16  C   UNL     1       3.182   7.122  18.033  0.00  0.00    +0.000 A 
ATOM     17  C   UNL     1       4.160   7.554  17.154  0.00  0.00    +0.000 A 
ATOM     18  N   UNL     1       4.640   6.438  16.541  0.00  0.00    +0.000 N 
ATOM     19  N   UNL     1       4.092   5.303  16.985  0.00  0.00    +0.000 NA
ATOM     20  C   UNL     1       3.201   5.692  17.917  0.00  0.00    +0.000 A 
ATOM     21  H   UNL     1       5.331   6.375  15.800  0.00  0.00    +0.000 HD
BRANCH  20  22
ATOM     22  C   UNL     1       2.414   4.697  18.647  0.00  0.00    +0.000 A 
ATOM     23  C   UNL     1       1.439   3.938  17.980  0.00  0.00    +0.000 A 
ATOM     24  C   UNL     1       0.682   2.983  18.667  0.00  0.00    +0.000 A 
ATOM     25  C   UNL     1       0.879   2.784  20.033  0.00  0.00    +0.000 A 
ATOM     26  C   UNL     1       1.850   3.520  20.705  0.00  0.00    +0.000 A 
ATOM     27  C   UNL     1       2.623   4.449  20.010  0.00  0.00    +0.000 A 
ATOM     28  F   UNL     1       3.609   5.067  20.678  0.00  0.00    +0.000 F 
ENDBRANCH  20  22
ENDBRANCH   2  16
TORSDOF 4
ENDMDL
