MODEL 1
REMARK VINA RESULT:      -8.7      0.000      0.000
REMARK  Name = 
REMARK  5 active torsions:
REMARK  status: ('A' for Active; 'I' for Inactive)
REMARK    1  A    between atoms: N_3  and  C_4
REMARK    2  A    between atoms: C_4  and  C_5
REMARK    3  A    between atoms: C_5  and  C_6
REMARK    4  A    between atoms: N_16  and  C_17
REMARK    5  A    between atoms: C_20  and  C_21
REMARK                            x       y       z     vdW  Elec       q    Type
REMARK                         _______ _______ _______ _____ _____    ______ ____
ROOT
ATOM      1  O   UNL     1       6.672   8.313  16.886  0.00  0.00    +0.000 OA
ATOM      2  C   UNL     1       7.389   7.405  17.288  0.00  0.00    +0.000 C 
ATOM      3  N   UNL     1       8.194   7.517  18.396  0.00  0.00    +0.000 N 
ATOM      4  N   UNL     1       7.451   6.174  16.684  0.00  0.00    +0.000 N 
ATOM      5  H   UNL     1       8.985   6.890  18.453  0.00  0.00    +0.000 HD
ATOM      6  H   UNL     1       8.082   5.477  17.059  0.00  0.00    +0.000 HD
ENDROOT
BRANCH   4   7
ATOM      7  C   UNL     1       6.645   5.851  15.506  0.00  0.00    +0.000 C 
ATOM      8  C   UNL     1       6.900   4.440  14.987  0.00  0.00    +0.000 C 
ATOM      9  C   UNL     1       5.871   3.537  15.681  0.00  0.00    +0.000 C 
ATOM     10  C   UNL     1       4.798   4.452  16.315  0.00  0.00    +0.000 C 
ATOM     11  C   UNL     1       5.125   5.837  15.740  0.00  0.00    +0.000 C 
BRANCH  10  12
ATOM     12  C   UNL     1       4.726   4.541  17.851  0.00  0.00    +0.000 C 
ATOM     13  O   UNL     1       5.752   4.427  18.525  0.00  0.00    +0.000 OA
ATOM     14  N   UNL     1       3.490   4.880  18.434  0.00  0.00    +0.000 N 
ATOM     15  C   UNL     1       3.462   5.329  19.830  0.00  0.00    +0.000 C 
ATOM     16  C   UNL     1       2.697   4.352  20.720  0.00  0.00    +0.000 C 
ATOM     17  C   UNL     1       1.289   4.109  20.181  0.00  0.00    +0.000 C 
ATOM     18  C   UNL     1       1.343   3.674  18.718  0.00  0.00    +0.000 C 
ATOM     19  C   UNL     1       2.158   4.652  17.854  0.00  0.00    +0.000 C 
ENDBRANCH  10  12
ENDBRANCH   4   7
BRANCH   3  20
ATOM     20  C   UNL     1       8.304   8.799  19.092  0.00  0.00    +0.000 C 
BRANCH  20  21
ATOM     21  C   UNL     1       9.214   9.801  18.360  0.00  0.00    +0.000 C 
BRANCH  21  22
ATOM     22  C   UNL     1       9.720  10.936  19.237  0.00  0.00    +0.000 A 
ATOM     23  C   UNL     1       9.273  10.987  20.557  0.00  0.00    +0.000 A 
ATOM     24  C   UNL     1       9.671  12.035  21.363  0.00  0.00    +0.000 A 
ATOM     25  N   UNL     1      10.488  13.025  20.947  0.00  0.00    +0.000 NA
ATOM     26  C   UNL     1      10.940  12.989  19.681  0.00  0.00    +0.000 A 
ATOM     27  C   UNL     1      11.771  14.005  19.272  0.00  0.00    +0.000 A 
ATOM     28  C   UNL     1      12.312  14.052  17.983  0.00  0.00    +0.000 A 
ATOM     29  C   UNL     1      11.987  13.048  17.075  0.00  0.00    +0.000 A 
ATOM     30  C   UNL     1      11.129  12.015  17.466  0.00  0.00    +0.000 A 
ATOM     31  C   UNL     1      10.587  11.959  18.767  0.00  0.00    +0.000 A 
ENDBRANCH  21  22
ENDBRANCH  20  21
ENDBRANCH   3  20
TORSDOF 5
ENDMDL
MODEL 2
REMARK VINA RESULT:      -8.4      1.459      1.671
REMARK  Name = 
REMARK  5 active torsions:
REMARK  status: ('A' for Active; 'I' for Inactive)
REMARK    1  A    between atoms: N_3  and  C_4
REMARK    2  A    between atoms: C_4  and  C_5
REMARK    3  A    between atoms: C_5  and  C_6
REMARK    4  A    between atoms: N_16  and  C_17
REMARK    5  A    between atoms: C_20  and  C_21
REMARK                            x       y       z     vdW  Elec       q    Type
REMARK                         _______ _______ _______ _____ _____    ______ ____
ROOT
ATOM      1  O   UNL     1       7.145   8.514  16.880  0.00  0.00    +0.000 OA
ATOM      2  C   UNL     1       7.618   7.553  17.475  0.00  0.00    +0.000 C 
ATOM      3  N   UNL     1       8.326   7.669  18.648  0.00  0.00    +0.000 N 
ATOM      4  N   UNL     1       7.477   6.259  17.043  0.00  0.00    +0.000 N 
ATOM      5  H   UNL     1       8.961   6.916  18.876  0.00  0.00    +0.000 HD
ATOM      6  H   UNL     1       7.913   5.515  17.574  0.00  0.00    +0.000 HD
ENDROOT
BRANCH   4   7
ATOM      7  C   UNL     1       6.731   5.927  15.827  0.00  0.00    +0.000 C 
ATOM      8  C   UNL     1       6.937   4.483  15.385  0.00  0.00    +0.000 C 
ATOM      9  C   UNL     1       5.816   3.670  16.045  0.00  0.00    +0.000 C 
ATOM     10  C   UNL     1       4.759   4.669  16.568  0.00  0.00    +0.000 C 
ATOM     11  C   UNL     1       5.201   6.007  15.960  0.00  0.00    +0.000 C 
BRANCH  10  12
ATOM     12  C   UNL     1       4.594   4.831  18.092  0.00  0.00    +0.000 C 
ATOM     13  O   UNL     1       5.588   4.875  18.819  0.00  0.00    +0.000 OA
ATOM     14  N   UNL     1       3.297   5.051  18.594  0.00  0.00    +0.000 N 
ATOM     15  C   UNL     1       3.142   5.567  19.959  0.00  0.00    +0.000 C 
ATOM     16  C   UNL     1       2.448   4.554  20.868  0.00  0.00    +0.000 C 
ATOM     17  C   UNL     1       1.109   4.117  20.277  0.00  0.00    +0.000 C 
ATOM     18  C   UNL     1       1.292   3.615  18.847  0.00  0.00    +0.000 C 
ATOM     19  C   UNL     1       2.034   4.636  17.967  0.00  0.00    +0.000 C 
ENDBRANCH  10  12
ENDBRANCH   4   7
BRANCH   3  20
ATOM     20  C   UNL     1       8.637   8.994  19.185  0.00  0.00    +0.000 C 
BRANCH  20  21
ATOM     21  C   UNL     1       9.210   9.950  18.125  0.00  0.00    +0.000 C 
BRANCH  21  22
ATOM     22  C   UNL     1       9.692  11.280  18.684  0.00  0.00    +0.000 A 
ATOM     23  C   UNL     1      10.811  11.269  19.516  0.00  0.00    +0.000 A 
ATOM     24  C   UNL     1      11.240  12.452  20.084  0.00  0.00    +0.000 A 
ATOM     25  N   UNL     1      10.637  13.641  19.871  0.00  0.00    +0.000 NA
ATOM     26  C   UNL     1       9.563  13.675  19.064  0.00  0.00    +0.000 A 
ATOM     27  C   UNL     1       8.959  14.894  18.858  0.00  0.00    +0.000 A 
ATOM     28  C   UNL     1       7.849  15.044  18.021  0.00  0.00    +0.000 A 
ATOM     29  C   UNL     1       7.322  13.922  17.387  0.00  0.00    +0.000 A 
ATOM     30  C   UNL     1       7.911  12.671  17.597  0.00  0.00    +0.000 A 
ATOM     31  C   UNL     1       9.036  12.515  18.434  0.00  0.00    +0.000 A 
ENDBRANCH  21  22
ENDBRANCH  20  21
ENDBRANCH   3  20
TORSDOF 5
ENDMDL
MODEL 3
REMARK VINA RESULT:      -8.3      4.629      8.068
REMARK  Name = 
REMARK  5 active torsions:
REMARK  status: ('A' for Active; 'I' for Inactive)
REMARK    1  A    between atoms: N_3  and  C_4
REMARK    2  A    between atoms: C_4  and  C_5
REMARK    3  A    between atoms: C_5  and  C_6
REMARK    4  A    between atoms: N_16  and  C_17
REMARK    5  A    between atoms: C_20  and  C_21
REMARK                            x       y       z     vdW  Elec       q    Type
REMARK                         _______ _______ _______ _____ _____    ______ ____
ROOT
ATOM      1  O   UNL     1       2.614   6.822  19.905  0.00  0.00    +0.000 OA
ATOM      2  C   UNL     1       2.205   6.583  18.775  0.00  0.00    +0.000 C 
ATOM      3  N   UNL     1       1.931   7.564  17.852  0.00  0.00    +0.000 N 
ATOM      4  N   UNL     1       1.993   5.311  18.307  0.00  0.00    +0.000 N 
ATOM      5  H   UNL     1       1.288   7.326  17.108  0.00  0.00    +0.000 HD
ATOM      6  H   UNL     1       1.633   5.189  17.368  0.00  0.00    +0.000 HD
ENDROOT
BRANCH   4   7
ATOM      7  C   UNL     1       2.254   4.130  19.132  0.00  0.00    +0.000 C 
ATOM      8  C   UNL     1       1.870   2.829  18.437  0.00  0.00    +0.000 C 
ATOM      9  C   UNL     1       3.132   2.344  17.712  0.00  0.00    +0.000 C 
ATOM     10  C   UNL     1       4.330   3.148  18.267  0.00  0.00    +0.000 C 
ATOM     11  C   UNL     1       3.734   3.888  19.472  0.00  0.00    +0.000 C 
BRANCH  10  12
ATOM     12  C   UNL     1       5.025   4.162  17.338  0.00  0.00    +0.000 C 
ATOM     13  O   UNL     1       4.970   4.018  16.115  0.00  0.00    +0.000 OA
ATOM     14  N   UNL     1       5.602   5.304  17.924  0.00  0.00    +0.000 N 
ATOM     15  C   UNL     1       5.939   6.449  17.070  0.00  0.00    +0.000 C 
ATOM     16  C   UNL     1       7.446   6.698  17.033  0.00  0.00    +0.000 C 
ATOM     17  C   UNL     1       8.006   6.867  18.444  0.00  0.00    +0.000 C 
ATOM     18  C   UNL     1       7.615   5.681  19.322  0.00  0.00    +0.000 C 
ATOM     19  C   UNL     1       6.099   5.423  19.303  0.00  0.00    +0.000 C 
ENDBRANCH  10  12
ENDBRANCH   4   7
BRANCH   3  20
ATOM     20  C   UNL     1       2.021   8.973  18.234  0.00  0.00    +0.000 C 
BRANCH  20  21
ATOM     21  C   UNL     1       0.704   9.738  18.015  0.00  0.00    +0.000 C 
BRANCH  21  22
ATOM     22  C   UNL     1       0.398  10.767  19.092  0.00  0.00    +0.000 A 
ATOM     23  C   UNL     1       0.517  12.116  18.756  0.00  0.00    +0.000 A 
ATOM     24  C   UNL     1       0.299  13.074  19.726  0.00  0.00    +0.000 A 
ATOM     25  N   UNL     1      -0.036  12.780  21.000  0.00  0.00    +0.000 NA
ATOM     26  C   UNL     1      -0.166  11.486  21.342  0.00  0.00    +0.000 A 
ATOM     27  C   UNL     1      -0.507  11.202  22.644  0.00  0.00    +0.000 A 
ATOM     28  C   UNL     1      -0.688   9.892  23.099  0.00  0.00    +0.000 A 
ATOM     29  C   UNL     1      -0.499   8.836  22.213  0.00  0.00    +0.000 A 
ATOM     30  C   UNL     1      -0.134   9.102  20.889  0.00  0.00    +0.000 A 
ATOM     31  C   UNL     1       0.041  10.422  20.423  0.00  0.00    +0.000 A 
ENDBRANCH  21  22
ENDBRANCH  20  21
ENDBRANCH   3  20
TORSDOF 5
ENDMDL
MODEL 4
REMARK VINA RESULT:      -8.2      5.345      8.943
REMARK  Name = 
REMARK  5 active torsions:
REMARK  status: ('A' for Active; 'I' for Inactive)
REMARK    1  A    between atoms: N_3  and  C_4
REMARK    2  A    between atoms: C_4  and  C_5
REMARK    3  A    between atoms: C_5  and  C_6
REMARK    4  A    between atoms: N_16  and  C_17
REMARK    5  A    between atoms: C_20  and  C_21
REMARK                            x       y       z     vdW  Elec       q    Type
REMARK                         _______ _______ _______ _____ _____    ______ ____
ROOT
ATOM      1  O   UNL     1       0.409   6.140  20.767  0.00  0.00    +0.000 OA
ATOM      2  C   UNL     1       1.588   6.438  20.618  0.00  0.00    +0.000 C 
ATOM      3  N   UNL     1       2.058   7.725  20.725  0.00  0.00    +0.000 N 
ATOM      4  N   UNL     1       2.566   5.515  20.345  0.00  0.00    +0.000 N 
ATOM      5  H   UNL     1       2.930   7.935  20.256  0.00  0.00    +0.000 HD
ATOM      6  H   UNL     1       3.517   5.835  20.213  0.00  0.00    +0.000 HD
ENDROOT
BRANCH   4   7
ATOM      7  C   UNL     1       2.268   4.087  20.221  0.00  0.00    +0.000 C 
ATOM      8  C   UNL     1       1.525   3.750  18.933  0.00  0.00    +0.000 C 
ATOM      9  C   UNL     1       2.602   3.403  17.897  0.00  0.00    +0.000 C 
ATOM     10  C   UNL     1       3.930   3.185  18.657  0.00  0.00    +0.000 C 
ATOM     11  C   UNL     1       3.500   3.170  20.130  0.00  0.00    +0.000 C 
BRANCH  10  12
ATOM     12  C   UNL     1       5.062   4.213  18.466  0.00  0.00    +0.000 C 
ATOM     13  O   UNL     1       5.280   5.059  19.335  0.00  0.00    +0.000 OA
ATOM     14  N   UNL     1       5.900   4.069  17.344  0.00  0.00    +0.000 N 
ATOM     15  C   UNL     1       7.183   4.780  17.320  0.00  0.00    +0.000 C 
ATOM     16  C   UNL     1       7.225   5.826  16.207  0.00  0.00    +0.000 C 
ATOM     17  C   UNL     1       6.907   5.195  14.853  0.00  0.00    +0.000 C 
ATOM     18  C   UNL     1       5.585   4.434  14.912  0.00  0.00    +0.000 C 
ATOM     19  C   UNL     1       5.553   3.422  16.070  0.00  0.00    +0.000 C 
ENDBRANCH  10  12
ENDBRANCH   4   7
BRANCH   3  20
ATOM     20  C   UNL     1       1.121   8.830  20.923  0.00  0.00    +0.000 C 
BRANCH  20  21
ATOM     21  C   UNL     1       0.920   9.678  19.654  0.00  0.00    +0.000 C 
BRANCH  21  22
ATOM     22  C   UNL     1      -0.283  10.606  19.713  0.00  0.00    +0.000 A 
ATOM     23  C   UNL     1      -0.406  11.443  20.822  0.00  0.00    +0.000 A 
ATOM     24  C   UNL     1      -1.516  12.258  20.932  0.00  0.00    +0.000 A 
ATOM     25  N   UNL     1      -2.501  12.301  20.010  0.00  0.00    +0.000 NA
ATOM     26  C   UNL     1      -2.396  11.511  18.928  0.00  0.00    +0.000 A 
ATOM     27  C   UNL     1      -3.409  11.566  17.998  0.00  0.00    +0.000 A 
ATOM     28  C   UNL     1      -3.388  10.801  16.828  0.00  0.00    +0.000 A 
ATOM     29  C   UNL     1      -2.319   9.940  16.600  0.00  0.00    +0.000 A 
ATOM     30  C   UNL     1      -1.288   9.856  17.542  0.00  0.00    +0.000 A 
ATOM     31  C   UNL     1      -1.300  10.631  18.720  0.00  0.00    +0.000 A 
ENDBRANCH  21  22
ENDBRANCH  20  21
ENDBRANCH   3  20
TORSDOF 5
ENDMDL
MODEL 5
REMARK VINA RESULT:      -8.1      5.212      8.897
REMARK  Name = 
REMARK  5 active torsions:
REMARK  status: ('A' for Active; 'I' for Inactive)
REMARK    1  A    between atoms: N_3  and  C_4
REMARK    2  A    between atoms: C_4  and  C_5
REMARK    3  A    between atoms: C_5  and  C_6
REMARK    4  A    between atoms: N_16  and  C_17
REMARK    5  A    between atoms: C_20  and  C_21
REMARK                            x       y       z     vdW  Elec       q    Type
REMARK                         _______ _______ _______ _____ _____    ______ ____
ROOT
ATOM      1  O   UNL     1       1.908   6.707  20.654  0.00  0.00    +0.000 OA
ATOM      2  C   UNL     1       1.957   6.753  19.430  0.00  0.00    +0.000 C 
ATOM      3  N   UNL     1       1.805   7.917  18.715  0.00  0.00    +0.000 N 
ATOM      4  N   UNL     1       2.183   5.650  18.646  0.00  0.00    +0.000 N 
ATOM      5  H   UNL     1       1.509   7.828  17.752  0.00  0.00    +0.000 HD
ATOM      6  H   UNL     1       2.189   5.759  17.640  0.00  0.00    +0.000 HD
ENDROOT
BRANCH   4   7
ATOM      7  C   UNL     1       2.398   4.322  19.224  0.00  0.00    +0.000 C 
ATOM      8  C   UNL     1       1.821   3.205  18.362  0.00  0.00    +0.000 C 
ATOM      9  C   UNL     1       2.954   2.754  17.432  0.00  0.00    +0.000 C 
ATOM     10  C   UNL     1       4.274   3.342  17.983  0.00  0.00    +0.000 C 
ATOM     11  C   UNL     1       3.870   3.899  19.355  0.00  0.00    +0.000 C 
BRANCH  10  12
ATOM     12  C   UNL     1       4.980   4.445  17.172  0.00  0.00    +0.000 C 
ATOM     13  O   UNL     1       4.907   4.449  15.941  0.00  0.00    +0.000 OA
ATOM     14  N   UNL     1       5.591   5.496  17.881  0.00  0.00    +0.000 N 
ATOM     15  C   UNL     1       5.943   6.727  17.165  0.00  0.00    +0.000 C 
ATOM     16  C   UNL     1       7.455   6.947  17.135  0.00  0.00    +0.000 C 
ATOM     17  C   UNL     1       8.037   6.933  18.547  0.00  0.00    +0.000 C 
ATOM     18  C   UNL     1       7.629   5.659  19.283  0.00  0.00    +0.000 C 
ATOM     19  C   UNL     1       6.107   5.438  19.257  0.00  0.00    +0.000 C 
ENDBRANCH  10  12
ENDBRANCH   4   7
BRANCH   3  20
ATOM     20  C   UNL     1       1.466   9.161  19.407  0.00  0.00    +0.000 C 
BRANCH  20  21
ATOM     21  C   UNL     1       1.057  10.289  18.444  0.00  0.00    +0.000 C 
BRANCH  21  22
ATOM     22  C   UNL     1      -0.190  11.047  18.870  0.00  0.00    +0.000 A 
ATOM     23  C   UNL     1      -0.083  11.923  19.949  0.00  0.00    +0.000 A 
ATOM     24  C   UNL     1      -1.211  12.584  20.395  0.00  0.00    +0.000 A 
ATOM     25  N   UNL     1      -2.429  12.439  19.834  0.00  0.00    +0.000 NA
ATOM     26  C   UNL     1      -2.552  11.608  18.784  0.00  0.00    +0.000 A 
ATOM     27  C   UNL     1      -3.800  11.470  18.223  0.00  0.00    +0.000 A 
ATOM     28  C   UNL     1      -4.034  10.647  17.117  0.00  0.00    +0.000 A 
ATOM     29  C   UNL     1      -2.974   9.927  16.573  0.00  0.00    +0.000 A 
ATOM     30  C   UNL     1      -1.700  10.040  17.140  0.00  0.00    +0.000 A 
ATOM     31  C   UNL     1      -1.458  10.875  18.250  0.00  0.00    +0.000 A 
ENDBRANCH  21  22
ENDBRANCH  20  21
ENDBRANCH   3  20
TORSDOF 5
ENDMDL
MODEL 6
REMARK VINA RESULT:      -8.0      6.618     10.607
REMARK  Name = 
REMARK  5 active torsions:
REMARK  status: ('A' for Active; 'I' for Inactive)
REMARK    1  A    between atoms: N_3  and  C_4
REMARK    2  A    between atoms: C_4  and  C_5
REMARK    3  A    between atoms: C_5  and  C_6
REMARK    4  A    between atoms: N_16  and  C_17
REMARK    5  A    between atoms: C_20  and  C_21
REMARK                            x       y       z     vdW  Elec       q    Type
REMARK                         _______ _______ _______ _____ _____    ______ ____
ROOT
ATOM      1  O   UNL     1       1.043   8.802  20.115  0.00  0.00    +0.000 OA
ATOM      2  C   UNL     1       1.264   9.641  19.250  0.00  0.00    +0.000 C 
ATOM      3  N   UNL     1       1.663   9.318  17.974  0.00  0.00    +0.000 N 
ATOM      4  N   UNL     1       1.123  10.989  19.459  0.00  0.00    +0.000 N 
ATOM      5  H   UNL     1       2.151  10.034  17.452  0.00  0.00    +0.000 HD
ATOM      6  H   UNL     1       1.344  11.627  18.704  0.00  0.00    +0.000 HD
ENDROOT
BRANCH   4   7
ATOM      7  C   UNL     1       0.680  11.529  20.745  0.00  0.00    +0.000 C 
ATOM      8  C   UNL     1       0.929  13.028  20.872  0.00  0.00    +0.000 C 
ATOM      9  C   UNL     1      -0.350  13.717  20.378  0.00  0.00    +0.000 C 
ATOM     10  C   UNL     1      -1.461  12.646  20.307  0.00  0.00    +0.000 C 
ATOM     11  C   UNL     1      -0.833  11.433  21.006  0.00  0.00    +0.000 C 
BRANCH  10  12
ATOM     12  C   UNL     1      -1.982  12.222  18.920  0.00  0.00    +0.000 C 
ATOM     13  O   UNL     1      -1.215  12.189  17.956  0.00  0.00    +0.000 OA
ATOM     14  N   UNL     1      -3.309  11.760  18.828  0.00  0.00    +0.000 N 
ATOM     15  C   UNL     1      -3.721  11.016  17.633  0.00  0.00    +0.000 C 
ATOM     16  C   UNL     1      -4.784  11.772  16.838  0.00  0.00    +0.000 C 
ATOM     17  C   UNL     1      -5.980  12.123  17.721  0.00  0.00    +0.000 C 
ATOM     18  C   UNL     1      -5.522  12.867  18.973  0.00  0.00    +0.000 C 
ATOM     19  C   UNL     1      -4.420  12.105  19.728  0.00  0.00    +0.000 C 
ENDBRANCH  10  12
ENDBRANCH   4   7
BRANCH   3  20
ATOM     20  C   UNL     1       1.945   7.926  17.627  0.00  0.00    +0.000 C 
BRANCH  20  21
ATOM     21  C   UNL     1       3.220   7.388  18.299  0.00  0.00    +0.000 C 
BRANCH  21  22
ATOM     22  C   UNL     1       3.437   5.895  18.114  0.00  0.00    +0.000 A 
ATOM     23  C   UNL     1       4.310   5.484  17.107  0.00  0.00    +0.000 A 
ATOM     24  C   UNL     1       4.486   4.133  16.876  0.00  0.00    +0.000 A 
ATOM     25  N   UNL     1       3.861   3.170  17.585  0.00  0.00    +0.000 NA
ATOM     26  C   UNL     1       3.023   3.545  18.568  0.00  0.00    +0.000 A 
ATOM     27  C   UNL     1       2.393   2.551  19.281  0.00  0.00    +0.000 A 
ATOM     28  C   UNL     1       1.519   2.831  20.336  0.00  0.00    +0.000 A 
ATOM     29  C   UNL     1       1.260   4.158  20.667  0.00  0.00    +0.000 A 
ATOM     30  C   UNL     1       1.877   5.183  19.943  0.00  0.00    +0.000 A 
ATOM     31  C   UNL     1       2.767   4.906  18.884  0.00  0.00    +0.000 A 
ENDBRANCH  21  22
ENDBRANCH  20  21
ENDBRANCH   3  20
TORSDOF 5
ENDMDL
MODEL 7
REMARK VINA RESULT:      -8.0      1.097      2.026
REMARK  Name = 
REMARK  5 active torsions:
REMARK  status: ('A' for Active; 'I' for Inactive)
REMARK    1  A    between atoms: N_3  and  C_4
REMARK    2  A    between atoms: C_4  and  C_5
REMARK    3  A    between atoms: C_5  and  C_6
REMARK    4  A    between atoms: N_16  and  C_17
REMARK    5  A    between atoms: C_20  and  C_21
REMARK                            x       y       z     vdW  Elec       q    Type
REMARK                         _______ _______ _______ _____ _____    ______ ____
ROOT
ATOM      1  O   UNL     1       7.912   8.271  16.668  0.00  0.00    +0.000 OA
ATOM      2  C   UNL     1       7.709   7.511  17.607  0.00  0.00    +0.000 C 
ATOM      3  N   UNL     1       8.243   7.703  18.859  0.00  0.00    +0.000 N 
ATOM      4  N   UNL     1       6.913   6.397  17.513  0.00  0.00    +0.000 N 
ATOM      5  H   UNL     1       8.325   6.887  19.452  0.00  0.00    +0.000 HD
ATOM      6  H   UNL     1       6.807   5.802  18.324  0.00  0.00    +0.000 HD
ENDROOT
BRANCH   4   7
ATOM      7  C   UNL     1       6.232   6.038  16.268  0.00  0.00    +0.000 C 
ATOM      8  C   UNL     1       6.753   4.739  15.665  0.00  0.00    +0.000 C 
ATOM      9  C   UNL     1       5.867   3.620  16.228  0.00  0.00    +0.000 C 
ATOM     10  C   UNL     1       4.622   4.284  16.861  0.00  0.00    +0.000 C 
ATOM     11  C   UNL     1       4.729   5.746  16.408  0.00  0.00    +0.000 C 
BRANCH  10  12
ATOM     12  C   UNL     1       4.464   4.234  18.393  0.00  0.00    +0.000 C 
ATOM     13  O   UNL     1       5.461   4.149  19.114  0.00  0.00    +0.000 OA
ATOM     14  N   UNL     1       3.175   4.414  18.929  0.00  0.00    +0.000 N 
ATOM     15  C   UNL     1       3.036   4.737  20.353  0.00  0.00    +0.000 C 
ATOM     16  C   UNL     1       2.318   3.625  21.114  0.00  0.00    +0.000 C 
ATOM     17  C   UNL     1       0.967   3.310  20.476  0.00  0.00    +0.000 C 
ATOM     18  C   UNL     1       1.133   3.010  18.988  0.00  0.00    +0.000 C 
ATOM     19  C   UNL     1       1.900   4.124  18.256  0.00  0.00    +0.000 C 
ENDBRANCH  10  12
ENDBRANCH   4   7
BRANCH   3  20
ATOM     20  C   UNL     1       9.186   8.797  19.091  0.00  0.00    +0.000 C 
BRANCH  20  21
ATOM     21  C   UNL     1       8.539  10.185  18.945  0.00  0.00    +0.000 C 
BRANCH  21  22
ATOM     22  C   UNL     1       9.537  11.326  18.828  0.00  0.00    +0.000 A 
ATOM     23  C   UNL     1      10.373  11.347  17.711  0.00  0.00    +0.000 A 
ATOM     24  C   UNL     1      11.328  12.339  17.603  0.00  0.00    +0.000 A 
ATOM     25  N   UNL     1      11.499  13.312  18.524  0.00  0.00    +0.000 NA
ATOM     26  C   UNL     1      10.696  13.316  19.602  0.00  0.00    +0.000 A 
ATOM     27  C   UNL     1      10.882  14.312  20.531  0.00  0.00    +0.000 A 
ATOM     28  C   UNL     1      10.089  14.420  21.678  0.00  0.00    +0.000 A 
ATOM     29  C   UNL     1       9.088  13.479  21.900  0.00  0.00    +0.000 A 
ATOM     30  C   UNL     1       8.894  12.448  20.976  0.00  0.00    +0.000 A 
ATOM     31  C   UNL     1       9.685  12.339  19.814  0.00  0.00    +0.000 A 
ENDBRANCH  21  22
ENDBRANCH  20  21
ENDBRANCH   3  20
TORSDOF 5
ENDMDL
MODEL 8
REMARK VINA RESULT:      -7.9      3.034      9.896
REMARK  Name = 
REMARK  5 active torsions:
REMARK  status: ('A' for Active; 'I' for Inactive)
REMARK    1  A    between atoms: N_3  and  C_4
REMARK    2  A    between atoms: C_4  and  C_5
REMARK    3  A    between atoms: C_5  and  C_6
REMARK    4  A    between atoms: N_16  and  C_17
REMARK    5  A    between atoms: C_20  and  C_21
REMARK                            x       y       z     vdW  Elec       q    Type
REMARK                         _______ _______ _______ _____ _____    ______ ____
ROOT
ATOM      1  O   UNL     1       8.802   8.276  18.855  0.00  0.00    +0.000 OA
ATOM      2  C   UNL     1       8.223   9.030  18.081  0.00  0.00    +0.000 C 
ATOM      3  N   UNL     1       7.132   8.649  17.336  0.00  0.00    +0.000 N 
ATOM      4  N   UNL     1       8.592  10.337  17.889  0.00  0.00    +0.000 N 
ATOM      5  H   UNL     1       6.942   9.181  16.497  0.00  0.00    +0.000 HD
ATOM      6  H   UNL     1       8.081  10.896  17.217  0.00  0.00    +0.000 HD
ENDROOT
BRANCH   4   7
ATOM      7  C   UNL     1       9.714  10.937  18.613  0.00  0.00    +0.000 C 
ATOM      8  C   UNL     1      10.783  11.499  17.682  0.00  0.00    +0.000 C 
ATOM      9  C   UNL     1      10.417  12.970  17.450  0.00  0.00    +0.000 C 
ATOM     10  C   UNL     1       9.363  13.363  18.510  0.00  0.00    +0.000 C 
ATOM     11  C   UNL     1       9.356  12.164  19.468  0.00  0.00    +0.000 C 
BRANCH  10  12
ATOM     12  C   UNL     1       7.923  13.651  18.042  0.00  0.00    +0.000 C 
ATOM     13  O   UNL     1       7.445  13.022  17.096  0.00  0.00    +0.000 OA
ATOM     14  N   UNL     1       7.150  14.548  18.802  0.00  0.00    +0.000 N 
ATOM     15  C   UNL     1       5.695  14.568  18.615  0.00  0.00    +0.000 C 
ATOM     16  C   UNL     1       5.219  15.903  18.046  0.00  0.00    +0.000 C 
ATOM     17  C   UNL     1       5.689  17.066  18.916  0.00  0.00    +0.000 C 
ATOM     18  C   UNL     1       7.200  17.006  19.123  0.00  0.00    +0.000 C 
ATOM     19  C   UNL     1       7.656  15.636  19.653  0.00  0.00    +0.000 C 
ENDBRANCH  10  12
ENDBRANCH   4   7
BRANCH   3  20
ATOM     20  C   UNL     1       6.677   7.259  17.365  0.00  0.00    +0.000 C 
BRANCH  20  21
ATOM     21  C   UNL     1       5.177   7.114  17.052  0.00  0.00    +0.000 C 
BRANCH  21  22
ATOM     22  C   UNL     1       4.613   5.733  17.344  0.00  0.00    +0.000 A 
ATOM     23  C   UNL     1       5.083   4.663  16.583  0.00  0.00    +0.000 A 
ATOM     24  C   UNL     1       4.550   3.405  16.787  0.00  0.00    +0.000 A 
ATOM     25  N   UNL     1       3.593   3.142  17.701  0.00  0.00    +0.000 NA
ATOM     26  C   UNL     1       3.134   4.157  18.453  0.00  0.00    +0.000 A 
ATOM     27  C   UNL     1       2.158   3.873  19.380  0.00  0.00    +0.000 A 
ATOM     28  C   UNL     1       1.626   4.851  20.226  0.00  0.00    +0.000 A 
ATOM     29  C   UNL     1       2.084   6.161  20.119  0.00  0.00    +0.000 A 
ATOM     30  C   UNL     1       3.064   6.474  19.171  0.00  0.00    +0.000 A 
ATOM     31  C   UNL     1       3.609   5.490  18.320  0.00  0.00    +0.000 A 
ENDBRANCH  21  22
ENDBRANCH  20  21
ENDBRANCH   3  20
TORSDOF 5
ENDMDL
MODEL 9
REMARK VINA RESULT:      -7.9      6.826     10.015
REMARK  Name = 
REMARK  5 active torsions:
REMARK  status: ('A' for Active; 'I' for Inactive)
REMARK    1  A    between atoms: N_3  and  C_4
REMARK    2  A    between atoms: C_4  and  C_5
REMARK    3  A    between atoms: C_5  and  C_6
REMARK    4  A    between atoms: N_16  and  C_17
REMARK    5  A    between atoms: C_20  and  C_21
REMARK                            x       y       z     vdW  Elec       q    Type
REMARK                         _______ _______ _______ _____ _____    ______ ____
ROOT
ATOM      1  O   UNL     1       0.995   9.055  20.054  0.00  0.00    +0.000 OA
ATOM      2  C   UNL     1       1.129   9.907  19.184  0.00  0.00    +0.000 C 
ATOM      3  N   UNL     1       1.500   9.613  17.894  0.00  0.00    +0.000 N 
ATOM      4  N   UNL     1       0.907  11.244  19.402  0.00  0.00    +0.000 N 
ATOM      5  H   UNL     1       1.921  10.359  17.356  0.00  0.00    +0.000 HD
ATOM      6  H   UNL     1       1.058  11.895  18.642  0.00  0.00    +0.000 HD
ENDROOT
BRANCH   4   7
ATOM      7  C   UNL     1       0.477  11.753  20.706  0.00  0.00    +0.000 C 
ATOM      8  C   UNL     1       0.640  13.263  20.831  0.00  0.00    +0.000 C 
ATOM      9  C   UNL     1      -0.694  13.875  20.385  0.00  0.00    +0.000 C 
ATOM     10  C   UNL     1      -1.741  12.739  20.347  0.00  0.00    +0.000 C 
ATOM     11  C   UNL     1      -1.017  11.564  21.018  0.00  0.00    +0.000 C 
BRANCH  10  12
ATOM     12  C   UNL     1      -2.284  12.288  18.977  0.00  0.00    +0.000 C 
ATOM     13  O   UNL     1      -1.523  12.198  18.011  0.00  0.00    +0.000 OA
ATOM     14  N   UNL     1      -3.626  11.869  18.905  0.00  0.00    +0.000 N 
ATOM     15  C   UNL     1      -4.069  11.100  17.737  0.00  0.00    +0.000 C 
ATOM     16  C   UNL     1      -5.110  11.866  16.922  0.00  0.00    +0.000 C 
ATOM     17  C   UNL     1      -6.288  12.286  17.798  0.00  0.00    +0.000 C 
ATOM     18  C   UNL     1      -5.799  13.055  19.024  0.00  0.00    +0.000 C 
ATOM     19  C   UNL     1      -4.719  12.281  19.798  0.00  0.00    +0.000 C 
ENDBRANCH  10  12
ENDBRANCH   4   7
BRANCH   3  20
ATOM     20  C   UNL     1       1.860   8.242  17.532  0.00  0.00    +0.000 C 
BRANCH  20  21
ATOM     21  C   UNL     1       3.338   7.918  17.813  0.00  0.00    +0.000 C 
BRANCH  21  22
ATOM     22  C   UNL     1       3.636   6.431  17.928  0.00  0.00    +0.000 A 
ATOM     23  C   UNL     1       3.099   5.741  19.015  0.00  0.00    +0.000 A 
ATOM     24  C   UNL     1       3.397   4.402  19.177  0.00  0.00    +0.000 A 
ATOM     25  N   UNL     1       4.181   3.706  18.328  0.00  0.00    +0.000 NA
ATOM     26  C   UNL     1       4.700   4.349  17.268  0.00  0.00    +0.000 A 
ATOM     27  C   UNL     1       5.497   3.626  16.412  0.00  0.00    +0.000 A 
ATOM     28  C   UNL     1       6.070   4.193  15.268  0.00  0.00    +0.000 A 
ATOM     29  C   UNL     1       5.842   5.538  14.993  0.00  0.00    +0.000 A 
ATOM     30  C   UNL     1       5.048   6.295  15.860  0.00  0.00    +0.000 A 
ATOM     31  C   UNL     1       4.462   5.727  17.010  0.00  0.00    +0.000 A 
ENDBRANCH  21  22
ENDBRANCH  20  21
ENDBRANCH   3  20
TORSDOF 5
ENDMDL
