MODEL 1
REMARK VINA RESULT:      -8.9      0.000      0.000
REMARK  Name = 
REMARK  4 active torsions:
REMARK  status: ('A' for Active; 'I' for Inactive)
REMARK    1  A    between atoms: C_2  and  C_17
REMARK    2  A    between atoms: N_3  and  C_4
REMARK    3  A    between atoms: C_4  and  C_5
REMARK    4  A    between atoms: C_20  and  C_21
REMARK                            x       y       z     vdW  Elec       q    Type
REMARK                         _______ _______ _______ _____ _____    ______ ____
ROOT
ATOM      1  O   UNL     1      -1.247  11.286  19.717  0.00  0.00    +0.000 OA
ATOM      2  C   UNL     1      -0.159  10.995  20.212  0.00  0.00    +0.000 C 
ATOM      3  N   UNL     1       0.370  11.666  21.284  0.00  0.00    +0.000 N 
ATOM      4  H   UNL     1       1.339  11.518  21.561  0.00  0.00    +0.000 HD
ENDROOT
BRANCH   2   5
ATOM      5  C   UNL     1       0.643   9.878  19.640  0.00  0.00    +0.000 A 
ATOM      6  C   UNL     1       1.003   9.892  18.289  0.00  0.00    +0.000 A 
ATOM      7  C   UNL     1       1.795   8.855  17.759  0.00  0.00    +0.000 A 
ATOM      8  C   UNL     1       2.238   7.788  18.561  0.00  0.00    +0.000 A 
ATOM      9  C   UNL     1       1.853   7.788  19.909  0.00  0.00    +0.000 A 
ATOM     10  C   UNL     1       1.064   8.810  20.431  0.00  0.00    +0.000 A 
ATOM     11  F   UNL     1       0.743   8.730  21.729  0.00  0.00    +0.000 F 
BRANCH   8  12
ATOM     12  C   UNL     1       3.097   6.711  18.015  0.00  0.00    +0.000 A 
ATOM     13  C   UNL     1       2.750   5.355  18.158  0.00  0.00    +0.000 A 
ATOM     14  C   UNL     1       3.563   4.342  17.646  0.00  0.00    +0.000 A 
ATOM     15  C   UNL     1       4.730   4.675  16.978  0.00  0.00    +0.000 A 
ATOM     16  F   UNL     1       5.508   3.703  16.487  0.00  0.00    +0.000 F 
ATOM     17  C   UNL     1       5.103   5.998  16.812  0.00  0.00    +0.000 A 
ATOM     18  C   UNL     1       4.291   7.011  17.329  0.00  0.00    +0.000 A 
ENDBRANCH   8  12
ENDBRANCH   2   5
BRANCH   3  19
ATOM     19  C   UNL     1      -0.323  12.768  21.922  0.00  0.00    +0.000 C 
BRANCH  19  20
ATOM     20  C   UNL     1      -1.358  12.249  22.931  0.00  0.00    +0.000 C 
ATOM     21  O   UNL     1      -1.267  11.099  23.375  0.00  0.00    +0.000 OA
ATOM     22  N   UNL     1      -2.358  13.124  23.342  0.00  0.00    +0.000 N 
ATOM     23  C   UNL     1      -2.519  14.488  22.817  0.00  0.00    +0.000 C 
ATOM     24  C   UNL     1      -3.517  15.358  23.590  0.00  0.00    +0.000 C 
ATOM     25  C   UNL     1      -4.817  14.616  23.758  0.00  0.00    +0.000 A 
ATOM     26  C   UNL     1      -6.061  15.251  23.686  0.00  0.00    +0.000 A 
ATOM     27  C   UNL     1      -7.230  14.510  23.851  0.00  0.00    +0.000 A 
ATOM     28  C   UNL     1      -7.165  13.138  24.098  0.00  0.00    +0.000 A 
ATOM     29  C   UNL     1      -5.927  12.506  24.197  0.00  0.00    +0.000 A 
ATOM     30  C   UNL     1      -4.747  13.240  24.029  0.00  0.00    +0.000 A 
ATOM     31  C   UNL     1      -3.397  12.596  24.228  0.00  0.00    +0.000 C 
ENDBRANCH  19  20
ENDBRANCH   3  19
TORSDOF 4
ENDMDL
MODEL 2
REMARK VINA RESULT:      -8.6      9.049     11.711
REMARK  Name = 
REMARK  4 active torsions:
REMARK  status: ('A' for Active; 'I' for Inactive)
REMARK    1  A    between atoms: C_2  and  C_17
REMARK    2  A    between atoms: N_3  and  C_4
REMARK    3  A    between atoms: C_4  and  C_5
REMARK    4  A    between atoms: C_20  and  C_21
REMARK                            x       y       z     vdW  Elec       q    Type
REMARK                         _______ _______ _______ _____ _____    ______ ____
ROOT
ATOM      1  O   UNL     1       7.108   8.875  16.958  0.00  0.00    +0.000 OA
ATOM      2  C   UNL     1       7.935   8.807  17.866  0.00  0.00    +0.000 C 
ATOM      3  N   UNL     1       8.322   7.617  18.428  0.00  0.00    +0.000 N 
ATOM      4  H   UNL     1       8.871   7.604  19.286  0.00  0.00    +0.000 HD
ENDROOT
BRANCH   2   5
ATOM      5  C   UNL     1       8.552  10.051  18.405  0.00  0.00    +0.000 A 
ATOM      6  C   UNL     1       9.412   9.988  19.506  0.00  0.00    +0.000 A 
ATOM      7  C   UNL     1      10.026  11.159  19.991  0.00  0.00    +0.000 A 
ATOM      8  C   UNL     1       9.792  12.410  19.391  0.00  0.00    +0.000 A 
ATOM      9  C   UNL     1       8.916  12.450  18.298  0.00  0.00    +0.000 A 
ATOM     10  C   UNL     1       8.304  11.293  17.824  0.00  0.00    +0.000 A 
ATOM     11  F   UNL     1       7.482  11.424  16.775  0.00  0.00    +0.000 F 
BRANCH   8  12
ATOM     12  C   UNL     1      10.460  13.640  19.878  0.00  0.00    +0.000 A 
ATOM     13  C   UNL     1       9.990  14.329  21.010  0.00  0.00    +0.000 A 
ATOM     14  C   UNL     1      10.618  15.490  21.465  0.00  0.00    +0.000 A 
ATOM     15  C   UNL     1      11.730  15.971  20.794  0.00  0.00    +0.000 A 
ATOM     16  F   UNL     1      12.333  17.084  21.230  0.00  0.00    +0.000 F 
ATOM     17  C   UNL     1      12.228  15.318  19.678  0.00  0.00    +0.000 A 
ATOM     18  C   UNL     1      11.595  14.159  19.222  0.00  0.00    +0.000 A 
ENDBRANCH   8  12
ENDBRANCH   2   5
BRANCH   3  19
ATOM     19  C   UNL     1       7.788   6.345  17.984  0.00  0.00    +0.000 C 
BRANCH  19  20
ATOM     20  C   UNL     1       6.936   5.699  19.087  0.00  0.00    +0.000 C 
ATOM     21  O   UNL     1       7.461   5.349  20.150  0.00  0.00    +0.000 OA
ATOM     22  N   UNL     1       5.571   5.563  18.856  0.00  0.00    +0.000 N 
ATOM     23  C   UNL     1       4.913   5.940  17.596  0.00  0.00    +0.000 C 
ATOM     24  C   UNL     1       3.380   5.948  17.652  0.00  0.00    +0.000 C 
ATOM     25  C   UNL     1       2.884   4.650  18.231  0.00  0.00    +0.000 A 
ATOM     26  C   UNL     1       1.729   4.012  17.767  0.00  0.00    +0.000 A 
ATOM     27  C   UNL     1       1.319   2.810  18.345  0.00  0.00    +0.000 A 
ATOM     28  C   UNL     1       2.051   2.247  19.391  0.00  0.00    +0.000 A 
ATOM     29  C   UNL     1       3.188   2.892  19.873  0.00  0.00    +0.000 A 
ATOM     30  C   UNL     1       3.610   4.096  19.298  0.00  0.00    +0.000 A 
ATOM     31  C   UNL     1       4.780   4.860  19.867  0.00  0.00    +0.000 C 
ENDBRANCH  19  20
ENDBRANCH   3  19
TORSDOF 4
ENDMDL
MODEL 3
REMARK VINA RESULT:      -8.6      1.633      2.048
REMARK  Name = 
REMARK  4 active torsions:
REMARK  status: ('A' for Active; 'I' for Inactive)
REMARK    1  A    between atoms: C_2  and  C_17
REMARK    2  A    between atoms: N_3  and  C_4
REMARK    3  A    between atoms: C_4  and  C_5
REMARK    4  A    between atoms: C_20  and  C_21
REMARK                            x       y       z     vdW  Elec       q    Type
REMARK                         _______ _______ _______ _____ _____    ______ ____
ROOT
ATOM      1  O   UNL     1       1.189  11.279  19.151  0.00  0.00    +0.000 OA
ATOM      2  C   UNL     1       0.914  10.359  19.919  0.00  0.00    +0.000 C 
ATOM      3  N   UNL     1       0.156  10.539  21.048  0.00  0.00    +0.000 N 
ATOM      4  H   UNL     1       0.090   9.804  21.750  0.00  0.00    +0.000 HD
ENDROOT
BRANCH   2   5
ATOM      5  C   UNL     1       1.415   8.984  19.644  0.00  0.00    +0.000 A 
ATOM      6  C   UNL     1       1.406   8.018  20.655  0.00  0.00    +0.000 A 
ATOM      7  C   UNL     1       1.844   6.708  20.383  0.00  0.00    +0.000 A 
ATOM      8  C   UNL     1       2.300   6.338  19.105  0.00  0.00    +0.000 A 
ATOM      9  C   UNL     1       2.313   7.327  18.111  0.00  0.00    +0.000 A 
ATOM     10  C   UNL     1       1.887   8.624  18.383  0.00  0.00    +0.000 A 
ATOM     11  F   UNL     1       1.933   9.505  17.375  0.00  0.00    +0.000 F 
BRANCH   8  12
ATOM     12  C   UNL     1       2.732   4.952  18.805  0.00  0.00    +0.000 A 
ATOM     13  C   UNL     1       2.027   4.147  17.893  0.00  0.00    +0.000 A 
ATOM     14  C   UNL     1       2.434   2.841  17.614  0.00  0.00    +0.000 A 
ATOM     15  C   UNL     1       3.557   2.327  18.242  0.00  0.00    +0.000 A 
ATOM     16  F   UNL     1       3.947   1.075  17.975  0.00  0.00    +0.000 F 
ATOM     17  C   UNL     1       4.281   3.090  19.143  0.00  0.00    +0.000 A 
ATOM     18  C   UNL     1       3.870   4.396  19.424  0.00  0.00    +0.000 A 
ENDBRANCH   8  12
ENDBRANCH   2   5
BRANCH   3  19
ATOM     19  C   UNL     1      -0.384  11.833  21.416  0.00  0.00    +0.000 C 
BRANCH  19  20
ATOM     20  C   UNL     1      -1.288  11.712  22.651  0.00  0.00    +0.000 C 
ATOM     21  O   UNL     1      -1.128  10.781  23.448  0.00  0.00    +0.000 OA
ATOM     22  N   UNL     1      -2.251  12.697  22.850  0.00  0.00    +0.000 N 
ATOM     23  C   UNL     1      -2.494  13.803  21.911  0.00  0.00    +0.000 C 
ATOM     24  C   UNL     1      -3.414  14.907  22.449  0.00  0.00    +0.000 C 
ATOM     25  C   UNL     1      -4.672  14.296  23.005  0.00  0.00    +0.000 A 
ATOM     26  C   UNL     1      -5.927  14.896  22.861  0.00  0.00    +0.000 A 
ATOM     27  C   UNL     1      -7.058  14.282  23.400  0.00  0.00    +0.000 A 
ATOM     28  C   UNL     1      -6.940  13.076  24.092  0.00  0.00    +0.000 A 
ATOM     29  C   UNL     1      -5.688  12.488  24.260  0.00  0.00    +0.000 A 
ATOM     30  C   UNL     1      -4.548  13.094  23.720  0.00  0.00    +0.000 A 
ATOM     31  C   UNL     1      -3.173  12.527  23.973  0.00  0.00    +0.000 C 
ENDBRANCH  19  20
ENDBRANCH   3  19
TORSDOF 4
ENDMDL
MODEL 4
REMARK VINA RESULT:      -8.6      1.290      1.334
REMARK  Name = 
REMARK  4 active torsions:
REMARK  status: ('A' for Active; 'I' for Inactive)
REMARK    1  A    between atoms: C_2  and  C_17
REMARK    2  A    between atoms: N_3  and  C_4
REMARK    3  A    between atoms: C_4  and  C_5
REMARK    4  A    between atoms: C_20  and  C_21
REMARK                            x       y       z     vdW  Elec       q    Type
REMARK                         _______ _______ _______ _____ _____    ______ ____
ROOT
ATOM      1  O   UNL     1       1.526  11.841  20.455  0.00  0.00    +0.000 OA
ATOM      2  C   UNL     1       0.734  10.900  20.429  0.00  0.00    +0.000 C 
ATOM      3  N   UNL     1      -0.579  11.026  20.806  0.00  0.00    +0.000 N 
ATOM      4  H   UNL     1      -1.162  10.201  20.938  0.00  0.00    +0.000 HD
ENDROOT
BRANCH   2   5
ATOM      5  C   UNL     1       1.190   9.555  19.981  0.00  0.00    +0.000 A 
ATOM      6  C   UNL     1       1.543   9.343  18.644  0.00  0.00    +0.000 A 
ATOM      7  C   UNL     1       2.012   8.081  18.230  0.00  0.00    +0.000 A 
ATOM      8  C   UNL     1       2.133   7.011  19.135  0.00  0.00    +0.000 A 
ATOM      9  C   UNL     1       1.760   7.244  20.466  0.00  0.00    +0.000 A 
ATOM     10  C   UNL     1       1.290   8.489  20.873  0.00  0.00    +0.000 A 
ATOM     11  F   UNL     1       0.956   8.623  22.163  0.00  0.00    +0.000 F 
BRANCH   8  12
ATOM     12  C   UNL     1       2.655   5.691  18.710  0.00  0.00    +0.000 A 
ATOM     13  C   UNL     1       1.915   4.851  17.859  0.00  0.00    +0.000 A 
ATOM     14  C   UNL     1       2.407   3.605  17.463  0.00  0.00    +0.000 A 
ATOM     15  C   UNL     1       3.650   3.190  17.909  0.00  0.00    +0.000 A 
ATOM     16  F   UNL     1       4.122   1.996  17.529  0.00  0.00    +0.000 F 
ATOM     17  C   UNL     1       4.413   3.991  18.743  0.00  0.00    +0.000 A 
ATOM     18  C   UNL     1       3.917   5.235  19.143  0.00  0.00    +0.000 A 
ENDBRANCH   8  12
ENDBRANCH   2   5
BRANCH   3  19
ATOM     19  C   UNL     1      -1.133  12.287  21.259  0.00  0.00    +0.000 C 
BRANCH  19  20
ATOM     20  C   UNL     1      -1.998  12.081  22.511  0.00  0.00    +0.000 C 
ATOM     21  O   UNL     1      -1.809  11.100  23.240  0.00  0.00    +0.000 OA
ATOM     22  N   UNL     1      -2.957  13.046  22.803  0.00  0.00    +0.000 N 
ATOM     23  C   UNL     1      -3.232  14.210  21.948  0.00  0.00    +0.000 C 
ATOM     24  C   UNL     1      -4.137  15.272  22.585  0.00  0.00    +0.000 C 
ATOM     25  C   UNL     1      -5.376  14.620  23.138  0.00  0.00    +0.000 A 
ATOM     26  C   UNL     1      -6.637  15.221  23.073  0.00  0.00    +0.000 A 
ATOM     27  C   UNL     1      -7.748  14.567  23.605  0.00  0.00    +0.000 A 
ATOM     28  C   UNL     1      -7.606  13.320  24.213  0.00  0.00    +0.000 A 
ATOM     29  C   UNL     1      -6.347  12.728  24.303  0.00  0.00    +0.000 A 
ATOM     30  C   UNL     1      -5.227  13.373  23.769  0.00  0.00    +0.000 A 
ATOM     31  C   UNL     1      -3.843  12.798  23.941  0.00  0.00    +0.000 C 
ENDBRANCH  19  20
ENDBRANCH   3  19
TORSDOF 4
ENDMDL
MODEL 5
REMARK VINA RESULT:      -8.5      2.963      3.562
REMARK  Name = 
REMARK  4 active torsions:
REMARK  status: ('A' for Active; 'I' for Inactive)
REMARK    1  A    between atoms: C_2  and  C_17
REMARK    2  A    between atoms: N_3  and  C_4
REMARK    3  A    between atoms: C_4  and  C_5
REMARK    4  A    between atoms: C_20  and  C_21
REMARK                            x       y       z     vdW  Elec       q    Type
REMARK                         _______ _______ _______ _____ _____    ______ ____
ROOT
ATOM      1  O   UNL     1       0.642  11.483  20.197  0.00  0.00    +0.000 OA
ATOM      2  C   UNL     1       0.425  10.601  19.367  0.00  0.00    +0.000 C 
ATOM      3  N   UNL     1      -0.447  10.766  18.322  0.00  0.00    +0.000 N 
ATOM      4  H   UNL     1      -0.735   9.970  17.756  0.00  0.00    +0.000 HD
ENDROOT
BRANCH   2   5
ATOM      5  C   UNL     1       1.118   9.287  19.479  0.00  0.00    +0.000 A 
ATOM      6  C   UNL     1       1.018   8.539  20.655  0.00  0.00    +0.000 A 
ATOM      7  C   UNL     1       1.641   7.279  20.746  0.00  0.00    +0.000 A 
ATOM      8  C   UNL     1       2.375   6.746  19.671  0.00  0.00    +0.000 A 
ATOM      9  C   UNL     1       2.474   7.521  18.507  0.00  0.00    +0.000 A 
ATOM     10  C   UNL     1       1.863   8.769  18.421  0.00  0.00    +0.000 A 
ATOM     11  F   UNL     1       2.009   9.441  17.272  0.00  0.00    +0.000 F 
BRANCH   8  12
ATOM     12  C   UNL     1       3.006   5.407  19.750  0.00  0.00    +0.000 A 
ATOM     13  C   UNL     1       2.368   4.335  20.397  0.00  0.00    +0.000 A 
ATOM     14  C   UNL     1       2.965   3.075  20.474  0.00  0.00    +0.000 A 
ATOM     15  C   UNL     1       4.208   2.874  19.896  0.00  0.00    +0.000 A 
ATOM     16  F   UNL     1       4.780   1.666  19.969  0.00  0.00    +0.000 F 
ATOM     17  C   UNL     1       4.867   3.903  19.244  0.00  0.00    +0.000 A 
ATOM     18  C   UNL     1       4.269   5.164  19.173  0.00  0.00    +0.000 A 
ENDBRANCH   8  12
ENDBRANCH   2   5
BRANCH   3  19
ATOM     19  C   UNL     1      -1.176  12.002  18.114  0.00  0.00    +0.000 C 
BRANCH  19  20
ATOM     20  C   UNL     1      -2.682  11.728  17.984  0.00  0.00    +0.000 C 
ATOM     21  O   UNL     1      -3.131  11.213  16.955  0.00  0.00    +0.000 OA
ATOM     22  N   UNL     1      -3.494  12.045  19.069  0.00  0.00    +0.000 N 
ATOM     23  C   UNL     1      -3.004  12.685  20.298  0.00  0.00    +0.000 C 
ATOM     24  C   UNL     1      -4.012  12.705  21.454  0.00  0.00    +0.000 C 
ATOM     25  C   UNL     1      -5.330  13.249  20.972  0.00  0.00    +0.000 A 
ATOM     26  C   UNL     1      -6.136  14.078  21.759  0.00  0.00    +0.000 A 
ATOM     27  C   UNL     1      -7.349  14.549  21.256  0.00  0.00    +0.000 A 
ATOM     28  C   UNL     1      -7.767  14.189  19.975  0.00  0.00    +0.000 A 
ATOM     29  C   UNL     1      -6.979  13.342  19.197  0.00  0.00    +0.000 A 
ATOM     30  C   UNL     1      -5.759  12.867  19.690  0.00  0.00    +0.000 A 
ATOM     31  C   UNL     1      -4.939  11.874  18.905  0.00  0.00    +0.000 C 
ENDBRANCH  19  20
ENDBRANCH   3  19
TORSDOF 4
ENDMDL
MODEL 6
REMARK VINA RESULT:      -8.5      1.607      2.206
REMARK  Name = 
REMARK  4 active torsions:
REMARK  status: ('A' for Active; 'I' for Inactive)
REMARK    1  A    between atoms: C_2  and  C_17
REMARK    2  A    between atoms: N_3  and  C_4
REMARK    3  A    between atoms: C_4  and  C_5
REMARK    4  A    between atoms: C_20  and  C_21
REMARK                            x       y       z     vdW  Elec       q    Type
REMARK                         _______ _______ _______ _____ _____    ______ ____
ROOT
ATOM      1  O   UNL     1       0.675  10.898  21.829  0.00  0.00    +0.000 OA
ATOM      2  C   UNL     1       0.389  10.654  20.658  0.00  0.00    +0.000 C 
ATOM      3  N   UNL     1      -0.575  11.347  19.972  0.00  0.00    +0.000 N 
ATOM      4  H   UNL     1      -0.909  11.014  19.069  0.00  0.00    +0.000 HD
ENDROOT
BRANCH   2   5
ATOM      5  C   UNL     1       1.095   9.563  19.930  0.00  0.00    +0.000 A 
ATOM      6  C   UNL     1       1.533   9.764  18.618  0.00  0.00    +0.000 A 
ATOM      7  C   UNL     1       2.235   8.746  17.944  0.00  0.00    +0.000 A 
ATOM      8  C   UNL     1       2.509   7.513  18.563  0.00  0.00    +0.000 A 
ATOM      9  C   UNL     1       2.048   7.329  19.875  0.00  0.00    +0.000 A 
ATOM     10  C   UNL     1       1.348   8.334  20.537  0.00  0.00    +0.000 A 
ATOM     11  F   UNL     1       0.945   8.074  21.787  0.00  0.00    +0.000 F 
BRANCH   8  12
ATOM     12  C   UNL     1       3.275   6.449  17.870  0.00  0.00    +0.000 A 
ATOM     13  C   UNL     1       4.355   6.759  17.025  0.00  0.00    +0.000 A 
ATOM     14  C   UNL     1       5.073   5.756  16.370  0.00  0.00    +0.000 A 
ATOM     15  C   UNL     1       4.721   4.430  16.560  0.00  0.00    +0.000 A 
ATOM     16  F   UNL     1       5.410   3.469  15.933  0.00  0.00    +0.000 F 
ATOM     17  C   UNL     1       3.667   4.084  17.389  0.00  0.00    +0.000 A 
ATOM     18  C   UNL     1       2.946   5.089  18.040  0.00  0.00    +0.000 A 
ENDBRANCH   8  12
ENDBRANCH   2   5
BRANCH   3  19
ATOM     19  C   UNL     1      -1.326  12.429  20.578  0.00  0.00    +0.000 C 
BRANCH  19  20
ATOM     20  C   UNL     1      -2.801  12.370  20.155  0.00  0.00    +0.000 C 
ATOM     21  O   UNL     1      -3.100  12.095  18.987  0.00  0.00    +0.000 OA
ATOM     22  N   UNL     1      -3.766  12.597  21.131  0.00  0.00    +0.000 N 
ATOM     23  C   UNL     1      -3.453  12.955  22.523  0.00  0.00    +0.000 C 
ATOM     24  C   UNL     1      -4.649  12.905  23.481  0.00  0.00    +0.000 C 
ATOM     25  C   UNL     1      -5.801  13.681  22.900  0.00  0.00    +0.000 A 
ATOM     26  C   UNL     1      -6.658  14.458  23.686  0.00  0.00    +0.000 A 
ATOM     27  C   UNL     1      -7.708  15.155  23.089  0.00  0.00    +0.000 A 
ATOM     28  C   UNL     1      -7.916  15.070  21.712  0.00  0.00    +0.000 A 
ATOM     29  C   UNL     1      -7.081  14.276  20.928  0.00  0.00    +0.000 A 
ATOM     30  C   UNL     1      -6.021  13.577  21.517  0.00  0.00    +0.000 A 
ATOM     31  C   UNL     1      -5.166  12.636  20.704  0.00  0.00    +0.000 C 
ENDBRANCH  19  20
ENDBRANCH   3  19
TORSDOF 4
ENDMDL
MODEL 7
REMARK VINA RESULT:      -8.4      2.013      2.668
REMARK  Name = 
REMARK  4 active torsions:
REMARK  status: ('A' for Active; 'I' for Inactive)
REMARK    1  A    between atoms: C_2  and  C_17
REMARK    2  A    between atoms: N_3  and  C_4
REMARK    3  A    between atoms: C_4  and  C_5
REMARK    4  A    between atoms: C_20  and  C_21
REMARK                            x       y       z     vdW  Elec       q    Type
REMARK                         _______ _______ _______ _____ _____    ______ ____
ROOT
ATOM      1  O   UNL     1       1.176  11.105  21.214  0.00  0.00    +0.000 OA
ATOM      2  C   UNL     1       0.863  10.585  20.145  0.00  0.00    +0.000 C 
ATOM      3  N   UNL     1       0.056  11.207  19.227  0.00  0.00    +0.000 N 
ATOM      4  H   UNL     1      -0.324  10.690  18.436  0.00  0.00    +0.000 HD
ENDROOT
BRANCH   2   5
ATOM      5  C   UNL     1       1.359   9.222  19.806  0.00  0.00    +0.000 A 
ATOM      6  C   UNL     1       1.331   8.206  20.767  0.00  0.00    +0.000 A 
ATOM      7  C   UNL     1       1.763   6.908  20.434  0.00  0.00    +0.000 A 
ATOM      8  C   UNL     1       2.233   6.600  19.145  0.00  0.00    +0.000 A 
ATOM      9  C   UNL     1       2.265   7.638  18.202  0.00  0.00    +0.000 A 
ATOM     10  C   UNL     1       1.844   8.923  18.534  0.00  0.00    +0.000 A 
ATOM     11  F   UNL     1       1.909   9.853  17.573  0.00  0.00    +0.000 F 
BRANCH   8  12
ATOM     12  C   UNL     1       2.660   5.228  18.781  0.00  0.00    +0.000 A 
ATOM     13  C   UNL     1       1.983   4.489  17.795  0.00  0.00    +0.000 A 
ATOM     14  C   UNL     1       2.384   3.195  17.456  0.00  0.00    +0.000 A 
ATOM     15  C   UNL     1       3.475   2.630  18.096  0.00  0.00    +0.000 A 
ATOM     16  F   UNL     1       3.860   1.390  17.770  0.00  0.00    +0.000 F 
ATOM     17  C   UNL     1       4.172   3.328  19.068  0.00  0.00    +0.000 A 
ATOM     18  C   UNL     1       3.766   4.621  19.410  0.00  0.00    +0.000 A 
ENDBRANCH   8  12
ENDBRANCH   2   5
BRANCH   3  19
ATOM     19  C   UNL     1      -0.484  12.534  19.449  0.00  0.00    +0.000 C 
BRANCH  19  20
ATOM     20  C   UNL     1      -1.891  12.452  20.060  0.00  0.00    +0.000 C 
ATOM     21  O   UNL     1      -2.813  11.928  19.425  0.00  0.00    +0.000 OA
ATOM     22  N   UNL     1      -2.069  12.949  21.348  0.00  0.00    +0.000 N 
ATOM     23  C   UNL     1      -1.007  13.606  22.125  0.00  0.00    +0.000 C 
ATOM     24  C   UNL     1      -1.347  13.841  23.602  0.00  0.00    +0.000 C 
ATOM     25  C   UNL     1      -2.688  14.517  23.714  0.00  0.00    +0.000 A 
ATOM     26  C   UNL     1      -2.958  15.499  24.674  0.00  0.00    +0.000 A 
ATOM     27  C   UNL     1      -4.220  16.089  24.729  0.00  0.00    +0.000 A 
ATOM     28  C   UNL     1      -5.220  15.696  23.839  0.00  0.00    +0.000 A 
ATOM     29  C   UNL     1      -4.964  14.699  22.898  0.00  0.00    +0.000 A 
ATOM     30  C   UNL     1      -3.699  14.104  22.831  0.00  0.00    +0.000 A 
ATOM     31  C   UNL     1      -3.429  12.958  21.888  0.00  0.00    +0.000 C 
ENDBRANCH  19  20
ENDBRANCH   3  19
TORSDOF 4
ENDMDL
MODEL 8
REMARK VINA RESULT:      -8.4      1.581      1.969
REMARK  Name = 
REMARK  4 active torsions:
REMARK  status: ('A' for Active; 'I' for Inactive)
REMARK    1  A    between atoms: C_2  and  C_17
REMARK    2  A    between atoms: N_3  and  C_4
REMARK    3  A    between atoms: C_4  and  C_5
REMARK    4  A    between atoms: C_20  and  C_21
REMARK                            x       y       z     vdW  Elec       q    Type
REMARK                         _______ _______ _______ _____ _____    ______ ____
ROOT
ATOM      1  O   UNL     1      -0.303  10.328  21.385  0.00  0.00    +0.000 OA
ATOM      2  C   UNL     1       0.108  10.486  20.237  0.00  0.00    +0.000 C 
ATOM      3  N   UNL     1      -0.173  11.606  19.497  0.00  0.00    +0.000 N 
ATOM      4  H   UNL     1       0.032  11.633  18.500  0.00  0.00    +0.000 HD
ENDROOT
BRANCH   2   5
ATOM      5  C   UNL     1       0.941   9.432  19.593  0.00  0.00    +0.000 A 
ATOM      6  C   UNL     1       1.315   9.555  18.251  0.00  0.00    +0.000 A 
ATOM      7  C   UNL     1       2.134   8.578  17.655  0.00  0.00    +0.000 A 
ATOM      8  C   UNL     1       2.591   7.463  18.379  0.00  0.00    +0.000 A 
ATOM      9  C   UNL     1       2.191   7.353  19.719  0.00  0.00    +0.000 A 
ATOM     10  C   UNL     1       1.375   8.316  20.306  0.00  0.00    +0.000 A 
ATOM     11  F   UNL     1       1.042   8.133  21.590  0.00  0.00    +0.000 F 
BRANCH   8  12
ATOM     12  C   UNL     1       3.479   6.448  17.765  0.00  0.00    +0.000 A 
ATOM     13  C   UNL     1       3.181   5.075  17.837  0.00  0.00    +0.000 A 
ATOM     14  C   UNL     1       4.021   4.120  17.261  0.00  0.00    +0.000 A 
ATOM     15  C   UNL     1       5.166   4.530  16.598  0.00  0.00    +0.000 A 
ATOM     16  F   UNL     1       5.970   3.614  16.044  0.00  0.00    +0.000 F 
ATOM     17  C   UNL     1       5.491   5.873  16.499  0.00  0.00    +0.000 A 
ATOM     18  C   UNL     1       4.652   6.827  17.081  0.00  0.00    +0.000 A 
ENDBRANCH   8  12
ENDBRANCH   2   5
BRANCH   3  19
ATOM     19  C   UNL     1      -0.973  12.696  20.021  0.00  0.00    +0.000 C 
BRANCH  19  20
ATOM     20  C   UNL     1      -2.467  12.436  19.780  0.00  0.00    +0.000 C 
ATOM     21  O   UNL     1      -2.865  12.104  18.658  0.00  0.00    +0.000 OA
ATOM     22  N   UNL     1      -3.330  12.554  20.866  0.00  0.00    +0.000 N 
ATOM     23  C   UNL     1      -2.901  12.976  22.208  0.00  0.00    +0.000 C 
ATOM     24  C   UNL     1      -3.957  12.787  23.304  0.00  0.00    +0.000 C 
ATOM     25  C   UNL     1      -5.263  13.395  22.865  0.00  0.00    +0.000 A 
ATOM     26  C   UNL     1      -6.114  14.068  23.748  0.00  0.00    +0.000 A 
ATOM     27  C   UNL     1      -7.311  14.610  23.281  0.00  0.00    +0.000 A 
ATOM     28  C   UNL     1      -7.670  14.474  21.940  0.00  0.00    +0.000 A 
ATOM     29  C   UNL     1      -6.837  13.781  21.062  0.00  0.00    +0.000 A 
ATOM     30  C   UNL     1      -5.631  13.237  21.519  0.00  0.00    +0.000 A 
ATOM     31  C   UNL     1      -4.763  12.402  20.612  0.00  0.00    +0.000 C 
ENDBRANCH  19  20
ENDBRANCH   3  19
TORSDOF 4
ENDMDL
MODEL 9
REMARK VINA RESULT:      -8.4      1.787      2.282
REMARK  Name = 
REMARK  4 active torsions:
REMARK  status: ('A' for Active; 'I' for Inactive)
REMARK    1  A    between atoms: C_2  and  C_17
REMARK    2  A    between atoms: N_3  and  C_4
REMARK    3  A    between atoms: C_4  and  C_5
REMARK    4  A    between atoms: C_20  and  C_21
REMARK                            x       y       z     vdW  Elec       q    Type
REMARK                         _______ _______ _______ _____ _____    ______ ____
ROOT
ATOM      1  O   UNL     1       2.064  11.530  18.799  0.00  0.00    +0.000 OA
ATOM      2  C   UNL     1       1.225  10.675  19.079  0.00  0.00    +0.000 C 
ATOM      3  N   UNL     1      -0.053  10.989  19.465  0.00  0.00    +0.000 N 
ATOM      4  H   UNL     1      -0.667  10.276  19.855  0.00  0.00    +0.000 HD
ENDROOT
BRANCH   2   5
ATOM      5  C   UNL     1       1.584   9.231  19.014  0.00  0.00    +0.000 A 
ATOM      6  C   UNL     1       1.943   8.651  17.793  0.00  0.00    +0.000 A 
ATOM      7  C   UNL     1       2.320   7.296  17.739  0.00  0.00    +0.000 A 
ATOM      8  C   UNL     1       2.342   6.495  18.895  0.00  0.00    +0.000 A 
ATOM      9  C   UNL     1       1.964   7.094  20.105  0.00  0.00    +0.000 A 
ATOM     10  C   UNL     1       1.585   8.432  20.156  0.00  0.00    +0.000 A 
ATOM     11  F   UNL     1       1.239   8.923  21.354  0.00  0.00    +0.000 F 
BRANCH   8  12
ATOM     12  C   UNL     1       2.767   5.076  18.849  0.00  0.00    +0.000 A 
ATOM     13  C   UNL     1       2.983   4.338  20.027  0.00  0.00    +0.000 A 
ATOM     14  C   UNL     1       3.388   3.002  19.981  0.00  0.00    +0.000 A 
ATOM     15  C   UNL     1       3.573   2.387  18.754  0.00  0.00    +0.000 A 
ATOM     16  F   UNL     1       3.960   1.107  18.711  0.00  0.00    +0.000 F 
ATOM     17  C   UNL     1       3.365   3.078  17.571  0.00  0.00    +0.000 A 
ATOM     18  C   UNL     1       2.965   4.416  17.619  0.00  0.00    +0.000 A 
ENDBRANCH   8  12
ENDBRANCH   2   5
BRANCH   3  19
ATOM     19  C   UNL     1      -0.513  12.360  19.564  0.00  0.00    +0.000 C 
BRANCH  19  20
ATOM     20  C   UNL     1      -0.786  12.737  21.028  0.00  0.00    +0.000 C 
ATOM     21  O   UNL     1       0.134  12.730  21.852  0.00  0.00    +0.000 OA
ATOM     22  N   UNL     1      -2.082  13.115  21.369  0.00  0.00    +0.000 N 
ATOM     23  C   UNL     1      -3.210  13.108  20.426  0.00  0.00    +0.000 C 
ATOM     24  C   UNL     1      -4.478  13.803  20.941  0.00  0.00    +0.000 C 
ATOM     25  C   UNL     1      -4.827  13.278  22.308  0.00  0.00    +0.000 A 
ATOM     26  C   UNL     1      -6.147  13.069  22.719  0.00  0.00    +0.000 A 
ATOM     27  C   UNL     1      -6.407  12.581  24.000  0.00  0.00    +0.000 A 
ATOM     28  C   UNL     1      -5.356  12.312  24.877  0.00  0.00    +0.000 A 
ATOM     29  C   UNL     1      -4.040  12.545  24.481  0.00  0.00    +0.000 A 
ATOM     30  C   UNL     1      -3.768  13.029  23.197  0.00  0.00    +0.000 A 
ATOM     31  C   UNL     1      -2.360  13.379  22.781  0.00  0.00    +0.000 C 
ENDBRANCH  19  20
ENDBRANCH   3  19
TORSDOF 4
ENDMDL
