MODEL 1
REMARK VINA RESULT:      -9.0      0.000      0.000
REMARK  Name = 
REMARK  6 active torsions:
REMARK  status: ('A' for Active; 'I' for Inactive)
REMARK    1  A    between atoms: C_1  and  N_2
REMARK    2  A    between atoms: C_6  and  C_7
REMARK    3  A    between atoms: C_7  and  C_8
REMARK    4  A    between atoms: C_8  and  C_9
REMARK    5  A    between atoms: C_13  and  N_14
REMARK    6  A    between atoms: C_16  and  C_17
REMARK                            x       y       z     vdW  Elec       q    Type
REMARK                         _______ _______ _______ _____ _____    ______ ____
ROOT
ATOM      1  C   UNL     1       4.580   4.855  17.240  0.00  0.00    +0.000 A 
ATOM      2  C   UNL     1       3.705   3.808  16.902  0.00  0.00    +0.000 A 
ATOM      3  C   UNL     1       2.369   3.795  17.319  0.00  0.00    +0.000 A 
ATOM      4  C   UNL     1       1.864   4.838  18.087  0.00  0.00    +0.000 A 
ATOM      5  C   UNL     1       2.706   5.884  18.461  0.00  0.00    +0.000 A 
ATOM      6  C   UNL     1       4.043   5.882  18.036  0.00  0.00    +0.000 A 
ENDROOT
BRANCH   5   7
ATOM      7  N   UNL     1       2.245   6.985  19.244  0.00  0.00    +0.000 N 
ATOM      8  C   UNL     1       2.133   8.238  18.659  0.00  0.00    +0.000 C 
ATOM      9  C   UNL     1       1.394   9.219  19.199  0.00  0.00    +0.000 C 
ATOM     10  C   UNL     1       0.551   8.898  20.390  0.00  0.00    +0.000 C 
ATOM     11  C   UNL     1       1.298   7.947  21.307  0.00  0.00    +0.000 C 
ATOM     12  C   UNL     1       1.818   6.735  20.560  0.00  0.00    +0.000 C 
ATOM     13  O   UNL     1       1.869   5.644  21.128  0.00  0.00    +0.000 OA
BRANCH   9  14
ATOM     14  C   UNL     1       1.324  10.592  18.615  0.00  0.00    +0.000 C 
ATOM     15  F   UNL     1       1.523  11.564  19.538  0.00  0.00    +0.000 F 
ATOM     16  F   UNL     1       2.273  10.759  17.660  0.00  0.00    +0.000 F 
ATOM     17  F   UNL     1       0.126  10.838  18.030  0.00  0.00    +0.000 F 
ENDBRANCH   9  14
ENDBRANCH   5   7
BRANCH   1  18
ATOM     18  C   UNL     1       6.116   4.885  16.774  0.00  0.00    +0.000 C 
ATOM     19  C   UNL     1       6.823   6.269  16.694  0.00  0.00    +0.000 C 
ATOM     20  O   UNL     1       7.777   5.910  17.715  0.00  0.00    +0.000 OA
ATOM     21  C   UNL     1       7.148   4.630  17.909  0.00  0.00    +0.000 C 
BRANCH  18  22
ATOM     22  C   UNL     1       6.351   3.955  15.569  0.00  0.00    +0.000 C 
BRANCH  22  28
ATOM     23  C   UNL     1       5.761   3.350  12.495  0.00  0.00    +0.000 C 
ATOM     24  N   UNL     1       6.708   4.284  13.045  0.00  0.00    +0.000 N 
ATOM     25  C   UNL     1       7.589   5.018  12.307  0.00  0.00    +0.000 A 
ATOM     26  N   UNL     1       8.307   5.771  13.105  0.00  0.00    +0.000 NA
ATOM     27  N   UNL     1       7.903   5.514  14.391  0.00  0.00    +0.000 NA
ATOM     28  C   UNL     1       6.951   4.602  14.360  0.00  0.00    +0.000 A 
ENDBRANCH  22  28
ENDBRANCH  18  22
ENDBRANCH   1  18
TORSDOF 5
ENDMDL
MODEL 2
REMARK VINA RESULT:      -8.9      2.066      2.704
REMARK  Name = 
REMARK  6 active torsions:
REMARK  status: ('A' for Active; 'I' for Inactive)
REMARK    1  A    between atoms: C_1  and  N_2
REMARK    2  A    between atoms: C_6  and  C_7
REMARK    3  A    between atoms: C_7  and  C_8
REMARK    4  A    between atoms: C_8  and  C_9
REMARK    5  A    between atoms: C_13  and  N_14
REMARK    6  A    between atoms: C_16  and  C_17
REMARK                            x       y       z     vdW  Elec       q    Type
REMARK                         _______ _______ _______ _____ _____    ______ ____
ROOT
ATOM      1  C   UNL     1       5.466   5.441  18.705  0.00  0.00    +0.000 A 
ATOM      2  C   UNL     1       5.047   4.180  19.164  0.00  0.00    +0.000 A 
ATOM      3  C   UNL     1       3.746   3.957  19.633  0.00  0.00    +0.000 A 
ATOM      4  C   UNL     1       2.821   4.995  19.651  0.00  0.00    +0.000 A 
ATOM      5  C   UNL     1       3.205   6.264  19.223  0.00  0.00    +0.000 A 
ATOM      6  C   UNL     1       4.511   6.471  18.757  0.00  0.00    +0.000 A 
ENDROOT
BRANCH   5   7
ATOM      7  N   UNL     1       2.299   7.367  19.213  0.00  0.00    +0.000 N 
ATOM      8  C   UNL     1       1.567   7.659  20.356  0.00  0.00    +0.000 C 
ATOM      9  C   UNL     1       0.980   8.850  20.548  0.00  0.00    +0.000 C 
ATOM     10  C   UNL     1       1.249   9.940  19.562  0.00  0.00    +0.000 C 
ATOM     11  C   UNL     1       1.306   9.363  18.160  0.00  0.00    +0.000 C 
ATOM     12  C   UNL     1       2.258   8.186  18.072  0.00  0.00    +0.000 C 
ATOM     13  O   UNL     1       2.898   7.995  17.038  0.00  0.00    +0.000 OA
BRANCH   9  14
ATOM     14  C   UNL     1       0.132   9.149  21.740  0.00  0.00    +0.000 C 
ATOM     15  F   UNL     1      -0.530  10.326  21.629  0.00  0.00    +0.000 F 
ATOM     16  F   UNL     1      -0.807   8.186  21.918  0.00  0.00    +0.000 F 
ATOM     17  F   UNL     1       0.860   9.208  22.883  0.00  0.00    +0.000 F 
ENDBRANCH   9  14
ENDBRANCH   5   7
BRANCH   1  18
ATOM     18  C   UNL     1       6.954   5.715  18.168  0.00  0.00    +0.000 C 
ATOM     19  C   UNL     1       7.293   7.152  17.674  0.00  0.00    +0.000 C 
ATOM     20  O   UNL     1       8.288   7.338  18.702  0.00  0.00    +0.000 OA
ATOM     21  C   UNL     1       7.996   6.049  19.272  0.00  0.00    +0.000 C 
BRANCH  18  22
ATOM     22  C   UNL     1       7.437   4.575  17.253  0.00  0.00    +0.000 C 
BRANCH  22  28
ATOM     23  C   UNL     1       4.858   3.323  15.857  0.00  0.00    +0.000 C 
ATOM     24  N   UNL     1       5.917   4.076  15.240  0.00  0.00    +0.000 N 
ATOM     25  C   UNL     1       6.026   4.306  13.900  0.00  0.00    +0.000 A 
ATOM     26  N   UNL     1       7.096   5.026  13.665  0.00  0.00    +0.000 NA
ATOM     27  N   UNL     1       7.712   5.258  14.869  0.00  0.00    +0.000 NA
ATOM     28  C   UNL     1       7.013   4.669  15.821  0.00  0.00    +0.000 A 
ENDBRANCH  22  28
ENDBRANCH  18  22
ENDBRANCH   1  18
TORSDOF 5
ENDMDL
MODEL 3
REMARK VINA RESULT:      -8.7      3.809      5.534
REMARK  Name = 
REMARK  6 active torsions:
REMARK  status: ('A' for Active; 'I' for Inactive)
REMARK    1  A    between atoms: C_1  and  N_2
REMARK    2  A    between atoms: C_6  and  C_7
REMARK    3  A    between atoms: C_7  and  C_8
REMARK    4  A    between atoms: C_8  and  C_9
REMARK    5  A    between atoms: C_13  and  N_14
REMARK    6  A    between atoms: C_16  and  C_17
REMARK                            x       y       z     vdW  Elec       q    Type
REMARK                         _______ _______ _______ _____ _____    ______ ____
ROOT
ATOM      1  C   UNL     1       2.187   7.334  19.313  0.00  0.00    +0.000 A 
ATOM      2  C   UNL     1       2.059   7.192  20.706  0.00  0.00    +0.000 A 
ATOM      3  C   UNL     1       1.343   8.111  21.482  0.00  0.00    +0.000 A 
ATOM      4  C   UNL     1       0.727   9.204  20.882  0.00  0.00    +0.000 A 
ATOM      5  C   UNL     1       0.850   9.391  19.507  0.00  0.00    +0.000 A 
ATOM      6  C   UNL     1       1.570   8.461  18.743  0.00  0.00    +0.000 A 
ENDROOT
BRANCH   5   7
ATOM      7  N   UNL     1       0.236  10.490  18.834  0.00  0.00    +0.000 N 
ATOM      8  C   UNL     1      -0.878  10.265  18.036  0.00  0.00    +0.000 C 
ATOM      9  C   UNL     1      -1.708  11.252  17.666  0.00  0.00    +0.000 C 
ATOM     10  C   UNL     1      -1.502  12.610  18.256  0.00  0.00    +0.000 C 
ATOM     11  C   UNL     1      -0.017  12.899  18.374  0.00  0.00    +0.000 C 
ATOM     12  C   UNL     1       0.721  11.784  19.090  0.00  0.00    +0.000 C 
ATOM     13  O   UNL     1       1.687  12.052  19.803  0.00  0.00    +0.000 OA
BRANCH   9  14
ATOM     14  C   UNL     1      -2.867  11.033  16.751  0.00  0.00    +0.000 C 
ATOM     15  F   UNL     1      -2.550  11.231  15.449  0.00  0.00    +0.000 F 
ATOM     16  F   UNL     1      -3.329   9.762  16.854  0.00  0.00    +0.000 F 
ATOM     17  F   UNL     1      -3.906  11.855  17.038  0.00  0.00    +0.000 F 
ENDBRANCH   9  14
ENDBRANCH   5   7
BRANCH   1  18
ATOM     18  C   UNL     1       3.008   6.292  18.409  0.00  0.00    +0.000 C 
ATOM     19  C   UNL     1       4.140   6.854  17.500  0.00  0.00    +0.000 C 
ATOM     20  O   UNL     1       5.157   6.108  18.201  0.00  0.00    +0.000 OA
ATOM     21  C   UNL     1       4.191   5.588  19.132  0.00  0.00    +0.000 C 
BRANCH  18  22
ATOM     22  C   UNL     1       2.067   5.277  17.734  0.00  0.00    +0.000 C 
BRANCH  22  28
ATOM     23  C   UNL     1       0.962   3.643  20.239  0.00  0.00    +0.000 C 
ATOM     24  N   UNL     1       1.847   3.179  19.203  0.00  0.00    +0.000 N 
ATOM     25  C   UNL     1       2.437   1.949  19.181  0.00  0.00    +0.000 A 
ATOM     26  N   UNL     1       3.178   1.838  18.105  0.00  0.00    +0.000 NA
ATOM     27  N   UNL     1       3.089   3.023  17.417  0.00  0.00    +0.000 NA
ATOM     28  C   UNL     1       2.301   3.842  18.088  0.00  0.00    +0.000 A 
ENDBRANCH  22  28
ENDBRANCH  18  22
ENDBRANCH   1  18
TORSDOF 5
ENDMDL
MODEL 4
REMARK VINA RESULT:      -8.6      4.651      9.211
REMARK  Name = 
REMARK  6 active torsions:
REMARK  status: ('A' for Active; 'I' for Inactive)
REMARK    1  A    between atoms: C_1  and  N_2
REMARK    2  A    between atoms: C_6  and  C_7
REMARK    3  A    between atoms: C_7  and  C_8
REMARK    4  A    between atoms: C_8  and  C_9
REMARK    5  A    between atoms: C_13  and  N_14
REMARK    6  A    between atoms: C_16  and  C_17
REMARK                            x       y       z     vdW  Elec       q    Type
REMARK                         _______ _______ _______ _____ _____    ______ ____
ROOT
ATOM      1  C   UNL     1       1.093   9.094  19.967  0.00  0.00    +0.000 A 
ATOM      2  C   UNL     1       1.254   9.724  18.721  0.00  0.00    +0.000 A 
ATOM      3  C   UNL     1       2.003   9.145  17.689  0.00  0.00    +0.000 A 
ATOM      4  C   UNL     1       2.613   7.909  17.875  0.00  0.00    +0.000 A 
ATOM      5  C   UNL     1       2.494   7.264  19.105  0.00  0.00    +0.000 A 
ATOM      6  C   UNL     1       1.741   7.857  20.128  0.00  0.00    +0.000 A 
ENDROOT
BRANCH   5   7
ATOM      7  N   UNL     1       3.093   5.992  19.353  0.00  0.00    +0.000 N 
ATOM      8  C   UNL     1       2.394   5.041  20.084  0.00  0.00    +0.000 C 
ATOM      9  C   UNL     1       2.717   3.739  20.061  0.00  0.00    +0.000 C 
ATOM     10  C   UNL     1       3.771   3.286  19.103  0.00  0.00    +0.000 C 
ATOM     11  C   UNL     1       4.877   4.322  19.028  0.00  0.00    +0.000 C 
ATOM     12  C   UNL     1       4.333   5.711  18.755  0.00  0.00    +0.000 C 
ATOM     13  O   UNL     1       4.991   6.501  18.078  0.00  0.00    +0.000 OA
BRANCH   9  14
ATOM     14  C   UNL     1       2.018   2.718  20.897  0.00  0.00    +0.000 C 
ATOM     15  F   UNL     1       1.681   1.609  20.197  0.00  0.00    +0.000 F 
ATOM     16  F   UNL     1       2.808   2.311  21.922  0.00  0.00    +0.000 F 
ATOM     17  F   UNL     1       0.878   3.204  21.448  0.00  0.00    +0.000 F 
ENDBRANCH   9  14
ENDBRANCH   5   7
BRANCH   1  18
ATOM     18  C   UNL     1       0.242   9.745  21.162  0.00  0.00    +0.000 C 
ATOM     19  C   UNL     1      -0.620   8.793  22.042  0.00  0.00    +0.000 C 
ATOM     20  O   UNL     1       0.136   9.104  23.230  0.00  0.00    +0.000 OA
ATOM     21  C   UNL     1       1.028   9.955  22.487  0.00  0.00    +0.000 C 
BRANCH  18  22
ATOM     22  C   UNL     1      -0.463  11.036  20.707  0.00  0.00    +0.000 C 
BRANCH  22  28
ATOM     23  C   UNL     1      -2.389  11.944  23.080  0.00  0.00    +0.000 C 
ATOM     24  N   UNL     1      -1.198  12.600  22.610  0.00  0.00    +0.000 N 
ATOM     25  C   UNL     1      -0.742  13.801  23.069  0.00  0.00    +0.000 A 
ATOM     26  N   UNL     1       0.364  14.119  22.441  0.00  0.00    +0.000 NA
ATOM     27  N   UNL     1       0.629  13.120  21.539  0.00  0.00    +0.000 NA
ATOM     28  C   UNL     1      -0.323  12.210  21.625  0.00  0.00    +0.000 A 
ENDBRANCH  22  28
ENDBRANCH  18  22
ENDBRANCH   1  18
TORSDOF 5
ENDMDL
MODEL 5
REMARK VINA RESULT:      -8.6      4.051      5.717
REMARK  Name = 
REMARK  6 active torsions:
REMARK  status: ('A' for Active; 'I' for Inactive)
REMARK    1  A    between atoms: C_1  and  N_2
REMARK    2  A    between atoms: C_6  and  C_7
REMARK    3  A    between atoms: C_7  and  C_8
REMARK    4  A    between atoms: C_8  and  C_9
REMARK    5  A    between atoms: C_13  and  N_14
REMARK    6  A    between atoms: C_16  and  C_17
REMARK                            x       y       z     vdW  Elec       q    Type
REMARK                         _______ _______ _______ _____ _____    ______ ____
ROOT
ATOM      1  C   UNL     1       2.228   7.329  19.286  0.00  0.00    +0.000 A 
ATOM      2  C   UNL     1       2.143   7.231  20.686  0.00  0.00    +0.000 A 
ATOM      3  C   UNL     1       1.425   8.158  21.451  0.00  0.00    +0.000 A 
ATOM      4  C   UNL     1       0.763   9.214  20.834  0.00  0.00    +0.000 A 
ATOM      5  C   UNL     1       0.842   9.357  19.450  0.00  0.00    +0.000 A 
ATOM      6  C   UNL     1       1.565   8.420  18.697  0.00  0.00    +0.000 A 
ENDROOT
BRANCH   5   7
ATOM      7  N   UNL     1       0.180  10.416  18.759  0.00  0.00    +0.000 N 
ATOM      8  C   UNL     1      -0.889  10.122  17.923  0.00  0.00    +0.000 C 
ATOM      9  C   UNL     1      -1.769  11.054  17.528  0.00  0.00    +0.000 C 
ATOM     10  C   UNL     1      -1.672  12.420  18.127  0.00  0.00    +0.000 C 
ATOM     11  C   UNL     1      -0.215  12.806  18.296  0.00  0.00    +0.000 C 
ATOM     12  C   UNL     1       0.570  11.738  19.034  0.00  0.00    +0.000 C 
ATOM     13  O   UNL     1       1.492  12.065  19.781  0.00  0.00    +0.000 OA
BRANCH   9  14
ATOM     14  C   UNL     1      -2.879  10.764  16.573  0.00  0.00    +0.000 C 
ATOM     15  F   UNL     1      -3.054   9.437  16.361  0.00  0.00    +0.000 F 
ATOM     16  F   UNL     1      -4.057  11.244  17.043  0.00  0.00    +0.000 F 
ATOM     17  F   UNL     1      -2.674  11.337  15.362  0.00  0.00    +0.000 F 
ENDBRANCH   9  14
ENDBRANCH   5   7
BRANCH   1  18
ATOM     18  C   UNL     1       3.050   6.278  18.394  0.00  0.00    +0.000 C 
ATOM     19  C   UNL     1       4.074   6.843  17.366  0.00  0.00    +0.000 C 
ATOM     20  O   UNL     1       5.186   6.214  18.036  0.00  0.00    +0.000 OA
ATOM     21  C   UNL     1       4.326   5.703  19.070  0.00  0.00    +0.000 C 
BRANCH  18  22
ATOM     22  C   UNL     1       2.133   5.161  17.861  0.00  0.00    +0.000 C 
BRANCH  22  28
ATOM     23  C   UNL     1       3.427   2.248  17.805  0.00  0.00    +0.000 C 
ATOM     24  N   UNL     1       2.436   2.756  18.715  0.00  0.00    +0.000 N 
ATOM     25  C   UNL     1       1.814   2.014  19.676  0.00  0.00    +0.000 A 
ATOM     26  N   UNL     1       0.971   2.770  20.336  0.00  0.00    +0.000 NA
ATOM     27  N   UNL     1       1.026   4.027  19.788  0.00  0.00    +0.000 NA
ATOM     28  C   UNL     1       1.896   4.017  18.796  0.00  0.00    +0.000 A 
ENDBRANCH  22  28
ENDBRANCH  18  22
ENDBRANCH   1  18
TORSDOF 5
ENDMDL
MODEL 6
REMARK VINA RESULT:      -8.5      2.775      4.511
REMARK  Name = 
REMARK  6 active torsions:
REMARK  status: ('A' for Active; 'I' for Inactive)
REMARK    1  A    between atoms: C_1  and  N_2
REMARK    2  A    between atoms: C_6  and  C_7
REMARK    3  A    between atoms: C_7  and  C_8
REMARK    4  A    between atoms: C_8  and  C_9
REMARK    5  A    between atoms: C_13  and  N_14
REMARK    6  A    between atoms: C_16  and  C_17
REMARK                            x       y       z     vdW  Elec       q    Type
REMARK                         _______ _______ _______ _____ _____    ______ ____
ROOT
ATOM      1  C   UNL     1       2.390   7.265  19.196  0.00  0.00    +0.000 A 
ATOM      2  C   UNL     1       2.227   7.097  20.581  0.00  0.00    +0.000 A 
ATOM      3  C   UNL     1       1.426   7.959  21.342  0.00  0.00    +0.000 A 
ATOM      4  C   UNL     1       0.759   9.016  20.733  0.00  0.00    +0.000 A 
ATOM      5  C   UNL     1       0.914   9.227  19.364  0.00  0.00    +0.000 A 
ATOM      6  C   UNL     1       1.719   8.355  18.616  0.00  0.00    +0.000 A 
ENDROOT
BRANCH   5   7
ATOM      7  N   UNL     1       0.251  10.291  18.682  0.00  0.00    +0.000 N 
ATOM      8  C   UNL     1      -0.812  10.002  17.838  0.00  0.00    +0.000 C 
ATOM      9  C   UNL     1      -1.694  10.935  17.449  0.00  0.00    +0.000 C 
ATOM     10  C   UNL     1      -1.607  12.294  18.064  0.00  0.00    +0.000 C 
ATOM     11  C   UNL     1      -0.152  12.684  18.245  0.00  0.00    +0.000 C 
ATOM     12  C   UNL     1       0.634  11.611  18.974  0.00  0.00    +0.000 C 
ATOM     13  O   UNL     1       1.551  11.934  19.730  0.00  0.00    +0.000 OA
BRANCH   9  14
ATOM     14  C   UNL     1      -2.799  10.650  16.485  0.00  0.00    +0.000 C 
ATOM     15  F   UNL     1      -2.363  10.541  15.207  0.00  0.00    +0.000 F 
ATOM     16  F   UNL     1      -3.416   9.482  16.791  0.00  0.00    +0.000 F 
ATOM     17  F   UNL     1      -3.751  11.615  16.500  0.00  0.00    +0.000 F 
ENDBRANCH   9  14
ENDBRANCH   5   7
BRANCH   1  18
ATOM     18  C   UNL     1       3.307   6.290  18.309  0.00  0.00    +0.000 C 
ATOM     19  C   UNL     1       4.280   5.331  19.055  0.00  0.00    +0.000 C 
ATOM     20  O   UNL     1       3.610   4.157  18.550  0.00  0.00    +0.000 OA
ATOM     21  C   UNL     1       2.623   4.961  17.878  0.00  0.00    +0.000 C 
BRANCH  18  22
ATOM     22  C   UNL     1       3.913   7.035  17.105  0.00  0.00    +0.000 C 
BRANCH  22  28
ATOM     23  C   UNL     1       5.015   4.559  15.425  0.00  0.00    +0.000 C 
ATOM     24  N   UNL     1       5.776   5.585  16.088  0.00  0.00    +0.000 N 
ATOM     25  C   UNL     1       7.138   5.608  16.172  0.00  0.00    +0.000 A 
ATOM     26  N   UNL     1       7.518   6.673  16.835  0.00  0.00    +0.000 NA
ATOM     27  N   UNL     1       6.386   7.353  17.210  0.00  0.00    +0.000 NA
ATOM     28  C   UNL     1       5.332   6.689  16.777  0.00  0.00    +0.000 A 
ENDBRANCH  22  28
ENDBRANCH  18  22
ENDBRANCH   1  18
TORSDOF 5
ENDMDL
MODEL 7
REMARK VINA RESULT:      -8.3      4.701      9.111
REMARK  Name = 
REMARK  6 active torsions:
REMARK  status: ('A' for Active; 'I' for Inactive)
REMARK    1  A    between atoms: C_1  and  N_2
REMARK    2  A    between atoms: C_6  and  C_7
REMARK    3  A    between atoms: C_7  and  C_8
REMARK    4  A    between atoms: C_8  and  C_9
REMARK    5  A    between atoms: C_13  and  N_14
REMARK    6  A    between atoms: C_16  and  C_17
REMARK                            x       y       z     vdW  Elec       q    Type
REMARK                         _______ _______ _______ _____ _____    ______ ____
ROOT
ATOM      1  C   UNL     1       1.245   9.089  20.017  0.00  0.00    +0.000 A 
ATOM      2  C   UNL     1       1.206   9.594  18.707  0.00  0.00    +0.000 A 
ATOM      3  C   UNL     1       1.767   8.899  17.628  0.00  0.00    +0.000 A 
ATOM      4  C   UNL     1       2.384   7.670  17.831  0.00  0.00    +0.000 A 
ATOM      5  C   UNL     1       2.461   7.146  19.120  0.00  0.00    +0.000 A 
ATOM      6  C   UNL     1       1.894   7.854  20.190  0.00  0.00    +0.000 A 
ENDROOT
BRANCH   5   7
ATOM      7  N   UNL     1       3.077   5.887  19.391  0.00  0.00    +0.000 N 
ATOM      8  C   UNL     1       2.385   4.934  20.128  0.00  0.00    +0.000 C 
ATOM      9  C   UNL     1       2.728   3.637  20.124  0.00  0.00    +0.000 C 
ATOM     10  C   UNL     1       3.796   3.188  19.182  0.00  0.00    +0.000 C 
ATOM     11  C   UNL     1       4.888   4.239  19.104  0.00  0.00    +0.000 C 
ATOM     12  C   UNL     1       4.326   5.616  18.807  0.00  0.00    +0.000 C 
ATOM     13  O   UNL     1       4.978   6.407  18.126  0.00  0.00    +0.000 OA
BRANCH   9  14
ATOM     14  C   UNL     1       2.036   2.617  20.968  0.00  0.00    +0.000 C 
ATOM     15  F   UNL     1       0.930   3.106  21.578  0.00  0.00    +0.000 F 
ATOM     16  F   UNL     1       1.636   1.561  20.216  0.00  0.00    +0.000 F 
ATOM     17  F   UNL     1       2.843   2.127  21.941  0.00  0.00    +0.000 F 
ENDBRANCH   9  14
ENDBRANCH   5   7
BRANCH   1  18
ATOM     18  C   UNL     1       0.610   9.873  21.266  0.00  0.00    +0.000 C 
ATOM     19  C   UNL     1      -0.650   9.259  21.944  0.00  0.00    +0.000 C 
ATOM     20  O   UNL     1       0.040   9.070  23.197  0.00  0.00    +0.000 OA
ATOM     21  C   UNL     1       1.272   9.562  22.639  0.00  0.00    +0.000 C 
BRANCH  18  22
ATOM     22  C   UNL     1       0.539  11.387  20.997  0.00  0.00    +0.000 C 
BRANCH  22  28
ATOM     23  C   UNL     1      -1.353  12.883  23.082  0.00  0.00    +0.000 C 
ATOM     24  N   UNL     1      -1.643  12.542  21.715  0.00  0.00    +0.000 N 
ATOM     25  C   UNL     1      -2.848  12.738  21.106  0.00  0.00    +0.000 A 
ATOM     26  N   UNL     1      -2.783  12.325  19.864  0.00  0.00    +0.000 NA
ATOM     27  N   UNL     1      -1.519  11.831  19.657  0.00  0.00    +0.000 NA
ATOM     28  C   UNL     1      -0.834  11.943  20.779  0.00  0.00    +0.000 A 
ENDBRANCH  22  28
ENDBRANCH  18  22
ENDBRANCH   1  18
TORSDOF 5
ENDMDL
MODEL 8
REMARK VINA RESULT:      -8.3      4.439      9.188
REMARK  Name = 
REMARK  6 active torsions:
REMARK  status: ('A' for Active; 'I' for Inactive)
REMARK    1  A    between atoms: C_1  and  N_2
REMARK    2  A    between atoms: C_6  and  C_7
REMARK    3  A    between atoms: C_7  and  C_8
REMARK    4  A    between atoms: C_8  and  C_9
REMARK    5  A    between atoms: C_13  and  N_14
REMARK    6  A    between atoms: C_16  and  C_17
REMARK                            x       y       z     vdW  Elec       q    Type
REMARK                         _______ _______ _______ _____ _____    ______ ____
ROOT
ATOM      1  C   UNL     1       1.240   9.267  19.961  0.00  0.00    +0.000 A 
ATOM      2  C   UNL     1       1.372  10.044  18.797  0.00  0.00    +0.000 A 
ATOM      3  C   UNL     1       1.954   9.535  17.629  0.00  0.00    +0.000 A 
ATOM      4  C   UNL     1       2.419   8.225  17.591  0.00  0.00    +0.000 A 
ATOM      5  C   UNL     1       2.325   7.431  18.732  0.00  0.00    +0.000 A 
ATOM      6  C   UNL     1       1.740   7.955  19.894  0.00  0.00    +0.000 A 
ENDROOT
BRANCH   5   7
ATOM      7  N   UNL     1       2.779   6.078  18.753  0.00  0.00    +0.000 N 
ATOM      8  C   UNL     1       1.927   5.079  19.203  0.00  0.00    +0.000 C 
ATOM      9  C   UNL     1       2.133   3.782  18.930  0.00  0.00    +0.000 C 
ATOM     10  C   UNL     1       3.237   3.423  17.988  0.00  0.00    +0.000 C 
ATOM     11  C   UNL     1       4.433   4.325  18.229  0.00  0.00    +0.000 C 
ATOM     12  C   UNL     1       4.045   5.792  18.214  0.00  0.00    +0.000 C 
ATOM     13  O   UNL     1       4.837   6.627  17.778  0.00  0.00    +0.000 OA
BRANCH   9  14
ATOM     14  C   UNL     1       1.263   2.695  19.468  0.00  0.00    +0.000 C 
ATOM     15  F   UNL     1       0.698   3.017  20.656  0.00  0.00    +0.000 F 
ATOM     16  F   UNL     1       0.247   2.421  18.612  0.00  0.00    +0.000 F 
ATOM     17  F   UNL     1       1.946   1.538  19.652  0.00  0.00    +0.000 F 
ENDBRANCH   9  14
ENDBRANCH   5   7
BRANCH   1  18
ATOM     18  C   UNL     1       0.580   9.835  21.309  0.00  0.00    +0.000 C 
ATOM     19  C   UNL     1      -0.634   9.063  21.904  0.00  0.00    +0.000 C 
ATOM     20  O   UNL     1       0.083   8.744  23.114  0.00  0.00    +0.000 OA
ATOM     21  C   UNL     1       1.277   9.378  22.622  0.00  0.00    +0.000 C 
BRANCH  18  22
ATOM     22  C   UNL     1       0.421  11.366  21.251  0.00  0.00    +0.000 C 
BRANCH  22  28
ATOM     23  C   UNL     1      -2.280  12.136  19.742  0.00  0.00    +0.000 C 
ATOM     24  N   UNL     1      -1.982  12.274  21.143  0.00  0.00    +0.000 N 
ATOM     25  C   UNL     1      -2.809  12.856  22.058  0.00  0.00    +0.000 A 
ATOM     26  N   UNL     1      -2.248  12.820  23.242  0.00  0.00    +0.000 NA
ATOM     27  N   UNL     1      -1.021  12.221  23.100  0.00  0.00    +0.000 NA
ATOM     28  C   UNL     1      -0.849  11.907  21.830  0.00  0.00    +0.000 A 
ENDBRANCH  22  28
ENDBRANCH  18  22
ENDBRANCH   1  18
TORSDOF 5
ENDMDL
MODEL 9
REMARK VINA RESULT:      -8.3      1.739      2.979
REMARK  Name = 
REMARK  6 active torsions:
REMARK  status: ('A' for Active; 'I' for Inactive)
REMARK    1  A    between atoms: C_1  and  N_2
REMARK    2  A    between atoms: C_6  and  C_7
REMARK    3  A    between atoms: C_7  and  C_8
REMARK    4  A    between atoms: C_8  and  C_9
REMARK    5  A    between atoms: C_13  and  N_14
REMARK    6  A    between atoms: C_16  and  C_17
REMARK                            x       y       z     vdW  Elec       q    Type
REMARK                         _______ _______ _______ _____ _____    ______ ____
ROOT
ATOM      1  C   UNL     1       4.222   4.485  16.945  0.00  0.00    +0.000 A 
ATOM      2  C   UNL     1       3.337   3.395  16.878  0.00  0.00    +0.000 A 
ATOM      3  C   UNL     1       2.112   3.393  17.556  0.00  0.00    +0.000 A 
ATOM      4  C   UNL     1       1.733   4.490  18.321  0.00  0.00    +0.000 A 
ATOM      5  C   UNL     1       2.593   5.581  18.429  0.00  0.00    +0.000 A 
ATOM      6  C   UNL     1       3.817   5.567  17.745  0.00  0.00    +0.000 A 
ENDROOT
BRANCH   5   7
ATOM      7  N   UNL     1       2.257   6.738  19.195  0.00  0.00    +0.000 N 
ATOM      8  C   UNL     1       2.124   7.963  18.556  0.00  0.00    +0.000 C 
ATOM      9  C   UNL     1       1.482   8.999  19.117  0.00  0.00    +0.000 C 
ATOM     10  C   UNL     1       0.763   8.773  20.407  0.00  0.00    +0.000 C 
ATOM     11  C   UNL     1       1.572   7.842  21.291  0.00  0.00    +0.000 C 
ATOM     12  C   UNL     1       1.967   6.573  20.560  0.00  0.00    +0.000 C 
ATOM     13  O   UNL     1       2.043   5.511  21.179  0.00  0.00    +0.000 OA
BRANCH   9  14
ATOM     14  C   UNL     1       1.395  10.342  18.470  0.00  0.00    +0.000 C 
ATOM     15  F   UNL     1       0.186  10.574  17.906  0.00  0.00    +0.000 F 
ATOM     16  F   UNL     1       1.602  11.329  19.377  0.00  0.00    +0.000 F 
ATOM     17  F   UNL     1       2.325  10.500  17.496  0.00  0.00    +0.000 F 
ENDBRANCH   9  14
ENDBRANCH   5   7
BRANCH   1  18
ATOM     18  C   UNL     1       5.632   4.502  16.179  0.00  0.00    +0.000 C 
ATOM     19  C   UNL     1       5.816   3.534  14.974  0.00  0.00    +0.000 C 
ATOM     20  O   UNL     1       5.990   4.624  14.045  0.00  0.00    +0.000 OA
ATOM     21  C   UNL     1       5.767   5.596  15.082  0.00  0.00    +0.000 C 
BRANCH  18  22
ATOM     22  C   UNL     1       6.808   4.544  17.172  0.00  0.00    +0.000 C 
BRANCH  22  28
ATOM     23  C   UNL     1       8.012   5.689  19.894  0.00  0.00    +0.000 C 
ATOM     24  N   UNL     1       7.851   6.378  18.641  0.00  0.00    +0.000 N 
ATOM     25  C   UNL     1       8.121   7.700  18.443  0.00  0.00    +0.000 A 
ATOM     26  N   UNL     1       7.874   8.016  17.195  0.00  0.00    +0.000 NA
ATOM     27  N   UNL     1       7.416   6.887  16.565  0.00  0.00    +0.000 NA
ATOM     28  C   UNL     1       7.382   5.899  17.440  0.00  0.00    +0.000 A 
ENDBRANCH  22  28
ENDBRANCH  18  22
ENDBRANCH   1  18
TORSDOF 5
ENDMDL
