MODEL 1
REMARK VINA RESULT:      -8.8      0.000      0.000
REMARK  Name = 
REMARK  7 active torsions:
REMARK  status: ('A' for Active; 'I' for Inactive)
REMARK    1  A    between atoms: C_1  and  C_2
REMARK    2  A    between atoms: C_4  and  C_5
REMARK    3  A    between atoms: C_9  and  N_10
REMARK    4  A    between atoms: C_11  and  C_13
REMARK    5  A    between atoms: C_13  and  C_14
REMARK    6  A    between atoms: C_13  and  C_15
REMARK    7  A    between atoms: C_13  and  C_16
REMARK                            x       y       z     vdW  Elec       q    Type
REMARK                         _______ _______ _______ _____ _____    ______ ____
ROOT
ATOM      1  N   UNL     1       3.011   6.168  18.867  0.00  0.00    +0.000 N 
ATOM      2  C   UNL     1       2.525   5.023  18.248  0.00  0.00    +0.000 C 
ATOM      3  O   UNL     1       1.427   4.961  17.691  0.00  0.00    +0.000 OA
ATOM      4  H   UNL     1       3.972   6.174  19.178  0.00  0.00    +0.000 HD
ENDROOT
BRANCH   1   9
ATOM      5  C   UNL     1       1.024   9.058  20.121  0.00  0.00    +0.000 A 
ATOM      6  C   UNL     1       1.160   9.961  19.056  0.00  0.00    +0.000 A 
ATOM      7  C   UNL     1       1.864   9.603  17.912  0.00  0.00    +0.000 A 
ATOM      8  C   UNL     1       2.458   8.345  17.828  0.00  0.00    +0.000 A 
ATOM      9  C   UNL     1       2.360   7.430  18.879  0.00  0.00    +0.000 A 
ATOM     10  C   UNL     1       1.607   7.781  20.012  0.00  0.00    +0.000 A 
BRANCH   5  14
ATOM     11  C   UNL     1      -1.710  11.771  23.191  0.00  0.00    +0.000 C 
ATOM     12  C   UNL     1      -0.858  10.722  22.591  0.00  0.00    +0.000 A 
ATOM     13  N   UNL     1      -0.456  10.625  21.347  0.00  0.00    +0.000 NA
ATOM     14  C   UNL     1       0.325   9.487  21.329  0.00  0.00    +0.000 A 
ATOM     15  N   UNL     1       0.404   8.874  22.521  0.00  0.00    +0.000 NA
ATOM     16  N   UNL     1      -0.344   9.673  23.298  0.00  0.00    +0.000 N 
ATOM     17  H   UNL     1      -0.453   9.457  24.281  0.00  0.00    +0.000 HD
ENDBRANCH   5  14
ENDBRANCH   1   9
BRANCH   2  18
ATOM     18  C   UNL     1       3.434   3.754  18.300  0.00  0.00    +0.000 C 
ATOM     19  C   UNL     1       3.675   3.439  19.805  0.00  0.00    +0.000 C 
ATOM     20  C   UNL     1       2.716   2.509  17.733  0.00  0.00    +0.000 C 
BRANCH  18  21
ATOM     21  C   UNL     1       4.805   4.030  17.650  0.00  0.00    +0.000 A 
ATOM     22  C   UNL     1       4.947   3.967  16.246  0.00  0.00    +0.000 A 
ATOM     23  C   UNL     1       6.147   4.314  15.614  0.00  0.00    +0.000 A 
ATOM     24  C   UNL     1       7.238   4.724  16.371  0.00  0.00    +0.000 A 
ATOM     25  C   UNL     1       7.123   4.767  17.752  0.00  0.00    +0.000 A 
ATOM     26  F   UNL     1       8.168   5.166  18.489  0.00  0.00    +0.000 F 
ATOM     27  C   UNL     1       5.931   4.424  18.391  0.00  0.00    +0.000 A 
ENDBRANCH  18  21
ENDBRANCH   2  18
TORSDOF 4
ENDMDL
MODEL 2
REMARK VINA RESULT:      -8.8      0.955      1.353
REMARK  Name = 
REMARK  7 active torsions:
REMARK  status: ('A' for Active; 'I' for Inactive)
REMARK    1  A    between atoms: C_1  and  C_2
REMARK    2  A    between atoms: C_4  and  C_5
REMARK    3  A    between atoms: C_9  and  N_10
REMARK    4  A    between atoms: C_11  and  C_13
REMARK    5  A    between atoms: C_13  and  C_14
REMARK    6  A    between atoms: C_13  and  C_15
REMARK    7  A    between atoms: C_13  and  C_16
REMARK                            x       y       z     vdW  Elec       q    Type
REMARK                         _______ _______ _______ _____ _____    ______ ____
ROOT
ATOM      1  N   UNL     1       3.034   6.267  18.853  0.00  0.00    +0.000 N 
ATOM      2  C   UNL     1       2.573   5.110  18.237  0.00  0.00    +0.000 C 
ATOM      3  O   UNL     1       1.473   5.021  17.687  0.00  0.00    +0.000 OA
ATOM      4  H   UNL     1       3.996   6.297  19.158  0.00  0.00    +0.000 HD
ENDROOT
BRANCH   1   9
ATOM      5  C   UNL     1       0.980   9.102  20.124  0.00  0.00    +0.000 A 
ATOM      6  C   UNL     1       1.088  10.011  19.061  0.00  0.00    +0.000 A 
ATOM      7  C   UNL     1       1.796   9.674  17.913  0.00  0.00    +0.000 A 
ATOM      8  C   UNL     1       2.421   8.431  17.823  0.00  0.00    +0.000 A 
ATOM      9  C   UNL     1       2.352   7.512  18.873  0.00  0.00    +0.000 A 
ATOM     10  C   UNL     1       1.595   7.840  20.009  0.00  0.00    +0.000 A 
BRANCH   5  14
ATOM     11  C   UNL     1      -1.718  11.789  23.249  0.00  0.00    +0.000 C 
ATOM     12  C   UNL     1      -0.889  10.736  22.625  0.00  0.00    +0.000 A 
ATOM     13  N   UNL     1      -0.470  10.670  21.384  0.00  0.00    +0.000 NA
ATOM     14  C   UNL     1       0.276   9.510  21.337  0.00  0.00    +0.000 A 
ATOM     15  N   UNL     1       0.319   8.854  22.508  0.00  0.00    +0.000 NA
ATOM     16  N   UNL     1      -0.417   9.648  23.301  0.00  0.00    +0.000 N 
ATOM     17  H   UNL     1      -0.547   9.402  24.275  0.00  0.00    +0.000 HD
ENDBRANCH   5  14
ENDBRANCH   1   9
BRANCH   2  18
ATOM     18  C   UNL     1       3.514   3.865  18.281  0.00  0.00    +0.000 C 
ATOM     19  C   UNL     1       3.830   3.597  19.780  0.00  0.00    +0.000 C 
ATOM     20  C   UNL     1       2.802   2.589  17.780  0.00  0.00    +0.000 C 
BRANCH  18  21
ATOM     21  C   UNL     1       4.847   4.155  17.562  0.00  0.00    +0.000 A 
ATOM     22  C   UNL     1       5.981   4.549  18.306  0.00  0.00    +0.000 A 
ATOM     23  C   UNL     1       7.233   4.718  17.702  0.00  0.00    +0.000 A 
ATOM     24  C   UNL     1       7.380   4.506  16.337  0.00  0.00    +0.000 A 
ATOM     25  C   UNL     1       6.271   4.144  15.587  0.00  0.00    +0.000 A 
ATOM     26  F   UNL     1       6.405   3.934  14.271  0.00  0.00    +0.000 F 
ATOM     27  C   UNL     1       5.020   3.972  16.180  0.00  0.00    +0.000 A 
ENDBRANCH  18  21
ENDBRANCH   2  18
TORSDOF 4
ENDMDL
MODEL 3
REMARK VINA RESULT:      -8.1      3.042      4.816
REMARK  Name = 
REMARK  7 active torsions:
REMARK  status: ('A' for Active; 'I' for Inactive)
REMARK    1  A    between atoms: C_1  and  C_2
REMARK    2  A    between atoms: C_4  and  C_5
REMARK    3  A    between atoms: C_9  and  N_10
REMARK    4  A    between atoms: C_11  and  C_13
REMARK    5  A    between atoms: C_13  and  C_14
REMARK    6  A    between atoms: C_13  and  C_15
REMARK    7  A    between atoms: C_13  and  C_16
REMARK                            x       y       z     vdW  Elec       q    Type
REMARK                         _______ _______ _______ _____ _____    ______ ____
ROOT
ATOM      1  N   UNL     1       2.104   7.184  19.976  0.00  0.00    +0.000 N 
ATOM      2  C   UNL     1       2.947   6.983  18.890  0.00  0.00    +0.000 C 
ATOM      3  O   UNL     1       3.141   7.826  18.010  0.00  0.00    +0.000 OA
ATOM      4  H   UNL     1       2.108   6.500  20.719  0.00  0.00    +0.000 HD
ENDROOT
BRANCH   1   9
ATOM      5  C   UNL     1      -0.066  10.171  19.483  0.00  0.00    +0.000 A 
ATOM      6  C   UNL     1      -0.088  10.705  20.780  0.00  0.00    +0.000 A 
ATOM      7  C   UNL     1       0.644  10.110  21.800  0.00  0.00    +0.000 A 
ATOM      8  C   UNL     1       1.391   8.962  21.542  0.00  0.00    +0.000 A 
ATOM      9  C   UNL     1       1.418   8.393  20.267  0.00  0.00    +0.000 A 
ATOM     10  C   UNL     1       0.714   9.026  19.229  0.00  0.00    +0.000 A 
BRANCH   5  14
ATOM     11  C   UNL     1      -2.940  10.667  15.514  0.00  0.00    +0.000 C 
ATOM     12  C   UNL     1      -2.118  10.915  16.717  0.00  0.00    +0.000 A 
ATOM     13  N   UNL     1      -1.547  10.031  17.499  0.00  0.00    +0.000 NA
ATOM     14  C   UNL     1      -0.890  10.788  18.448  0.00  0.00    +0.000 A 
ATOM     15  N   UNL     1      -1.051  12.112  18.281  0.00  0.00    +0.000 NA
ATOM     16  N   UNL     1      -1.823  12.164  17.184  0.00  0.00    +0.000 N 
ATOM     17  H   UNL     1      -2.097  13.063  16.807  0.00  0.00    +0.000 HD
ENDBRANCH   5  14
ENDBRANCH   1   9
BRANCH   2  18
ATOM     18  C   UNL     1       3.655   5.594  18.794  0.00  0.00    +0.000 C 
ATOM     19  C   UNL     1       3.794   5.268  17.279  0.00  0.00    +0.000 C 
ATOM     20  C   UNL     1       5.101   5.648  19.335  0.00  0.00    +0.000 C 
BRANCH  18  21
ATOM     21  C   UNL     1       2.792   4.490  19.437  0.00  0.00    +0.000 A 
ATOM     22  C   UNL     1       2.859   4.261  20.829  0.00  0.00    +0.000 A 
ATOM     23  C   UNL     1       2.015   3.341  21.463  0.00  0.00    +0.000 A 
ATOM     24  C   UNL     1       1.088   2.620  20.718  0.00  0.00    +0.000 A 
ATOM     25  C   UNL     1       1.027   2.815  19.347  0.00  0.00    +0.000 A 
ATOM     26  F   UNL     1       0.135   2.127  18.623  0.00  0.00    +0.000 F 
ATOM     27  C   UNL     1       1.864   3.730  18.706  0.00  0.00    +0.000 A 
ENDBRANCH  18  21
ENDBRANCH   2  18
TORSDOF 4
ENDMDL
MODEL 4
REMARK VINA RESULT:      -8.1      2.378      3.301
REMARK  Name = 
REMARK  7 active torsions:
REMARK  status: ('A' for Active; 'I' for Inactive)
REMARK    1  A    between atoms: C_1  and  C_2
REMARK    2  A    between atoms: C_4  and  C_5
REMARK    3  A    between atoms: C_9  and  N_10
REMARK    4  A    between atoms: C_11  and  C_13
REMARK    5  A    between atoms: C_13  and  C_14
REMARK    6  A    between atoms: C_13  and  C_15
REMARK    7  A    between atoms: C_13  and  C_16
REMARK                            x       y       z     vdW  Elec       q    Type
REMARK                         _______ _______ _______ _____ _____    ______ ____
ROOT
ATOM      1  N   UNL     1       2.510   7.048  19.087  0.00  0.00    +0.000 N 
ATOM      2  C   UNL     1       2.513   5.735  19.542  0.00  0.00    +0.000 C 
ATOM      3  O   UNL     1       1.880   5.352  20.529  0.00  0.00    +0.000 OA
ATOM      4  H   UNL     1       2.942   7.248  18.197  0.00  0.00    +0.000 HD
ENDROOT
BRANCH   1   9
ATOM      5  C   UNL     1       0.119   9.899  19.258  0.00  0.00    +0.000 A 
ATOM      6  C   UNL     1       0.056  10.116  20.642  0.00  0.00    +0.000 A 
ATOM      7  C   UNL     1       0.832   9.358  21.511  0.00  0.00    +0.000 A 
ATOM      8  C   UNL     1       1.664   8.359  21.008  0.00  0.00    +0.000 A 
ATOM      9  C   UNL     1       1.733   8.103  19.636  0.00  0.00    +0.000 A 
ATOM     10  C   UNL     1       0.983   8.904  18.761  0.00  0.00    +0.000 A 
BRANCH   5  14
ATOM     11  C   UNL     1      -3.127  10.995  15.720  0.00  0.00    +0.000 C 
ATOM     12  C   UNL     1      -2.150  11.063  16.826  0.00  0.00    +0.000 A 
ATOM     13  N   UNL     1      -1.588  10.067  17.467  0.00  0.00    +0.000 NA
ATOM     14  C   UNL     1      -0.750  10.676  18.378  0.00  0.00    +0.000 A 
ATOM     15  N   UNL     1      -0.790  12.018  18.327  0.00  0.00    +0.000 NA
ATOM     16  N   UNL     1      -1.673  12.234  17.340  0.00  0.00    +0.000 N 
ATOM     17  H   UNL     1      -1.894  13.184  17.065  0.00  0.00    +0.000 HD
ENDBRANCH   5  14
ENDBRANCH   1   9
BRANCH   2  18
ATOM     18  C   UNL     1       3.394   4.717  18.751  0.00  0.00    +0.000 C 
ATOM     19  C   UNL     1       3.649   3.514  19.703  0.00  0.00    +0.000 C 
ATOM     20  C   UNL     1       2.642   4.127  17.539  0.00  0.00    +0.000 C 
BRANCH  18  21
ATOM     21  C   UNL     1       4.762   5.333  18.393  0.00  0.00    +0.000 A 
ATOM     22  C   UNL     1       4.887   6.167  17.260  0.00  0.00    +0.000 A 
ATOM     23  C   UNL     1       6.086   6.828  16.964  0.00  0.00    +0.000 A 
ATOM     24  C   UNL     1       7.192   6.664  17.790  0.00  0.00    +0.000 A 
ATOM     25  C   UNL     1       7.093   5.829  18.892  0.00  0.00    +0.000 A 
ATOM     26  F   UNL     1       8.153   5.669  19.694  0.00  0.00    +0.000 F 
ATOM     27  C   UNL     1       5.903   5.166  19.195  0.00  0.00    +0.000 A 
ENDBRANCH  18  21
ENDBRANCH   2  18
TORSDOF 4
ENDMDL
MODEL 5
REMARK VINA RESULT:      -8.0      3.533      8.443
REMARK  Name = 
REMARK  7 active torsions:
REMARK  status: ('A' for Active; 'I' for Inactive)
REMARK    1  A    between atoms: C_1  and  C_2
REMARK    2  A    between atoms: C_4  and  C_5
REMARK    3  A    between atoms: C_9  and  N_10
REMARK    4  A    between atoms: C_11  and  C_13
REMARK    5  A    between atoms: C_13  and  C_14
REMARK    6  A    between atoms: C_13  and  C_15
REMARK    7  A    between atoms: C_13  and  C_16
REMARK                            x       y       z     vdW  Elec       q    Type
REMARK                         _______ _______ _______ _____ _____    ______ ____
ROOT
ATOM      1  N   UNL     1       1.637   8.282  19.996  0.00  0.00    +0.000 N 
ATOM      2  C   UNL     1       1.402   9.058  18.867  0.00  0.00    +0.000 C 
ATOM      3  O   UNL     1       1.619   8.673  17.716  0.00  0.00    +0.000 OA
ATOM      4  H   UNL     1       1.304   8.621  20.888  0.00  0.00    +0.000 HD
ENDROOT
BRANCH   1   9
ATOM      5  C   UNL     1       3.760   5.312  19.258  0.00  0.00    +0.000 A 
ATOM      6  C   UNL     1       3.116   4.325  20.018  0.00  0.00    +0.000 A 
ATOM      7  C   UNL     1       1.962   4.625  20.733  0.00  0.00    +0.000 A 
ATOM      8  C   UNL     1       1.451   5.922  20.714  0.00  0.00    +0.000 A 
ATOM      9  C   UNL     1       2.080   6.934  19.985  0.00  0.00    +0.000 A 
ATOM     10  C   UNL     1       3.218   6.612  19.226  0.00  0.00    +0.000 A 
BRANCH   5  14
ATOM     11  C   UNL     1       6.984   4.549  15.613  0.00  0.00    +0.000 C 
ATOM     12  C   UNL     1       6.325   4.661  16.932  0.00  0.00    +0.000 A 
ATOM     13  N   UNL     1       5.121   5.110  17.195  0.00  0.00    +0.000 NA
ATOM     14  C   UNL     1       5.000   4.976  18.564  0.00  0.00    +0.000 A 
ATOM     15  N   UNL     1       6.097   4.471  19.152  0.00  0.00    +0.000 NA
ATOM     16  N   UNL     1       6.912   4.277  18.102  0.00  0.00    +0.000 N 
ATOM     17  H   UNL     1       7.831   3.879  18.250  0.00  0.00    +0.000 HD
ENDBRANCH   5  14
ENDBRANCH   1   9
BRANCH   2  18
ATOM     18  C   UNL     1       0.853  10.501  19.104  0.00  0.00    +0.000 C 
ATOM     19  C   UNL     1       0.892  10.746  20.640  0.00  0.00    +0.000 C 
ATOM     20  C   UNL     1       1.781  11.575  18.496  0.00  0.00    +0.000 C 
BRANCH  18  21
ATOM     21  C   UNL     1      -0.615  10.616  18.645  0.00  0.00    +0.000 A 
ATOM     22  C   UNL     1      -1.485  11.527  19.282  0.00  0.00    +0.000 A 
ATOM     23  C   UNL     1      -2.793  11.734  18.825  0.00  0.00    +0.000 A 
ATOM     24  C   UNL     1      -3.264  11.029  17.724  0.00  0.00    +0.000 A 
ATOM     25  C   UNL     1      -2.430  10.112  17.103  0.00  0.00    +0.000 A 
ATOM     26  F   UNL     1      -2.875   9.431  16.039  0.00  0.00    +0.000 F 
ATOM     27  C   UNL     1      -1.126   9.899  17.551  0.00  0.00    +0.000 A 
ENDBRANCH  18  21
ENDBRANCH   2  18
TORSDOF 4
ENDMDL
MODEL 6
REMARK VINA RESULT:      -8.0      2.953      4.629
REMARK  Name = 
REMARK  7 active torsions:
REMARK  status: ('A' for Active; 'I' for Inactive)
REMARK    1  A    between atoms: C_1  and  C_2
REMARK    2  A    between atoms: C_4  and  C_5
REMARK    3  A    between atoms: C_9  and  N_10
REMARK    4  A    between atoms: C_11  and  C_13
REMARK    5  A    between atoms: C_13  and  C_14
REMARK    6  A    between atoms: C_13  and  C_15
REMARK    7  A    between atoms: C_13  and  C_16
REMARK                            x       y       z     vdW  Elec       q    Type
REMARK                         _______ _______ _______ _____ _____    ______ ____
ROOT
ATOM      1  N   UNL     1       2.027   7.185  19.877  0.00  0.00    +0.000 N 
ATOM      2  C   UNL     1       2.908   7.000  18.819  0.00  0.00    +0.000 C 
ATOM      3  O   UNL     1       3.156   7.866  17.977  0.00  0.00    +0.000 OA
ATOM      4  H   UNL     1       1.985   6.476  20.596  0.00  0.00    +0.000 HD
ENDROOT
BRANCH   1   9
ATOM      5  C   UNL     1      -0.121  10.194  19.425  0.00  0.00    +0.000 A 
ATOM      6  C   UNL     1      -0.120  10.723  20.724  0.00  0.00    +0.000 A 
ATOM      7  C   UNL     1       0.620  10.118  21.732  0.00  0.00    +0.000 A 
ATOM      8  C   UNL     1       1.353   8.964  21.459  0.00  0.00    +0.000 A 
ATOM      9  C   UNL     1       1.356   8.398  20.182  0.00  0.00    +0.000 A 
ATOM     10  C   UNL     1       0.644   9.042  19.156  0.00  0.00    +0.000 A 
BRANCH   5  14
ATOM     11  C   UNL     1      -2.993  10.741  15.461  0.00  0.00    +0.000 C 
ATOM     12  C   UNL     1      -2.179  10.972  16.673  0.00  0.00    +0.000 A 
ATOM     13  N   UNL     1      -1.594  10.079  17.433  0.00  0.00    +0.000 NA
ATOM     14  C   UNL     1      -0.954  10.823  18.404  0.00  0.00    +0.000 A 
ATOM     15  N   UNL     1      -1.139  12.147  18.271  0.00  0.00    +0.000 NA
ATOM     16  N   UNL     1      -1.908  12.213  17.173  0.00  0.00    +0.000 N 
ATOM     17  H   UNL     1      -2.199  13.117  16.820  0.00  0.00    +0.000 HD
ENDBRANCH   5  14
ENDBRANCH   1   9
BRANCH   2  18
ATOM     18  C   UNL     1       3.588   5.598  18.704  0.00  0.00    +0.000 C 
ATOM     19  C   UNL     1       3.960   5.405  17.206  0.00  0.00    +0.000 C 
ATOM     20  C   UNL     1       4.929   5.546  19.468  0.00  0.00    +0.000 C 
BRANCH  18  21
ATOM     21  C   UNL     1       2.606   4.475  19.095  0.00  0.00    +0.000 A 
ATOM     22  C   UNL     1       1.784   3.880  18.113  0.00  0.00    +0.000 A 
ATOM     23  C   UNL     1       0.959   2.789  18.409  0.00  0.00    +0.000 A 
ATOM     24  C   UNL     1       0.929   2.271  19.698  0.00  0.00    +0.000 A 
ATOM     25  C   UNL     1       1.710   2.859  20.680  0.00  0.00    +0.000 A 
ATOM     26  F   UNL     1       1.690   2.363  21.924  0.00  0.00    +0.000 F 
ATOM     27  C   UNL     1       2.536   3.947  20.395  0.00  0.00    +0.000 A 
ENDBRANCH  18  21
ENDBRANCH   2  18
TORSDOF 4
ENDMDL
MODEL 7
REMARK VINA RESULT:      -7.9      3.121      8.181
REMARK  Name = 
REMARK  7 active torsions:
REMARK  status: ('A' for Active; 'I' for Inactive)
REMARK    1  A    between atoms: C_1  and  C_2
REMARK    2  A    between atoms: C_4  and  C_5
REMARK    3  A    between atoms: C_9  and  N_10
REMARK    4  A    between atoms: C_11  and  C_13
REMARK    5  A    between atoms: C_13  and  C_14
REMARK    6  A    between atoms: C_13  and  C_15
REMARK    7  A    between atoms: C_13  and  C_16
REMARK                            x       y       z     vdW  Elec       q    Type
REMARK                         _______ _______ _______ _____ _____    ______ ____
ROOT
ATOM      1  N   UNL     1       1.454   6.611  21.047  0.00  0.00    +0.000 N 
ATOM      2  C   UNL     1       1.458   7.867  20.453  0.00  0.00    +0.000 C 
ATOM      3  O   UNL     1       1.980   8.104  19.361  0.00  0.00    +0.000 OA
ATOM      4  H   UNL     1       0.889   6.474  21.873  0.00  0.00    +0.000 HD
ENDROOT
BRANCH   1   9
ATOM      5  C   UNL     1       3.762   4.362  19.180  0.00  0.00    +0.000 A 
ATOM      6  C   UNL     1       3.151   3.116  19.387  0.00  0.00    +0.000 A 
ATOM      7  C   UNL     1       1.961   3.024  20.099  0.00  0.00    +0.000 A 
ATOM      8  C   UNL     1       1.378   4.174  20.631  0.00  0.00    +0.000 A 
ATOM      9  C   UNL     1       1.973   5.426  20.462  0.00  0.00    +0.000 A 
ATOM     10  C   UNL     1       3.149   5.518  19.701  0.00  0.00    +0.000 A 
BRANCH   5  14
ATOM     11  C   UNL     1       7.036   4.590  15.508  0.00  0.00    +0.000 C 
ATOM     12  C   UNL     1       6.385   4.506  16.832  0.00  0.00    +0.000 A 
ATOM     13  N   UNL     1       5.104   4.567  17.105  0.00  0.00    +0.000 NA
ATOM     14  C   UNL     1       5.040   4.416  18.475  0.00  0.00    +0.000 A 
ATOM     15  N   UNL     1       6.244   4.278  19.056  0.00  0.00    +0.000 NA
ATOM     16  N   UNL     1       7.071   4.334  17.999  0.00  0.00    +0.000 N 
ATOM     17  H   UNL     1       8.069   4.239  18.140  0.00  0.00    +0.000 HD
ENDBRANCH   5  14
ENDBRANCH   1   9
BRANCH   2  18
ATOM     18  C   UNL     1       0.776   9.026  21.247  0.00  0.00    +0.000 C 
ATOM     19  C   UNL     1      -0.553   8.453  21.818  0.00  0.00    +0.000 C 
ATOM     20  C   UNL     1       1.606   9.442  22.482  0.00  0.00    +0.000 C 
BRANCH  18  21
ATOM     21  C   UNL     1       0.421  10.201  20.313  0.00  0.00    +0.000 A 
ATOM     22  C   UNL     1      -0.723  10.127  19.488  0.00  0.00    +0.000 A 
ATOM     23  C   UNL     1      -1.136  11.213  18.707  0.00  0.00    +0.000 A 
ATOM     24  C   UNL     1      -0.409  12.398  18.725  0.00  0.00    +0.000 A 
ATOM     25  C   UNL     1       0.731  12.478  19.510  0.00  0.00    +0.000 A 
ATOM     26  F   UNL     1       1.434  13.617  19.537  0.00  0.00    +0.000 F 
ATOM     27  C   UNL     1       1.150  11.401  20.293  0.00  0.00    +0.000 A 
ENDBRANCH  18  21
ENDBRANCH   2  18
TORSDOF 4
ENDMDL
MODEL 8
REMARK VINA RESULT:      -7.9      3.640      8.656
REMARK  Name = 
REMARK  7 active torsions:
REMARK  status: ('A' for Active; 'I' for Inactive)
REMARK    1  A    between atoms: C_1  and  C_2
REMARK    2  A    between atoms: C_4  and  C_5
REMARK    3  A    between atoms: C_9  and  N_10
REMARK    4  A    between atoms: C_11  and  C_13
REMARK    5  A    between atoms: C_13  and  C_14
REMARK    6  A    between atoms: C_13  and  C_15
REMARK    7  A    between atoms: C_13  and  C_16
REMARK                            x       y       z     vdW  Elec       q    Type
REMARK                         _______ _______ _______ _____ _____    ______ ____
ROOT
ATOM      1  N   UNL     1       1.696   8.477  19.528  0.00  0.00    +0.000 N 
ATOM      2  C   UNL     1       1.525   9.490  18.592  0.00  0.00    +0.000 C 
ATOM      3  O   UNL     1       1.947   9.429  17.435  0.00  0.00    +0.000 OA
ATOM      4  H   UNL     1       1.203   8.549  20.407  0.00  0.00    +0.000 HD
ENDROOT
BRANCH   1   9
ATOM      5  C   UNL     1       3.789   5.886  17.862  0.00  0.00    +0.000 A 
ATOM      6  C   UNL     1       3.654   4.814  18.757  0.00  0.00    +0.000 A 
ATOM      7  C   UNL     1       2.842   4.930  19.879  0.00  0.00    +0.000 A 
ATOM      8  C   UNL     1       2.171   6.125  20.131  0.00  0.00    +0.000 A 
ATOM      9  C   UNL     1       2.301   7.219  19.271  0.00  0.00    +0.000 A 
ATOM     10  C   UNL     1       3.085   7.079  18.114  0.00  0.00    +0.000 A 
BRANCH   5  14
ATOM     11  C   UNL     1       6.266   3.870  14.112  0.00  0.00    +0.000 C 
ATOM     12  C   UNL     1       5.729   4.799  15.129  0.00  0.00    +0.000 A 
ATOM     13  N   UNL     1       4.792   4.567  16.016  0.00  0.00    +0.000 NA
ATOM     14  C   UNL     1       4.693   5.749  16.723  0.00  0.00    +0.000 A 
ATOM     15  N   UNL     1       5.531   6.704  16.289  0.00  0.00    +0.000 NA
ATOM     16  N   UNL     1       6.174   6.079  15.289  0.00  0.00    +0.000 N 
ATOM     17  H   UNL     1       6.896   6.568  14.776  0.00  0.00    +0.000 HD
ENDBRANCH   5  14
ENDBRANCH   1   9
BRANCH   2  18
ATOM     18  C   UNL     1       0.774  10.773  19.070  0.00  0.00    +0.000 C 
ATOM     19  C   UNL     1       0.781  10.741  20.625  0.00  0.00    +0.000 C 
ATOM     20  C   UNL     1       1.535  12.061  18.685  0.00  0.00    +0.000 C 
BRANCH  18  21
ATOM     21  C   UNL     1      -0.696  10.757  18.604  0.00  0.00    +0.000 A 
ATOM     22  C   UNL     1      -1.638  11.620  19.207  0.00  0.00    +0.000 A 
ATOM     23  C   UNL     1      -2.955  11.709  18.740  0.00  0.00    +0.000 A 
ATOM     24  C   UNL     1      -3.365  10.931  17.664  0.00  0.00    +0.000 A 
ATOM     25  C   UNL     1      -2.460  10.061  17.078  0.00  0.00    +0.000 A 
ATOM     26  F   UNL     1      -2.846   9.311  16.037  0.00  0.00    +0.000 F 
ATOM     27  C   UNL     1      -1.145   9.965  17.535  0.00  0.00    +0.000 A 
ENDBRANCH  18  21
ENDBRANCH   2  18
TORSDOF 4
ENDMDL
MODEL 9
REMARK VINA RESULT:      -7.9      1.869      3.061
REMARK  Name = 
REMARK  7 active torsions:
REMARK  status: ('A' for Active; 'I' for Inactive)
REMARK    1  A    between atoms: C_1  and  C_2
REMARK    2  A    between atoms: C_4  and  C_5
REMARK    3  A    between atoms: C_9  and  N_10
REMARK    4  A    between atoms: C_11  and  C_13
REMARK    5  A    between atoms: C_13  and  C_14
REMARK    6  A    between atoms: C_13  and  C_15
REMARK    7  A    between atoms: C_13  and  C_16
REMARK                            x       y       z     vdW  Elec       q    Type
REMARK                         _______ _______ _______ _____ _____    ______ ____
ROOT
ATOM      1  N   UNL     1       2.873   6.778  18.913  0.00  0.00    +0.000 N 
ATOM      2  C   UNL     1       3.876   6.452  18.008  0.00  0.00    +0.000 C 
ATOM      3  O   UNL     1       4.219   7.184  17.076  0.00  0.00    +0.000 OA
ATOM      4  H   UNL     1       2.748   6.188  19.723  0.00  0.00    +0.000 HD
ENDROOT
BRANCH   1   9
ATOM      5  C   UNL     1       0.731   9.542  20.195  0.00  0.00    +0.000 A 
ATOM      6  C   UNL     1       0.845  10.476  19.154  0.00  0.00    +0.000 A 
ATOM      7  C   UNL     1       1.586  10.178  18.017  0.00  0.00    +0.000 A 
ATOM      8  C   UNL     1       2.240   8.951  17.915  0.00  0.00    +0.000 A 
ATOM      9  C   UNL     1       2.164   8.008  18.942  0.00  0.00    +0.000 A 
ATOM     10  C   UNL     1       1.375   8.296  20.067  0.00  0.00    +0.000 A 
BRANCH   5  14
ATOM     11  C   UNL     1      -1.998  12.155  23.355  0.00  0.00    +0.000 C 
ATOM     12  C   UNL     1      -1.183  11.106  22.706  0.00  0.00    +0.000 A 
ATOM     13  N   UNL     1      -0.713  11.094  21.482  0.00  0.00    +0.000 NA
ATOM     14  C   UNL     1      -0.010   9.909  21.398  0.00  0.00    +0.000 A 
ATOM     15  N   UNL     1      -0.044   9.186  22.530  0.00  0.00    +0.000 NA
ATOM     16  N   UNL     1      -0.783   9.964  23.337  0.00  0.00    +0.000 N 
ATOM     17  H   UNL     1      -0.965   9.668  24.288  0.00  0.00    +0.000 HD
ENDBRANCH   5  14
ENDBRANCH   1   9
BRANCH   2  18
ATOM     18  C   UNL     1       4.571   5.066  18.194  0.00  0.00    +0.000 C 
ATOM     19  C   UNL     1       5.124   4.654  16.800  0.00  0.00    +0.000 C 
ATOM     20  C   UNL     1       5.809   5.164  19.112  0.00  0.00    +0.000 C 
BRANCH  18  21
ATOM     21  C   UNL     1       3.554   3.993  18.635  0.00  0.00    +0.000 A 
ATOM     22  C   UNL     1       2.887   3.212  17.666  0.00  0.00    +0.000 A 
ATOM     23  C   UNL     1       2.038   2.159  18.030  0.00  0.00    +0.000 A 
ATOM     24  C   UNL     1       1.829   1.868  19.373  0.00  0.00    +0.000 A 
ATOM     25  C   UNL     1       2.456   2.643  20.337  0.00  0.00    +0.000 A 
ATOM     26  F   UNL     1       2.263   2.366  21.633  0.00  0.00    +0.000 F 
ATOM     27  C   UNL     1       3.305   3.693  19.984  0.00  0.00    +0.000 A 
ENDBRANCH  18  21
ENDBRANCH   2  18
TORSDOF 4
ENDMDL
