MODEL 1
REMARK VINA RESULT:      -9.0      0.000      0.000
REMARK  Name = 
REMARK  5 active torsions:
REMARK  status: ('A' for Active; 'I' for Inactive)
REMARK    1  A    between atoms: C_2  and  C_17
REMARK    2  A    between atoms: N_3  and  C_4
REMARK    3  A    between atoms: C_4  and  C_5
REMARK    4  A    between atoms: C_5  and  O_6
REMARK    5  A    between atoms: C_21  and  O_22
REMARK                            x       y       z     vdW  Elec       q    Type
REMARK                         _______ _______ _______ _____ _____    ______ ____
ROOT
ATOM      1  O   UNL     1       4.884   6.071  16.947  0.00  0.00    +0.000 OA
ATOM      2  C   UNL     1       5.497   5.027  16.742  0.00  0.00    +0.000 C 
ATOM      3  N   UNL     1       5.687   4.091  17.738  0.00  0.00    +0.000 N 
ATOM      4  H   UNL     1       6.228   3.258  17.556  0.00  0.00    +0.000 HD
ENDROOT
BRANCH   2   5
ATOM      5  C   UNL     1       6.081   4.780  15.377  0.00  0.00    +0.000 A 
ATOM      6  C   UNL     1       5.366   3.924  14.525  0.00  0.00    +0.000 A 
ATOM      7  C   UNL     1       5.789   3.715  13.213  0.00  0.00    +0.000 A 
ATOM      8  F   UNL     1       5.079   2.913  12.401  0.00  0.00    +0.000 F 
ATOM      9  C   UNL     1       6.931   4.319  12.726  0.00  0.00    +0.000 A 
ATOM     10  C   UNL     1       7.678   5.129  13.583  0.00  0.00    +0.000 A 
ATOM     11  F   UNL     1       8.799   5.721  13.149  0.00  0.00    +0.000 F 
ATOM     12  C   UNL     1       7.260   5.365  14.906  0.00  0.00    +0.000 A 
BRANCH   9  13
ATOM     13  O   UNL     1       7.332   4.142  11.434  0.00  0.00    +0.000 OA
ATOM     14  H   UNL     1       7.847   4.931  11.180  0.00  0.00    +0.000 HD
ENDBRANCH   9  13
ENDBRANCH   2   5
BRANCH   3  15
ATOM     15  C   UNL     1       5.222   4.300  19.126  0.00  0.00    +0.000 C 
BRANCH  15  16
ATOM     16  C   UNL     1       4.197   3.226  19.571  0.00  0.00    +0.000 C 
ATOM     17  C   UNL     1       3.067   3.059  18.555  0.00  0.00    +0.000 C 
ATOM     18  C   UNL     1       2.110   4.317  18.489  0.00  0.00    +0.000 C 
ATOM     19  C   UNL     1       2.310   5.422  19.555  0.00  0.00    +0.000 C 
ATOM     20  C   UNL     1       2.289   4.622  20.843  0.00  0.00    +0.000 C 
ATOM     21  C   UNL     1       1.136   3.643  20.551  0.00  0.00    +0.000 C 
ATOM     22  C   UNL     1       0.805   3.700  19.033  0.00  0.00    +0.000 C 
ATOM     23  C   UNL     1       0.811   2.245  18.619  0.00  0.00    +0.000 C 
ATOM     24  C   UNL     1       2.175   1.969  19.209  0.00  0.00    +0.000 C 
ATOM     25  C   UNL     1       2.121   2.468  20.663  0.00  0.00    +0.000 C 
ATOM     26  C   UNL     1       3.336   3.451  20.851  0.00  0.00    +0.000 C 
BRANCH  16  27
ATOM     27  O   UNL     1       4.891   1.978  19.728  0.00  0.00    +0.000 OA
ATOM     28  H   UNL     1       5.200   1.911  20.651  0.00  0.00    +0.000 HD
ENDBRANCH  16  27
ENDBRANCH  15  16
ENDBRANCH   3  15
TORSDOF 5
ENDMDL
MODEL 2
REMARK VINA RESULT:      -8.9      0.202      1.657
REMARK  Name = 
REMARK  5 active torsions:
REMARK  status: ('A' for Active; 'I' for Inactive)
REMARK    1  A    between atoms: C_2  and  C_17
REMARK    2  A    between atoms: N_3  and  C_4
REMARK    3  A    between atoms: C_4  and  C_5
REMARK    4  A    between atoms: C_5  and  O_6
REMARK    5  A    between atoms: C_21  and  O_22
REMARK                            x       y       z     vdW  Elec       q    Type
REMARK                         _______ _______ _______ _____ _____    ______ ____
ROOT
ATOM      1  O   UNL     1       5.292   6.190  16.954  0.00  0.00    +0.000 OA
ATOM      2  C   UNL     1       5.578   5.041  16.630  0.00  0.00    +0.000 C 
ATOM      3  N   UNL     1       5.576   4.008  17.545  0.00  0.00    +0.000 N 
ATOM      4  H   UNL     1       5.853   3.079  17.263  0.00  0.00    +0.000 HD
ENDROOT
BRANCH   2   5
ATOM      5  C   UNL     1       5.973   4.763  15.204  0.00  0.00    +0.000 A 
ATOM      6  C   UNL     1       7.149   5.373  14.740  0.00  0.00    +0.000 A 
ATOM      7  C   UNL     1       7.633   5.096  13.462  0.00  0.00    +0.000 A 
ATOM      8  F   UNL     1       8.775   5.668  13.041  0.00  0.00    +0.000 F 
ATOM      9  C   UNL     1       6.961   4.239  12.614  0.00  0.00    +0.000 A 
ATOM     10  C   UNL     1       5.762   3.670  13.047  0.00  0.00    +0.000 A 
ATOM     11  F   UNL     1       5.076   2.845  12.245  0.00  0.00    +0.000 F 
ATOM     12  C   UNL     1       5.264   3.925  14.338  0.00  0.00    +0.000 A 
BRANCH   9  13
ATOM     13  O   UNL     1       7.448   3.941  11.375  0.00  0.00    +0.000 OA
ATOM     14  H   UNL     1       7.688   2.995  11.377  0.00  0.00    +0.000 HD
ENDBRANCH   9  13
ENDBRANCH   2   5
BRANCH   3  15
ATOM     15  C   UNL     1       5.287   4.217  18.980  0.00  0.00    +0.000 C 
BRANCH  15  16
ATOM     16  C   UNL     1       4.229   3.220  19.517  0.00  0.00    +0.000 C 
ATOM     17  C   UNL     1       3.112   2.970  18.504  0.00  0.00    +0.000 C 
ATOM     18  C   UNL     1       2.188   4.235  18.286  0.00  0.00    +0.000 C 
ATOM     19  C   UNL     1       2.396   5.443  19.231  0.00  0.00    +0.000 C 
ATOM     20  C   UNL     1       2.335   4.788  20.596  0.00  0.00    +0.000 C 
ATOM     21  C   UNL     1       1.163   3.809  20.389  0.00  0.00    +0.000 C 
ATOM     22  C   UNL     1       0.859   3.709  18.867  0.00  0.00    +0.000 C 
ATOM     23  C   UNL     1       0.836   2.219  18.612  0.00  0.00    +0.000 C 
ATOM     24  C   UNL     1       2.183   1.978  19.254  0.00  0.00    +0.000 C 
ATOM     25  C   UNL     1       2.117   2.631  20.645  0.00  0.00    +0.000 C 
ATOM     26  C   UNL     1       3.353   3.600  20.749  0.00  0.00    +0.000 C 
BRANCH  16  27
ATOM     27  O   UNL     1       4.890   1.980  19.820  0.00  0.00    +0.000 OA
ATOM     28  H   UNL     1       5.841   2.161  19.949  0.00  0.00    +0.000 HD
ENDBRANCH  16  27
ENDBRANCH  15  16
ENDBRANCH   3  15
TORSDOF 5
ENDMDL
MODEL 3
REMARK VINA RESULT:      -8.7      1.259      2.622
REMARK  Name = 
REMARK  5 active torsions:
REMARK  status: ('A' for Active; 'I' for Inactive)
REMARK    1  A    between atoms: C_2  and  C_17
REMARK    2  A    between atoms: N_3  and  C_4
REMARK    3  A    between atoms: C_4  and  C_5
REMARK    4  A    between atoms: C_5  and  O_6
REMARK    5  A    between atoms: C_21  and  O_22
REMARK                            x       y       z     vdW  Elec       q    Type
REMARK                         _______ _______ _______ _____ _____    ______ ____
ROOT
ATOM      1  O   UNL     1       7.709   4.634  17.289  0.00  0.00    +0.000 OA
ATOM      2  C   UNL     1       6.677   4.446  16.650  0.00  0.00    +0.000 C 
ATOM      3  N   UNL     1       5.470   4.209  17.276  0.00  0.00    +0.000 N 
ATOM      4  H   UNL     1       4.644   4.018  16.729  0.00  0.00    +0.000 HD
ENDROOT
BRANCH   2   5
ATOM      5  C   UNL     1       6.742   4.441  15.146  0.00  0.00    +0.000 A 
ATOM      6  C   UNL     1       7.688   5.287  14.548  0.00  0.00    +0.000 A 
ATOM      7  C   UNL     1       7.875   5.277  13.166  0.00  0.00    +0.000 A 
ATOM      8  F   UNL     1       8.804   6.074  12.611  0.00  0.00    +0.000 F 
ATOM      9  C   UNL     1       7.123   4.457  12.350  0.00  0.00    +0.000 A 
ATOM     10  C   UNL     1       6.141   3.651  12.931  0.00  0.00    +0.000 A 
ATOM     11  F   UNL     1       5.381   2.854  12.168  0.00  0.00    +0.000 F 
ATOM     12  C   UNL     1       5.947   3.637  14.324  0.00  0.00    +0.000 A 
BRANCH   9  13
ATOM     13  O   UNL     1       7.323   4.420  11.001  0.00  0.00    +0.000 OA
ATOM     14  H   UNL     1       7.378   3.481  10.742  0.00  0.00    +0.000 HD
ENDBRANCH   9  13
ENDBRANCH   2   5
BRANCH   3  15
ATOM     15  C   UNL     1       5.342   4.110  18.745  0.00  0.00    +0.000 C 
BRANCH  15  16
ATOM     16  C   UNL     1       3.929   4.509  19.240  0.00  0.00    +0.000 C 
ATOM     17  C   UNL     1       3.366   3.498  20.238  0.00  0.00    +0.000 C 
ATOM     18  C   UNL     1       3.022   2.105  19.572  0.00  0.00    +0.000 C 
ATOM     19  C   UNL     1       3.104   2.012  18.029  0.00  0.00    +0.000 C 
ATOM     20  C   UNL     1       2.260   3.196  17.598  0.00  0.00    +0.000 C 
ATOM     21  C   UNL     1       1.089   3.087  18.594  0.00  0.00    +0.000 C 
ATOM     22  C   UNL     1       1.486   2.098  19.726  0.00  0.00    +0.000 C 
ATOM     23  C   UNL     1       1.176   2.868  20.990  0.00  0.00    +0.000 C 
ATOM     24  C   UNL     1       1.968   4.086  20.572  0.00  0.00    +0.000 C 
ATOM     25  C   UNL     1       1.465   4.462  19.168  0.00  0.00    +0.000 C 
ATOM     26  C   UNL     1       2.734   4.549  18.240  0.00  0.00    +0.000 C 
BRANCH  16  27
ATOM     27  O   UNL     1       4.018   5.801  19.863  0.00  0.00    +0.000 OA
ATOM     28  H   UNL     1       3.402   6.406  19.407  0.00  0.00    +0.000 HD
ENDBRANCH  16  27
ENDBRANCH  15  16
ENDBRANCH   3  15
TORSDOF 5
ENDMDL
MODEL 4
REMARK VINA RESULT:      -8.7      1.120      2.025
REMARK  Name = 
REMARK  5 active torsions:
REMARK  status: ('A' for Active; 'I' for Inactive)
REMARK    1  A    between atoms: C_2  and  C_17
REMARK    2  A    between atoms: N_3  and  C_4
REMARK    3  A    between atoms: C_4  and  C_5
REMARK    4  A    between atoms: C_5  and  O_6
REMARK    5  A    between atoms: C_21  and  O_22
REMARK                            x       y       z     vdW  Elec       q    Type
REMARK                         _______ _______ _______ _____ _____    ______ ____
ROOT
ATOM      1  O   UNL     1       5.549   6.279  16.814  0.00  0.00    +0.000 OA
ATOM      2  C   UNL     1       5.831   5.124  16.506  0.00  0.00    +0.000 C 
ATOM      3  N   UNL     1       5.709   4.084  17.404  0.00  0.00    +0.000 N 
ATOM      4  H   UNL     1       5.985   3.150  17.140  0.00  0.00    +0.000 HD
ENDROOT
BRANCH   2   5
ATOM      5  C   UNL     1       6.354   4.847  15.122  0.00  0.00    +0.000 A 
ATOM      6  C   UNL     1       5.637   3.924  14.345  0.00  0.00    +0.000 A 
ATOM      7  C   UNL     1       6.001   3.677  13.022  0.00  0.00    +0.000 A 
ATOM      8  F   UNL     1       5.289   2.811  12.282  0.00  0.00    +0.000 F 
ATOM      9  C   UNL     1       7.086   4.311  12.450  0.00  0.00    +0.000 A 
ATOM     10  C   UNL     1       7.839   5.190  13.233  0.00  0.00    +0.000 A 
ATOM     11  F   UNL     1       8.906   5.812  12.716  0.00  0.00    +0.000 F 
ATOM     12  C   UNL     1       7.479   5.463  14.565  0.00  0.00    +0.000 A 
BRANCH   9  13
ATOM     13  O   UNL     1       7.428   4.097  11.147  0.00  0.00    +0.000 OA
ATOM     14  H   UNL     1       7.275   3.151  10.959  0.00  0.00    +0.000 HD
ENDBRANCH   9  13
ENDBRANCH   2   5
BRANCH   3  15
ATOM     15  C   UNL     1       5.288   4.289  18.807  0.00  0.00    +0.000 C 
BRANCH  15  16
ATOM     16  C   UNL     1       3.778   4.616  18.925  0.00  0.00    +0.000 C 
ATOM     17  C   UNL     1       3.140   3.942  20.139  0.00  0.00    +0.000 C 
ATOM     18  C   UNL     1       3.052   2.369  19.992  0.00  0.00    +0.000 C 
ATOM     19  C   UNL     1       3.420   1.760  18.617  0.00  0.00    +0.000 C 
ATOM     20  C   UNL     1       2.562   2.577  17.672  0.00  0.00    +0.000 C 
ATOM     21  C   UNL     1       1.246   2.645  18.470  0.00  0.00    +0.000 C 
ATOM     22  C   UNL     1       1.522   2.182  19.929  0.00  0.00    +0.000 C 
ATOM     23  C   UNL     1       0.918   3.287  20.767  0.00  0.00    +0.000 C 
ATOM     24  C   UNL     1       1.656   4.390  20.041  0.00  0.00    +0.000 C 
ATOM     25  C   UNL     1       1.382   4.173  18.543  0.00  0.00    +0.000 C 
ATOM     26  C   UNL     1       2.784   4.124  17.829  0.00  0.00    +0.000 C 
BRANCH  16  27
ATOM     27  O   UNL     1       3.632   6.042  19.035  0.00  0.00    +0.000 OA
ATOM     28  H   UNL     1       4.499   6.455  18.859  0.00  0.00    +0.000 HD
ENDBRANCH  16  27
ENDBRANCH  15  16
ENDBRANCH   3  15
TORSDOF 5
ENDMDL
MODEL 5
REMARK VINA RESULT:      -8.5      5.495      7.926
REMARK  Name = 
REMARK  5 active torsions:
REMARK  status: ('A' for Active; 'I' for Inactive)
REMARK    1  A    between atoms: C_2  and  C_17
REMARK    2  A    between atoms: N_3  and  C_4
REMARK    3  A    between atoms: C_4  and  C_5
REMARK    4  A    between atoms: C_5  and  O_6
REMARK    5  A    between atoms: C_21  and  O_22
REMARK                            x       y       z     vdW  Elec       q    Type
REMARK                         _______ _______ _______ _____ _____    ______ ____
ROOT
ATOM      1  O   UNL     1       1.977   9.093  18.189  0.00  0.00    +0.000 OA
ATOM      2  C   UNL     1       1.747   8.574  19.279  0.00  0.00    +0.000 C 
ATOM      3  N   UNL     1       2.224   7.320  19.599  0.00  0.00    +0.000 N 
ATOM      4  H   UNL     1       1.989   6.898  20.485  0.00  0.00    +0.000 HD
ENDROOT
BRANCH   2   5
ATOM      5  C   UNL     1       0.896   9.316  20.274  0.00  0.00    +0.000 A 
ATOM      6  C   UNL     1       0.991   8.914  21.615  0.00  0.00    +0.000 A 
ATOM      7  C   UNL     1       0.305   9.607  22.612  0.00  0.00    +0.000 A 
ATOM      8  F   UNL     1       0.426   9.226  23.896  0.00  0.00    +0.000 F 
ATOM      9  C   UNL     1      -0.500  10.686  22.308  0.00  0.00    +0.000 A 
ATOM     10  C   UNL     1      -0.643  11.059  20.970  0.00  0.00    +0.000 A 
ATOM     11  F   UNL     1      -1.428  12.092  20.636  0.00  0.00    +0.000 F 
ATOM     12  C   UNL     1       0.051  10.382  19.951  0.00  0.00    +0.000 A 
BRANCH   9  13
ATOM     13  O   UNL     1      -1.148  11.386  23.283  0.00  0.00    +0.000 OA
ATOM     14  H   UNL     1      -0.668  12.228  23.403  0.00  0.00    +0.000 HD
ENDBRANCH   9  13
ENDBRANCH   2   5
BRANCH   3  15
ATOM     15  C   UNL     1       2.991   6.492  18.643  0.00  0.00    +0.000 C 
BRANCH  15  16
ATOM     16  C   UNL     1       3.462   5.155  19.270  0.00  0.00    +0.000 C 
ATOM     17  C   UNL     1       3.708   4.082  18.210  0.00  0.00    +0.000 C 
ATOM     18  C   UNL     1       2.375   3.587  17.516  0.00  0.00    +0.000 C 
ATOM     19  C   UNL     1       1.035   4.080  18.113  0.00  0.00    +0.000 C 
ATOM     20  C   UNL     1       1.201   3.741  19.581  0.00  0.00    +0.000 C 
ATOM     21  C   UNL     1       1.853   2.349  19.479  0.00  0.00    +0.000 C 
ATOM     22  C   UNL     1       2.330   2.128  18.016  0.00  0.00    +0.000 C 
ATOM     23  C   UNL     1       3.767   1.684  18.179  0.00  0.00    +0.000 C 
ATOM     24  C   UNL     1       4.144   2.856  19.057  0.00  0.00    +0.000 C 
ATOM     25  C   UNL     1       3.102   2.895  20.188  0.00  0.00    +0.000 C 
ATOM     26  C   UNL     1       2.507   4.352  20.205  0.00  0.00    +0.000 C 
BRANCH  16  27
ATOM     27  O   UNL     1       4.677   5.401  19.997  0.00  0.00    +0.000 OA
ATOM     28  H   UNL     1       5.392   4.878  19.587  0.00  0.00    +0.000 HD
ENDBRANCH  16  27
ENDBRANCH  15  16
ENDBRANCH   3  15
TORSDOF 5
ENDMDL
MODEL 6
REMARK VINA RESULT:      -8.4      5.502      7.935
REMARK  Name = 
REMARK  5 active torsions:
REMARK  status: ('A' for Active; 'I' for Inactive)
REMARK    1  A    between atoms: C_2  and  C_17
REMARK    2  A    between atoms: N_3  and  C_4
REMARK    3  A    between atoms: C_4  and  C_5
REMARK    4  A    between atoms: C_5  and  O_6
REMARK    5  A    between atoms: C_21  and  O_22
REMARK                            x       y       z     vdW  Elec       q    Type
REMARK                         _______ _______ _______ _____ _____    ______ ____
ROOT
ATOM      1  O   UNL     1       1.844   8.998  18.257  0.00  0.00    +0.000 OA
ATOM      2  C   UNL     1       1.739   8.502  19.376  0.00  0.00    +0.000 C 
ATOM      3  N   UNL     1       2.290   7.273  19.678  0.00  0.00    +0.000 N 
ATOM      4  H   UNL     1       2.156   6.869  20.594  0.00  0.00    +0.000 HD
ENDROOT
BRANCH   2   5
ATOM      5  C   UNL     1       0.963   9.243  20.432  0.00  0.00    +0.000 A 
ATOM      6  C   UNL     1       0.156  10.306  19.998  0.00  0.00    +0.000 A 
ATOM      7  C   UNL     1      -0.664  10.986  20.898  0.00  0.00    +0.000 A 
ATOM      8  F   UNL     1      -1.451  11.985  20.463  0.00  0.00    +0.000 F 
ATOM      9  C   UNL     1      -0.687  10.651  22.237  0.00  0.00    +0.000 A 
ATOM     10  C   UNL     1       0.154   9.630  22.687  0.00  0.00    +0.000 A 
ATOM     11  F   UNL     1       0.169   9.288  23.982  0.00  0.00    +0.000 F 
ATOM     12  C   UNL     1       0.978   8.923  21.793  0.00  0.00    +0.000 A 
BRANCH   9  13
ATOM     13  O   UNL     1      -1.510  11.292  23.116  0.00  0.00    +0.000 OA
ATOM     14  H   UNL     1      -2.035  10.607  23.573  0.00  0.00    +0.000 HD
ENDBRANCH   9  13
ENDBRANCH   2   5
BRANCH   3  15
ATOM     15  C   UNL     1       2.988   6.445  18.672  0.00  0.00    +0.000 C 
BRANCH  15  16
ATOM     16  C   UNL     1       3.484   5.100  19.261  0.00  0.00    +0.000 C 
ATOM     17  C   UNL     1       3.709   4.049  18.174  0.00  0.00    +0.000 C 
ATOM     18  C   UNL     1       2.362   3.558  17.505  0.00  0.00    +0.000 C 
ATOM     19  C   UNL     1       1.034   4.031  18.146  0.00  0.00    +0.000 C 
ATOM     20  C   UNL     1       1.240   3.665  19.602  0.00  0.00    +0.000 C 
ATOM     21  C   UNL     1       1.898   2.280  19.456  0.00  0.00    +0.000 C 
ATOM     22  C   UNL     1       2.339   2.090  17.977  0.00  0.00    +0.000 C 
ATOM     23  C   UNL     1       3.782   1.652  18.095  0.00  0.00    +0.000 C 
ATOM     24  C   UNL     1       4.174   2.810  18.985  0.00  0.00    +0.000 C 
ATOM     25  C   UNL     1       3.162   2.820  20.143  0.00  0.00    +0.000 C 
ATOM     26  C   UNL     1       2.558   4.273  20.204  0.00  0.00    +0.000 C 
BRANCH  16  27
ATOM     27  O   UNL     1       4.715   5.340  19.961  0.00  0.00    +0.000 OA
ATOM     28  H   UNL     1       5.455   5.208  19.338  0.00  0.00    +0.000 HD
ENDBRANCH  16  27
ENDBRANCH  15  16
ENDBRANCH   3  15
TORSDOF 5
ENDMDL
MODEL 7
REMARK VINA RESULT:      -8.4      5.675      8.139
REMARK  Name = 
REMARK  5 active torsions:
REMARK  status: ('A' for Active; 'I' for Inactive)
REMARK    1  A    between atoms: C_2  and  C_17
REMARK    2  A    between atoms: N_3  and  C_4
REMARK    3  A    between atoms: C_4  and  C_5
REMARK    4  A    between atoms: C_5  and  O_6
REMARK    5  A    between atoms: C_21  and  O_22
REMARK                            x       y       z     vdW  Elec       q    Type
REMARK                         _______ _______ _______ _____ _____    ______ ____
ROOT
ATOM      1  O   UNL     1       1.673   8.666  18.511  0.00  0.00    +0.000 OA
ATOM      2  C   UNL     1       1.568   8.420  19.710  0.00  0.00    +0.000 C 
ATOM      3  N   UNL     1       2.133   7.293  20.270  0.00  0.00    +0.000 N 
ATOM      4  H   UNL     1       1.999   7.092  21.250  0.00  0.00    +0.000 HD
ENDROOT
BRANCH   2   5
ATOM      5  C   UNL     1       0.775   9.358  20.579  0.00  0.00    +0.000 A 
ATOM      6  C   UNL     1       0.626   9.001  21.928  0.00  0.00    +0.000 A 
ATOM      7  C   UNL     1      -0.017   9.858  22.821  0.00  0.00    +0.000 A 
ATOM      8  F   UNL     1      -0.128   9.514  24.116  0.00  0.00    +0.000 F 
ATOM      9  C   UNL     1      -0.543  11.063  22.402  0.00  0.00    +0.000 A 
ATOM     10  C   UNL     1      -0.447  11.402  21.050  0.00  0.00    +0.000 A 
ATOM     11  F   UNL     1      -0.960  12.557  20.604  0.00  0.00    +0.000 F 
ATOM     12  C   UNL     1       0.209  10.558  20.136  0.00  0.00    +0.000 A 
BRANCH   9  13
ATOM     13  O   UNL     1      -1.145  11.919  23.277  0.00  0.00    +0.000 OA
ATOM     14  H   UNL     1      -2.030  12.124  22.920  0.00  0.00    +0.000 HD
ENDBRANCH   9  13
ENDBRANCH   2   5
BRANCH   3  15
ATOM     15  C   UNL     1       2.850   6.279  19.468  0.00  0.00    +0.000 C 
BRANCH  15  16
ATOM     16  C   UNL     1       2.647   4.844  20.018  0.00  0.00    +0.000 C 
ATOM     17  C   UNL     1       3.738   3.888  19.536  0.00  0.00    +0.000 C 
ATOM     18  C   UNL     1       3.649   3.586  17.986  0.00  0.00    +0.000 C 
ATOM     19  C   UNL     1       2.406   4.109  17.227  0.00  0.00    +0.000 C 
ATOM     20  C   UNL     1       1.271   3.586  18.086  0.00  0.00    +0.000 C 
ATOM     21  C   UNL     1       1.785   2.169  18.403  0.00  0.00    +0.000 C 
ATOM     22  C   UNL     1       3.289   2.086  18.018  0.00  0.00    +0.000 C 
ATOM     23  C   UNL     1       3.938   1.513  19.259  0.00  0.00    +0.000 C 
ATOM     24  C   UNL     1       3.325   2.540  20.185  0.00  0.00    +0.000 C 
ATOM     25  C   UNL     1       1.814   2.527  19.898  0.00  0.00    +0.000 C 
ATOM     26  C   UNL     1       1.398   4.014  19.592  0.00  0.00    +0.000 C 
BRANCH  16  27
ATOM     27  O   UNL     1       2.660   4.905  21.453  0.00  0.00    +0.000 OA
ATOM     28  H   UNL     1       2.515   5.832  21.724  0.00  0.00    +0.000 HD
ENDBRANCH  16  27
ENDBRANCH  15  16
ENDBRANCH   3  15
TORSDOF 5
ENDMDL
MODEL 8
REMARK VINA RESULT:      -8.3      5.278      7.482
REMARK  Name = 
REMARK  5 active torsions:
REMARK  status: ('A' for Active; 'I' for Inactive)
REMARK    1  A    between atoms: C_2  and  C_17
REMARK    2  A    between atoms: N_3  and  C_4
REMARK    3  A    between atoms: C_4  and  C_5
REMARK    4  A    between atoms: C_5  and  O_6
REMARK    5  A    between atoms: C_21  and  O_22
REMARK                            x       y       z     vdW  Elec       q    Type
REMARK                         _______ _______ _______ _____ _____    ______ ____
ROOT
ATOM      1  O   UNL     1       2.309   8.881  17.299  0.00  0.00    +0.000 OA
ATOM      2  C   UNL     1       2.025   8.558  18.449  0.00  0.00    +0.000 C 
ATOM      3  N   UNL     1       2.508   7.396  19.015  0.00  0.00    +0.000 N 
ATOM      4  H   UNL     1       2.228   7.132  19.948  0.00  0.00    +0.000 HD
ENDROOT
BRANCH   2   5
ATOM      5  C   UNL     1       1.102   9.439  19.247  0.00  0.00    +0.000 A 
ATOM      6  C   UNL     1       0.593  10.577  18.601  0.00  0.00    +0.000 A 
ATOM      7  C   UNL     1      -0.338  11.396  19.237  0.00  0.00    +0.000 A 
ATOM      8  F   UNL     1      -0.836  12.468  18.595  0.00  0.00    +0.000 F 
ATOM      9  C   UNL     1      -0.766  11.127  20.521  0.00  0.00    +0.000 A 
ATOM     10  C   UNL     1      -0.225  10.028  21.192  0.00  0.00    +0.000 A 
ATOM     11  F   UNL     1      -0.605   9.745  22.445  0.00  0.00    +0.000 F 
ATOM     12  C   UNL     1       0.705   9.182  20.562  0.00  0.00    +0.000 A 
BRANCH   9  13
ATOM     13  O   UNL     1      -1.701  11.908  21.137  0.00  0.00    +0.000 OA
ATOM     14  H   UNL     1      -2.576  11.523  20.938  0.00  0.00    +0.000 HD
ENDBRANCH   9  13
ENDBRANCH   2   5
BRANCH   3  15
ATOM     15  C   UNL     1       3.346   6.435  18.267  0.00  0.00    +0.000 C 
BRANCH  15  16
ATOM     16  C   UNL     1       3.635   5.149  19.082  0.00  0.00    +0.000 C 
ATOM     17  C   UNL     1       3.888   3.944  18.177  0.00  0.00    +0.000 C 
ATOM     18  C   UNL     1       2.591   3.473  17.404  0.00  0.00    +0.000 C 
ATOM     19  C   UNL     1       1.247   4.134  17.797  0.00  0.00    +0.000 C 
ATOM     20  C   UNL     1       1.240   3.957  19.303  0.00  0.00    +0.000 C 
ATOM     21  C   UNL     1       1.774   2.517  19.423  0.00  0.00    +0.000 C 
ATOM     22  C   UNL     1       2.370   2.090  18.051  0.00  0.00    +0.000 C 
ATOM     23  C   UNL     1       3.740   1.561  18.414  0.00  0.00    +0.000 C 
ATOM     24  C   UNL     1       4.131   2.795  19.194  0.00  0.00    +0.000 C 
ATOM     25  C   UNL     1       2.992   3.046  20.197  0.00  0.00    +0.000 C 
ATOM     26  C   UNL     1       2.528   4.536  19.992  0.00  0.00    +0.000 C 
BRANCH  16  27
ATOM     27  O   UNL     1       4.791   5.385  19.903  0.00  0.00    +0.000 OA
ATOM     28  H   UNL     1       5.053   6.321  19.804  0.00  0.00    +0.000 HD
ENDBRANCH  16  27
ENDBRANCH  15  16
ENDBRANCH   3  15
TORSDOF 5
ENDMDL
MODEL 9
REMARK VINA RESULT:      -8.1      4.279      7.439
REMARK  Name = 
REMARK  5 active torsions:
REMARK  status: ('A' for Active; 'I' for Inactive)
REMARK    1  A    between atoms: C_2  and  C_17
REMARK    2  A    between atoms: N_3  and  C_4
REMARK    3  A    between atoms: C_4  and  C_5
REMARK    4  A    between atoms: C_5  and  O_6
REMARK    5  A    between atoms: C_21  and  O_22
REMARK                            x       y       z     vdW  Elec       q    Type
REMARK                         _______ _______ _______ _____ _____    ______ ____
ROOT
ATOM      1  O   UNL     1       2.670   4.946  20.222  0.00  0.00    +0.000 OA
ATOM      2  C   UNL     1       2.532   5.809  19.359  0.00  0.00    +0.000 C 
ATOM      3  N   UNL     1       2.899   5.587  18.048  0.00  0.00    +0.000 N 
ATOM      4  H   UNL     1       2.814   6.325  17.365  0.00  0.00    +0.000 HD
ENDROOT
BRANCH   2   5
ATOM      5  C   UNL     1       1.978   7.151  19.753  0.00  0.00    +0.000 A 
ATOM      6  C   UNL     1       1.994   8.157  18.775  0.00  0.00    +0.000 A 
ATOM      7  C   UNL     1       1.419   9.402  19.028  0.00  0.00    +0.000 A 
ATOM      8  F   UNL     1       1.419  10.347  18.072  0.00  0.00    +0.000 F 
ATOM      9  C   UNL     1       0.841   9.686  20.249  0.00  0.00    +0.000 A 
ATOM     10  C   UNL     1       0.868   8.709  21.247  0.00  0.00    +0.000 A 
ATOM     11  F   UNL     1       0.330   8.955  22.449  0.00  0.00    +0.000 F 
ATOM     12  C   UNL     1       1.431   7.443  21.007  0.00  0.00    +0.000 A 
BRANCH   9  13
ATOM     13  O   UNL     1       0.249  10.891  20.491  0.00  0.00    +0.000 OA
ATOM     14  H   UNL     1      -0.716  10.741  20.509  0.00  0.00    +0.000 HD
ENDBRANCH   9  13
ENDBRANCH   2   5
BRANCH   3  15
ATOM     15  C   UNL     1       3.533   4.328  17.601  0.00  0.00    +0.000 C 
BRANCH  15  16
ATOM     16  C   UNL     1       5.053   4.297  17.901  0.00  0.00    +0.000 C 
ATOM     17  C   UNL     1       5.583   5.670  18.310  0.00  0.00    +0.000 C 
ATOM     18  C   UNL     1       5.576   6.712  17.119  0.00  0.00    +0.000 C 
ATOM     19  C   UNL     1       5.241   6.176  15.706  0.00  0.00    +0.000 C 
ATOM     20  C   UNL     1       6.197   5.007  15.578  0.00  0.00    +0.000 C 
ATOM     21  C   UNL     1       7.473   5.615  16.193  0.00  0.00    +0.000 C 
ATOM     22  C   UNL     1       7.093   6.928  16.934  0.00  0.00    +0.000 C 
ATOM     23  C   UNL     1       7.723   6.756  18.298  0.00  0.00    +0.000 C 
ATOM     24  C   UNL     1       7.096   5.402  18.538  0.00  0.00    +0.000 C 
ATOM     25  C   UNL     1       7.431   4.551  17.301  0.00  0.00    +0.000 C 
ATOM     26  C   UNL     1       6.067   3.980  16.760  0.00  0.00    +0.000 C 
BRANCH  16  27
ATOM     27  O   UNL     1       5.284   3.355  18.961  0.00  0.00    +0.000 OA
ATOM     28  H   UNL     1       4.498   3.343  19.540  0.00  0.00    +0.000 HD
ENDBRANCH  16  27
ENDBRANCH  15  16
ENDBRANCH   3  15
TORSDOF 5
ENDMDL
