MODEL 1
REMARK VINA RESULT:      -8.9      0.000      0.000
REMARK  Name = 
REMARK  4 active torsions:
REMARK  status: ('A' for Active; 'I' for Inactive)
REMARK    1  A    between atoms: C_2  and  C_3
REMARK    2  A    between atoms: C_6  and  N_7
REMARK    3  A    between atoms: C_8  and  C_10
REMARK    4  A    between atoms: C_10  and  C_11
REMARK                            x       y       z     vdW  Elec       q    Type
REMARK                         _______ _______ _______ _____ _____    ______ ____
ROOT
ATOM      1  N   UNL     1       3.212   6.173  18.469  0.00  0.00    +0.000 N 
ATOM      2  C   UNL     1       2.655   4.979  18.030  0.00  0.00    +0.000 C 
ATOM      3  O   UNL     1       1.484   4.845  17.674  0.00  0.00    +0.000 OA
ATOM      4  H   UNL     1       4.202   6.159  18.679  0.00  0.00    +0.000 HD
ENDROOT
BRANCH   1   8
ATOM      5  C   UNL     1       1.120   9.753  19.284  0.00  0.00    +0.000 A 
ATOM      6  C   UNL     1       1.691   9.571  18.025  0.00  0.00    +0.000 A 
ATOM      7  C   UNL     1       2.401   8.400  17.732  0.00  0.00    +0.000 A 
ATOM      8  C   UNL     1       2.544   7.395  18.695  0.00  0.00    +0.000 A 
ATOM      9  C   UNL     1       1.961   7.578  19.951  0.00  0.00    +0.000 A 
ATOM     10  C   UNL     1       1.223   8.730  20.232  0.00  0.00    +0.000 A 
BRANCH   5  12
ATOM     11  O   UNL     1       0.768  11.791  20.359  0.00  0.00    +0.000 OA
ATOM     12  C   UNL     1       0.321  10.978  19.552  0.00  0.00    +0.000 C 
ATOM     13  N   UNL     1      -0.884  11.162  18.888  0.00  0.00    +0.000 N 
ATOM     14  C   UNL     1      -1.643  12.387  19.070  0.00  0.00    +0.000 C 
ATOM     15  C   UNL     1      -3.094  11.953  18.953  0.00  0.00    +0.000 C 
ATOM     16  C   UNL     1      -3.033  10.808  17.954  0.00  0.00    +0.000 C 
ATOM     17  C   UNL     1      -1.704  10.132  18.260  0.00  0.00    +0.000 C 
ENDBRANCH   5  12
ENDBRANCH   1   8
BRANCH   2  18
ATOM     18  C   UNL     1       3.673   3.759  18.041  0.00  0.00    +0.000 C 
ATOM     19  C   UNL     1       2.962   2.361  17.826  0.00  0.00    +0.000 C 
ATOM     20  C   UNL     1       3.906   1.767  18.879  0.00  0.00    +0.000 C 
ATOM     21  C   UNL     1       4.061   3.182  19.457  0.00  0.00    +0.000 C 
BRANCH  18  22
ATOM     22  C   UNL     1       4.848   4.083  16.974  0.00  0.00    +0.000 A 
ATOM     23  C   UNL     1       4.639   4.120  15.578  0.00  0.00    +0.000 A 
ATOM     24  C   UNL     1       5.654   4.483  14.687  0.00  0.00    +0.000 A 
ATOM     25  C   UNL     1       6.913   4.801  15.172  0.00  0.00    +0.000 A 
ATOM     26  F   UNL     1       7.877   5.172  14.321  0.00  0.00    +0.000 F 
ATOM     27  C   UNL     1       7.180   4.744  16.530  0.00  0.00    +0.000 A 
ATOM     28  C   UNL     1       6.159   4.387  17.415  0.00  0.00    +0.000 A 
ENDBRANCH  18  22
ENDBRANCH   2  18
TORSDOF 4
ENDMDL
MODEL 2
REMARK VINA RESULT:      -8.9      0.240      1.330
REMARK  Name = 
REMARK  4 active torsions:
REMARK  status: ('A' for Active; 'I' for Inactive)
REMARK    1  A    between atoms: C_2  and  C_3
REMARK    2  A    between atoms: C_6  and  N_7
REMARK    3  A    between atoms: C_8  and  C_10
REMARK    4  A    between atoms: C_10  and  C_11
REMARK                            x       y       z     vdW  Elec       q    Type
REMARK                         _______ _______ _______ _____ _____    ______ ____
ROOT
ATOM      1  N   UNL     1       3.151   6.030  18.584  0.00  0.00    +0.000 N 
ATOM      2  C   UNL     1       2.613   4.819  18.169  0.00  0.00    +0.000 C 
ATOM      3  O   UNL     1       1.427   4.641  17.891  0.00  0.00    +0.000 OA
ATOM      4  H   UNL     1       4.153   6.054  18.726  0.00  0.00    +0.000 HD
ENDROOT
BRANCH   1   8
ATOM      5  C   UNL     1       1.145   9.680  19.297  0.00  0.00    +0.000 A 
ATOM      6  C   UNL     1       1.243   8.746  20.327  0.00  0.00    +0.000 A 
ATOM      7  C   UNL     1       1.891   7.523  20.115  0.00  0.00    +0.000 A 
ATOM      8  C   UNL     1       2.452   7.222  18.870  0.00  0.00    +0.000 A 
ATOM      9  C   UNL     1       2.360   8.166  17.844  0.00  0.00    +0.000 A 
ATOM     10  C   UNL     1       1.745   9.400  18.065  0.00  0.00    +0.000 A 
BRANCH   5  12
ATOM     11  O   UNL     1       1.101  11.791  20.283  0.00  0.00    +0.000 OA
ATOM     12  C   UNL     1       0.504  10.995  19.563  0.00  0.00    +0.000 C 
ATOM     13  N   UNL     1      -0.730  11.275  18.993  0.00  0.00    +0.000 N 
ATOM     14  C   UNL     1      -1.341  12.581  19.170  0.00  0.00    +0.000 C 
ATOM     15  C   UNL     1      -2.833  12.301  19.199  0.00  0.00    +0.000 C 
ATOM     16  C   UNL     1      -2.979  11.110  18.263  0.00  0.00    +0.000 C 
ATOM     17  C   UNL     1      -1.704  10.311  18.494  0.00  0.00    +0.000 C 
ENDBRANCH   5  12
ENDBRANCH   1   8
BRANCH   2  18
ATOM     18  C   UNL     1       3.676   3.641  18.096  0.00  0.00    +0.000 C 
ATOM     19  C   UNL     1       3.026   2.245  17.726  0.00  0.00    +0.000 C 
ATOM     20  C   UNL     1       3.962   1.586  18.748  0.00  0.00    +0.000 C 
ATOM     21  C   UNL     1       4.046   2.944  19.462  0.00  0.00    +0.000 C 
BRANCH  18  22
ATOM     22  C   UNL     1       4.867   4.107  17.102  0.00  0.00    +0.000 A 
ATOM     23  C   UNL     1       6.183   4.375  17.539  0.00  0.00    +0.000 A 
ATOM     24  C   UNL     1       7.209   4.696  16.645  0.00  0.00    +0.000 A 
ATOM     25  C   UNL     1       6.939   4.774  15.288  0.00  0.00    +0.000 A 
ATOM     26  F   UNL     1       7.927   5.057  14.430  0.00  0.00    +0.000 F 
ATOM     27  C   UNL     1       5.657   4.556  14.811  0.00  0.00    +0.000 A 
ATOM     28  C   UNL     1       4.638   4.229  15.710  0.00  0.00    +0.000 A 
ENDBRANCH  18  22
ENDBRANCH   2  18
TORSDOF 4
ENDMDL
MODEL 3
REMARK VINA RESULT:      -8.6      1.253      1.848
REMARK  Name = 
REMARK  4 active torsions:
REMARK  status: ('A' for Active; 'I' for Inactive)
REMARK    1  A    between atoms: C_2  and  C_3
REMARK    2  A    between atoms: C_6  and  N_7
REMARK    3  A    between atoms: C_8  and  C_10
REMARK    4  A    between atoms: C_10  and  C_11
REMARK                            x       y       z     vdW  Elec       q    Type
REMARK                         _______ _______ _______ _____ _____    ______ ____
ROOT
ATOM      1  N   UNL     1       3.139   6.223  18.604  0.00  0.00    +0.000 N 
ATOM      2  C   UNL     1       2.655   5.002  18.152  0.00  0.00    +0.000 C 
ATOM      3  O   UNL     1       1.512   4.816  17.734  0.00  0.00    +0.000 OA
ATOM      4  H   UNL     1       4.115   6.252  18.867  0.00  0.00    +0.000 HD
ENDROOT
BRANCH   1   8
ATOM      5  C   UNL     1       0.888   9.736  19.271  0.00  0.00    +0.000 A 
ATOM      6  C   UNL     1       1.345   9.456  17.984  0.00  0.00    +0.000 A 
ATOM      7  C   UNL     1       2.104   8.306  17.737  0.00  0.00    +0.000 A 
ATOM      8  C   UNL     1       2.411   7.420  18.775  0.00  0.00    +0.000 A 
ATOM      9  C   UNL     1       1.942   7.699  20.060  0.00  0.00    +0.000 A 
ATOM     10  C   UNL     1       1.155   8.829  20.301  0.00  0.00    +0.000 A 
BRANCH   5  12
ATOM     11  O   UNL     1      -1.182  10.769  19.557  0.00  0.00    +0.000 OA
ATOM     12  C   UNL     1       0.035  10.933  19.498  0.00  0.00    +0.000 C 
ATOM     13  N   UNL     1       0.634  12.177  19.636  0.00  0.00    +0.000 N 
ATOM     14  C   UNL     1      -0.168  13.349  19.939  0.00  0.00    +0.000 C 
ATOM     15  C   UNL     1       0.544  14.489  19.231  0.00  0.00    +0.000 C 
ATOM     16  C   UNL     1       2.007  14.080  19.304  0.00  0.00    +0.000 C 
ATOM     17  C   UNL     1       1.965  12.563  19.182  0.00  0.00    +0.000 C 
ENDBRANCH   5  12
ENDBRANCH   1   8
BRANCH   2  18
ATOM     18  C   UNL     1       3.719   3.825  18.237  0.00  0.00    +0.000 C 
ATOM     19  C   UNL     1       3.062   2.390  18.105  0.00  0.00    +0.000 C 
ATOM     20  C   UNL     1       4.025   1.896  19.192  0.00  0.00    +0.000 C 
ATOM     21  C   UNL     1       4.124   3.348  19.685  0.00  0.00    +0.000 C 
BRANCH  18  22
ATOM     22  C   UNL     1       4.884   4.129  17.153  0.00  0.00    +0.000 A 
ATOM     23  C   UNL     1       4.668   4.115  15.758  0.00  0.00    +0.000 A 
ATOM     24  C   UNL     1       5.673   4.461  14.849  0.00  0.00    +0.000 A 
ATOM     25  C   UNL     1       6.929   4.816  15.316  0.00  0.00    +0.000 A 
ATOM     26  F   UNL     1       7.883   5.171  14.448  0.00  0.00    +0.000 F 
ATOM     27  C   UNL     1       7.203   4.810  16.674  0.00  0.00    +0.000 A 
ATOM     28  C   UNL     1       6.192   4.469  17.576  0.00  0.00    +0.000 A 
ENDBRANCH  18  22
ENDBRANCH   2  18
TORSDOF 4
ENDMDL
MODEL 4
REMARK VINA RESULT:      -8.5      0.979      1.028
REMARK  Name = 
REMARK  4 active torsions:
REMARK  status: ('A' for Active; 'I' for Inactive)
REMARK    1  A    between atoms: C_2  and  C_3
REMARK    2  A    between atoms: C_6  and  N_7
REMARK    3  A    between atoms: C_8  and  C_10
REMARK    4  A    between atoms: C_10  and  C_11
REMARK                            x       y       z     vdW  Elec       q    Type
REMARK                         _______ _______ _______ _____ _____    ______ ____
ROOT
ATOM      1  N   UNL     1       2.632   5.973  18.353  0.00  0.00    +0.000 N 
ATOM      2  C   UNL     1       3.755   5.282  18.790  0.00  0.00    +0.000 C 
ATOM      3  O   UNL     1       4.508   5.668  19.684  0.00  0.00    +0.000 OA
ATOM      4  H   UNL     1       2.067   5.516  17.649  0.00  0.00    +0.000 HD
ENDROOT
BRANCH   1   8
ATOM      5  C   UNL     1       1.281   9.748  19.685  0.00  0.00    +0.000 A 
ATOM      6  C   UNL     1       1.723   9.610  18.370  0.00  0.00    +0.000 A 
ATOM      7  C   UNL     1       2.188   8.373  17.905  0.00  0.00    +0.000 A 
ATOM      8  C   UNL     1       2.213   7.260  18.752  0.00  0.00    +0.000 A 
ATOM      9  C   UNL     1       1.760   7.401  20.065  0.00  0.00    +0.000 A 
ATOM     10  C   UNL     1       1.263   8.626  20.519  0.00  0.00    +0.000 A 
BRANCH   5  12
ATOM     11  O   UNL     1       1.374  11.683  20.981  0.00  0.00    +0.000 OA
ATOM     12  C   UNL     1       0.738  11.056  20.137  0.00  0.00    +0.000 C 
ATOM     13  N   UNL     1      -0.454  11.520  19.596  0.00  0.00    +0.000 N 
ATOM     14  C   UNL     1      -0.965  12.830  19.959  0.00  0.00    +0.000 C 
ATOM     15  C   UNL     1      -2.475  12.672  19.919  0.00  0.00    +0.000 C 
ATOM     16  C   UNL     1      -2.686  11.652  18.810  0.00  0.00    +0.000 C 
ATOM     17  C   UNL     1      -1.485  10.725  18.939  0.00  0.00    +0.000 C 
ENDBRANCH   5  12
ENDBRANCH   1   8
BRANCH   2  18
ATOM     18  C   UNL     1       4.010   3.921  18.010  0.00  0.00    +0.000 C 
ATOM     19  C   UNL     1       2.673   3.243  17.501  0.00  0.00    +0.000 C 
ATOM     20  C   UNL     1       3.265   1.882  17.890  0.00  0.00    +0.000 C 
ATOM     21  C   UNL     1       4.162   2.623  18.893  0.00  0.00    +0.000 C 
BRANCH  18  22
ATOM     22  C   UNL     1       5.096   4.213  16.844  0.00  0.00    +0.000 A 
ATOM     23  C   UNL     1       4.766   4.268  15.473  0.00  0.00    +0.000 A 
ATOM     24  C   UNL     1       5.710   4.603  14.497  0.00  0.00    +0.000 A 
ATOM     25  C   UNL     1       7.017   4.876  14.870  0.00  0.00    +0.000 A 
ATOM     26  F   UNL     1       7.914   5.221  13.938  0.00  0.00    +0.000 F 
ATOM     27  C   UNL     1       7.401   4.801  16.199  0.00  0.00    +0.000 A 
ATOM     28  C   UNL     1       6.450   4.471  17.169  0.00  0.00    +0.000 A 
ENDBRANCH  18  22
ENDBRANCH   2  18
TORSDOF 4
ENDMDL
MODEL 5
REMARK VINA RESULT:      -8.5      1.323      2.321
REMARK  Name = 
REMARK  4 active torsions:
REMARK  status: ('A' for Active; 'I' for Inactive)
REMARK    1  A    between atoms: C_2  and  C_3
REMARK    2  A    between atoms: C_6  and  N_7
REMARK    3  A    between atoms: C_8  and  C_10
REMARK    4  A    between atoms: C_10  and  C_11
REMARK                            x       y       z     vdW  Elec       q    Type
REMARK                         _______ _______ _______ _____ _____    ______ ____
ROOT
ATOM      1  N   UNL     1       3.081   6.143  18.644  0.00  0.00    +0.000 N 
ATOM      2  C   UNL     1       2.595   4.915  18.216  0.00  0.00    +0.000 C 
ATOM      3  O   UNL     1       1.427   4.702  17.889  0.00  0.00    +0.000 OA
ATOM      4  H   UNL     1       4.075   6.196  18.829  0.00  0.00    +0.000 HD
ENDROOT
BRANCH   1   8
ATOM      5  C   UNL     1       0.923   9.730  19.220  0.00  0.00    +0.000 A 
ATOM      6  C   UNL     1       1.184   8.910  20.317  0.00  0.00    +0.000 A 
ATOM      7  C   UNL     1       1.886   7.709  20.153  0.00  0.00    +0.000 A 
ATOM      8  C   UNL     1       2.338   7.318  18.889  0.00  0.00    +0.000 A 
ATOM      9  C   UNL     1       2.083   8.147  17.794  0.00  0.00    +0.000 A 
ATOM     10  C   UNL     1       1.413   9.362  17.963  0.00  0.00    +0.000 A 
BRANCH   5  12
ATOM     11  O   UNL     1      -0.979  11.003  19.663  0.00  0.00    +0.000 OA
ATOM     12  C   UNL     1       0.227  11.027  19.428  0.00  0.00    +0.000 C 
ATOM     13  N   UNL     1       0.955  12.207  19.355  0.00  0.00    +0.000 N 
ATOM     14  C   UNL     1       0.318  13.482  19.635  0.00  0.00    +0.000 C 
ATOM     15  C   UNL     1       1.028  14.468  18.724  0.00  0.00    +0.000 C 
ATOM     16  C   UNL     1       2.442  13.912  18.648  0.00  0.00    +0.000 C 
ATOM     17  C   UNL     1       2.239  12.404  18.693  0.00  0.00    +0.000 C 
ENDBRANCH   5  12
ENDBRANCH   1   8
BRANCH   2  18
ATOM     18  C   UNL     1       3.692   3.766  18.199  0.00  0.00    +0.000 C 
ATOM     19  C   UNL     1       3.082   2.334  17.906  0.00  0.00    +0.000 C 
ATOM     20  C   UNL     1       4.041   1.758  18.955  0.00  0.00    +0.000 C 
ATOM     21  C   UNL     1       4.088   3.152  19.598  0.00  0.00    +0.000 C 
BRANCH  18  22
ATOM     22  C   UNL     1       4.865   4.214  17.175  0.00  0.00    +0.000 A 
ATOM     23  C   UNL     1       6.189   4.486  17.583  0.00  0.00    +0.000 A 
ATOM     24  C   UNL     1       7.199   4.792  16.666  0.00  0.00    +0.000 A 
ATOM     25  C   UNL     1       6.903   4.849  15.312  0.00  0.00    +0.000 A 
ATOM     26  F   UNL     1       7.876   5.117  14.433  0.00  0.00    +0.000 F 
ATOM     27  C   UNL     1       5.612   4.626  14.863  0.00  0.00    +0.000 A 
ATOM     28  C   UNL     1       4.610   4.315  15.786  0.00  0.00    +0.000 A 
ENDBRANCH  18  22
ENDBRANCH   2  18
TORSDOF 4
ENDMDL
MODEL 6
REMARK VINA RESULT:      -8.5      1.322      1.668
REMARK  Name = 
REMARK  4 active torsions:
REMARK  status: ('A' for Active; 'I' for Inactive)
REMARK    1  A    between atoms: C_2  and  C_3
REMARK    2  A    between atoms: C_6  and  N_7
REMARK    3  A    between atoms: C_8  and  C_10
REMARK    4  A    between atoms: C_10  and  C_11
REMARK                            x       y       z     vdW  Elec       q    Type
REMARK                         _______ _______ _______ _____ _____    ______ ____
ROOT
ATOM      1  N   UNL     1       3.188   6.153  18.579  0.00  0.00    +0.000 N 
ATOM      2  C   UNL     1       2.680   4.960  18.083  0.00  0.00    +0.000 C 
ATOM      3  O   UNL     1       1.530   4.809  17.669  0.00  0.00    +0.000 OA
ATOM      4  H   UNL     1       4.167   6.156  18.834  0.00  0.00    +0.000 HD
ENDROOT
BRANCH   1   8
ATOM      5  C   UNL     1       0.992   9.667  19.410  0.00  0.00    +0.000 A 
ATOM      6  C   UNL     1       1.484   9.461  18.122  0.00  0.00    +0.000 A 
ATOM      7  C   UNL     1       2.226   8.312  17.822  0.00  0.00    +0.000 A 
ATOM      8  C   UNL     1       2.480   7.353  18.808  0.00  0.00    +0.000 A 
ATOM      9  C   UNL     1       1.977   7.558  20.094  0.00  0.00    +0.000 A 
ATOM     10  C   UNL     1       1.208   8.688  20.386  0.00  0.00    +0.000 A 
BRANCH   5  12
ATOM     11  O   UNL     1       0.144  11.765  18.853  0.00  0.00    +0.000 OA
ATOM     12  C   UNL     1       0.159  10.865  19.690  0.00  0.00    +0.000 C 
ATOM     13  N   UNL     1      -0.568  10.926  20.871  0.00  0.00    +0.000 N 
ATOM     14  C   UNL     1      -1.454  12.047  21.132  0.00  0.00    +0.000 C 
ATOM     15  C   UNL     1      -1.395  12.234  22.638  0.00  0.00    +0.000 C 
ATOM     16  C   UNL     1      -1.195  10.817  23.154  0.00  0.00    +0.000 C 
ATOM     17  C   UNL     1      -0.323  10.165  22.091  0.00  0.00    +0.000 C 
ENDBRANCH   5  12
ENDBRANCH   1   8
BRANCH   2  18
ATOM     18  C   UNL     1       3.726   3.763  18.108  0.00  0.00    +0.000 C 
ATOM     19  C   UNL     1       3.044   2.345  17.931  0.00  0.00    +0.000 C 
ATOM     20  C   UNL     1       4.014   1.795  18.985  0.00  0.00    +0.000 C 
ATOM     21  C   UNL     1       4.144   3.226  19.531  0.00  0.00    +0.000 C 
BRANCH  18  22
ATOM     22  C   UNL     1       4.880   4.090  17.019  0.00  0.00    +0.000 A 
ATOM     23  C   UNL     1       4.656   4.084  15.625  0.00  0.00    +0.000 A 
ATOM     24  C   UNL     1       5.650   4.450  14.713  0.00  0.00    +0.000 A 
ATOM     25  C   UNL     1       6.905   4.816  15.175  0.00  0.00    +0.000 A 
ATOM     26  F   UNL     1       7.850   5.189  14.303  0.00  0.00    +0.000 F 
ATOM     27  C   UNL     1       7.188   4.802  16.531  0.00  0.00    +0.000 A 
ATOM     28  C   UNL     1       6.187   4.442  17.436  0.00  0.00    +0.000 A 
ENDBRANCH  18  22
ENDBRANCH   2  18
TORSDOF 4
ENDMDL
MODEL 7
REMARK VINA RESULT:      -8.4      2.114      3.399
REMARK  Name = 
REMARK  4 active torsions:
REMARK  status: ('A' for Active; 'I' for Inactive)
REMARK    1  A    between atoms: C_2  and  C_3
REMARK    2  A    between atoms: C_6  and  N_7
REMARK    3  A    between atoms: C_8  and  C_10
REMARK    4  A    between atoms: C_10  and  C_11
REMARK                            x       y       z     vdW  Elec       q    Type
REMARK                         _______ _______ _______ _____ _____    ______ ____
ROOT
ATOM      1  N   UNL     1       3.383   6.444  17.985  0.00  0.00    +0.000 N 
ATOM      2  C   UNL     1       4.661   6.417  17.442  0.00  0.00    +0.000 C 
ATOM      3  O   UNL     1       5.396   7.399  17.341  0.00  0.00    +0.000 OA
ATOM      4  H   UNL     1       2.906   5.555  18.061  0.00  0.00    +0.000 HD
ENDROOT
BRANCH   1   8
ATOM      5  C   UNL     1       1.130   9.737  19.376  0.00  0.00    +0.000 A 
ATOM      6  C   UNL     1       1.653   9.769  18.084  0.00  0.00    +0.000 A 
ATOM      7  C   UNL     1       2.414   8.697  17.601  0.00  0.00    +0.000 A 
ATOM      8  C   UNL     1       2.657   7.579  18.406  0.00  0.00    +0.000 A 
ATOM      9  C   UNL     1       2.123   7.548  19.696  0.00  0.00    +0.000 A 
ATOM     10  C   UNL     1       1.335   8.601  20.166  0.00  0.00    +0.000 A 
BRANCH   5  12
ATOM     11  O   UNL     1       0.623  11.463  20.859  0.00  0.00    +0.000 OA
ATOM     12  C   UNL     1       0.277  10.861  19.845  0.00  0.00    +0.000 C 
ATOM     13  N   UNL     1      -0.865  11.191  19.128  0.00  0.00    +0.000 N 
ATOM     14  C   UNL     1      -1.672  12.335  19.516  0.00  0.00    +0.000 C 
ATOM     15  C   UNL     1      -3.093  11.935  19.160  0.00  0.00    +0.000 C 
ATOM     16  C   UNL     1      -2.906  11.058  17.931  0.00  0.00    +0.000 C 
ATOM     17  C   UNL     1      -1.594  10.335  18.199  0.00  0.00    +0.000 C 
ENDBRANCH   5  12
ENDBRANCH   1   8
BRANCH   2  18
ATOM     18  C   UNL     1       5.105   4.980  16.930  0.00  0.00    +0.000 C 
ATOM     19  C   UNL     1       6.667   4.742  17.042  0.00  0.00    +0.000 C 
ATOM     20  C   UNL     1       6.612   4.026  15.686  0.00  0.00    +0.000 C 
ATOM     21  C   UNL     1       5.339   4.830  15.377  0.00  0.00    +0.000 C 
BRANCH  18  22
ATOM     22  C   UNL     1       4.204   3.877  17.702  0.00  0.00    +0.000 A 
ATOM     23  C   UNL     1       4.488   3.418  19.006  0.00  0.00    +0.000 A 
ATOM     24  C   UNL     1       3.645   2.527  19.677  0.00  0.00    +0.000 A 
ATOM     25  C   UNL     1       2.502   2.057  19.050  0.00  0.00    +0.000 A 
ATOM     26  F   UNL     1       1.683   1.223  19.702  0.00  0.00    +0.000 F 
ATOM     27  C   UNL     1       2.197   2.448  17.757  0.00  0.00    +0.000 A 
ATOM     28  C   UNL     1       3.041   3.344  17.095  0.00  0.00    +0.000 A 
ENDBRANCH  18  22
ENDBRANCH   2  18
TORSDOF 4
ENDMDL
MODEL 8
REMARK VINA RESULT:      -8.2      0.999      1.413
REMARK  Name = 
REMARK  4 active torsions:
REMARK  status: ('A' for Active; 'I' for Inactive)
REMARK    1  A    between atoms: C_2  and  C_3
REMARK    2  A    between atoms: C_6  and  N_7
REMARK    3  A    between atoms: C_8  and  C_10
REMARK    4  A    between atoms: C_10  and  C_11
REMARK                            x       y       z     vdW  Elec       q    Type
REMARK                         _______ _______ _______ _____ _____    ______ ____
ROOT
ATOM      1  N   UNL     1       2.882   5.894  18.879  0.00  0.00    +0.000 N 
ATOM      2  C   UNL     1       2.378   4.602  18.940  0.00  0.00    +0.000 C 
ATOM      3  O   UNL     1       1.229   4.316  19.279  0.00  0.00    +0.000 OA
ATOM      4  H   UNL     1       3.826   5.995  18.530  0.00  0.00    +0.000 HD
ENDROOT
BRANCH   1   8
ATOM      5  C   UNL     1       1.039   9.539  19.964  0.00  0.00    +0.000 A 
ATOM      6  C   UNL     1       1.136   8.519  20.909  0.00  0.00    +0.000 A 
ATOM      7  C   UNL     1       1.730   7.296  20.573  0.00  0.00    +0.000 A 
ATOM      8  C   UNL     1       2.238   7.082  19.287  0.00  0.00    +0.000 A 
ATOM      9  C   UNL     1       2.148   8.111  18.347  0.00  0.00    +0.000 A 
ATOM     10  C   UNL     1       1.587   9.343  18.691  0.00  0.00    +0.000 A 
BRANCH   5  12
ATOM     11  O   UNL     1       0.981  11.451  21.295  0.00  0.00    +0.000 OA
ATOM     12  C   UNL     1       0.457  10.848  20.361  0.00  0.00    +0.000 C 
ATOM     13  N   UNL     1      -0.641  11.340  19.669  0.00  0.00    +0.000 N 
ATOM     14  C   UNL     1      -1.179  12.653  19.983  0.00  0.00    +0.000 C 
ATOM     15  C   UNL     1      -2.671  12.520  19.733  0.00  0.00    +0.000 C 
ATOM     16  C   UNL     1      -2.742  11.522  18.587  0.00  0.00    +0.000 C 
ATOM     17  C   UNL     1      -1.583  10.574  18.862  0.00  0.00    +0.000 C 
ENDBRANCH   5  12
ENDBRANCH   1   8
BRANCH   2  18
ATOM     18  C   UNL     1       3.438   3.486  18.544  0.00  0.00    +0.000 C 
ATOM     19  C   UNL     1       2.804   2.305  17.700  0.00  0.00    +0.000 C 
ATOM     20  C   UNL     1       3.672   1.325  18.499  0.00  0.00    +0.000 C 
ATOM     21  C   UNL     1       3.719   2.370  19.624  0.00  0.00    +0.000 C 
BRANCH  18  22
ATOM     22  C   UNL     1       4.690   4.222  17.828  0.00  0.00    +0.000 A 
ATOM     23  C   UNL     1       4.741   4.496  16.444  0.00  0.00    +0.000 A 
ATOM     24  C   UNL     1       5.799   5.206  15.867  0.00  0.00    +0.000 A 
ATOM     25  C   UNL     1       6.845   5.646  16.663  0.00  0.00    +0.000 A 
ATOM     26  F   UNL     1       7.845   6.346  16.115  0.00  0.00    +0.000 F 
ATOM     27  C   UNL     1       6.861   5.371  18.020  0.00  0.00    +0.000 A 
ATOM     28  C   UNL     1       5.798   4.667  18.590  0.00  0.00    +0.000 A 
ENDBRANCH  18  22
ENDBRANCH   2  18
TORSDOF 4
ENDMDL
MODEL 9
REMARK VINA RESULT:      -8.0      2.464      3.865
REMARK  Name = 
REMARK  4 active torsions:
REMARK  status: ('A' for Active; 'I' for Inactive)
REMARK    1  A    between atoms: C_2  and  C_3
REMARK    2  A    between atoms: C_6  and  N_7
REMARK    3  A    between atoms: C_8  and  C_10
REMARK    4  A    between atoms: C_10  and  C_11
REMARK                            x       y       z     vdW  Elec       q    Type
REMARK                         _______ _______ _______ _____ _____    ______ ____
ROOT
ATOM      1  N   UNL     1       3.361   6.442  18.023  0.00  0.00    +0.000 N 
ATOM      2  C   UNL     1       4.623   6.448  17.445  0.00  0.00    +0.000 C 
ATOM      3  O   UNL     1       5.317   7.454  17.294  0.00  0.00    +0.000 OA
ATOM      4  H   UNL     1       2.921   5.537  18.138  0.00  0.00    +0.000 HD
ENDROOT
BRANCH   1   8
ATOM      5  C   UNL     1       1.027   9.689  19.390  0.00  0.00    +0.000 A 
ATOM      6  C   UNL     1       1.456   9.671  18.063  0.00  0.00    +0.000 A 
ATOM      7  C   UNL     1       2.241   8.613  17.587  0.00  0.00    +0.000 A 
ATOM      8  C   UNL     1       2.603   7.560  18.433  0.00  0.00    +0.000 A 
ATOM      9  C   UNL     1       2.162   7.577  19.758  0.00  0.00    +0.000 A 
ATOM     10  C   UNL     1       1.350   8.614  20.224  0.00  0.00    +0.000 A 
BRANCH   5  12
ATOM     11  O   UNL     1      -1.041  10.539  20.048  0.00  0.00    +0.000 OA
ATOM     12  C   UNL     1       0.146  10.792  19.856  0.00  0.00    +0.000 C 
ATOM     13  N   UNL     1       0.689  12.053  20.061  0.00  0.00    +0.000 N 
ATOM     14  C   UNL     1      -0.130  13.128  20.594  0.00  0.00    +0.000 C 
ATOM     15  C   UNL     1       0.418  14.383  19.938  0.00  0.00    +0.000 C 
ATOM     16  C   UNL     1       1.899  14.072  19.782  0.00  0.00    +0.000 C 
ATOM     17  C   UNL     1       1.925  12.578  19.492  0.00  0.00    +0.000 C 
ENDBRANCH   5  12
ENDBRANCH   1   8
BRANCH   2  18
ATOM     18  C   UNL     1       5.110   5.015  16.962  0.00  0.00    +0.000 C 
ATOM     19  C   UNL     1       6.671   4.807  17.121  0.00  0.00    +0.000 C 
ATOM     20  C   UNL     1       6.669   4.077  15.772  0.00  0.00    +0.000 C 
ATOM     21  C   UNL     1       5.391   4.853  15.418  0.00  0.00    +0.000 C 
BRANCH  18  22
ATOM     22  C   UNL     1       4.208   3.902  17.719  0.00  0.00    +0.000 A 
ATOM     23  C   UNL     1       4.483   3.438  19.023  0.00  0.00    +0.000 A 
ATOM     24  C   UNL     1       3.640   2.538  19.683  0.00  0.00    +0.000 A 
ATOM     25  C   UNL     1       2.504   2.066  19.042  0.00  0.00    +0.000 A 
ATOM     26  F   UNL     1       1.684   1.224  19.683  0.00  0.00    +0.000 F 
ATOM     27  C   UNL     1       2.208   2.463  17.749  0.00  0.00    +0.000 A 
ATOM     28  C   UNL     1       3.052   3.367  17.099  0.00  0.00    +0.000 A 
ENDBRANCH  18  22
ENDBRANCH   2  18
TORSDOF 4
ENDMDL
