MODEL 1
REMARK VINA RESULT:      -8.3      0.000      0.000
REMARK  Name = 
REMARK  7 active torsions:
REMARK  status: ('A' for Active; 'I' for Inactive)
REMARK    1  A    between atoms: C_1  and  O_2
REMARK    2  A    between atoms: O_2  and  C_3
REMARK    3  A    between atoms: C_6  and  N_7
REMARK    4  A    between atoms: C_8  and  C_10
REMARK    5  A    between atoms: C_13  and  N_14
REMARK    6  A    between atoms: C_15  and  C_17
REMARK    7  A    between atoms: C_17  and  C_18
REMARK                            x       y       z     vdW  Elec       q    Type
REMARK                         _______ _______ _______ _____ _____    ______ ____
ROOT
ATOM      1  C   UNL     1       0.000  10.261  21.424  0.00  0.00    +0.000 A 
ATOM      2  C   UNL     1      -0.065  10.463  20.044  0.00  0.00    +0.000 A 
ATOM      3  C   UNL     1       0.645   9.613  19.172  0.00  0.00    +0.000 A 
ATOM      4  C   UNL     1       1.422   8.558  19.665  0.00  0.00    +0.000 A 
ATOM      5  C   UNL     1       1.490   8.368  21.046  0.00  0.00    +0.000 A 
ATOM      6  C   UNL     1       0.785   9.209  21.912  0.00  0.00    +0.000 A 
ENDROOT
BRANCH   1   8
ATOM      7  N   UNL     1      -0.968  12.439  22.060  0.00  0.00    +0.000 N 
ATOM      8  C   UNL     1      -0.655  11.140  22.436  0.00  0.00    +0.000 C 
ATOM      9  O   UNL     1      -0.887  10.635  23.531  0.00  0.00    +0.000 OA
ATOM     10  H   UNL     1      -0.781  12.734  21.107  0.00  0.00    +0.000 HD
BRANCH   7  14
ATOM     11  C   UNL     1      -3.026  15.264  24.485  0.00  0.00    +0.000 A 
ATOM     12  C   UNL     1      -1.680  15.458  24.182  0.00  0.00    +0.000 A 
ATOM     13  C   UNL     1      -0.991  14.537  23.385  0.00  0.00    +0.000 A 
ATOM     14  C   UNL     1      -1.625  13.404  22.871  0.00  0.00    +0.000 A 
ATOM     15  C   UNL     1      -2.979  13.215  23.174  0.00  0.00    +0.000 A 
ATOM     16  C   UNL     1      -3.670  14.140  23.971  0.00  0.00    +0.000 A 
BRANCH  11  18
ATOM     17  C   UNL     1      -3.365  17.451  25.341  0.00  0.00    +0.000 C 
ATOM     18  O   UNL     1      -3.803  16.098  25.242  0.00  0.00    +0.000 OA
ENDBRANCH  11  18
ENDBRANCH   7  14
ENDBRANCH   1   8
BRANCH   4  19
ATOM     19  N   UNL     1       2.185   7.679  18.866  0.00  0.00    +0.000 N 
ATOM     20  C   UNL     1       2.297   6.303  18.993  0.00  0.00    +0.000 C 
ATOM     21  O   UNL     1       1.827   5.630  19.906  0.00  0.00    +0.000 OA
ATOM     22  H   UNL     1       2.723   8.108  18.123  0.00  0.00    +0.000 HD
BRANCH  20  23
ATOM     23  C   UNL     1       3.023   5.655  17.823  0.00  0.00    +0.000 C 
BRANCH  23  24
ATOM     24  C   UNL     1       4.412   5.190  18.121  0.00  0.00    +0.000 A 
ATOM     25  C   UNL     1       4.726   4.072  18.876  0.00  0.00    +0.000 A 
ATOM     26  N   UNL     1       6.087   3.975  18.898  0.00  0.00    +0.000 N 
ATOM     27  C   UNL     1       6.620   5.211  18.640  0.00  0.00    +0.000 A 
ATOM     28  C   UNL     1       7.858   5.767  18.976  0.00  0.00    +0.000 A 
ATOM     29  C   UNL     1       8.151   7.024  18.447  0.00  0.00    +0.000 A 
ATOM     30  C   UNL     1       7.290   7.629  17.532  0.00  0.00    +0.000 A 
ATOM     31  C   UNL     1       6.038   7.068  17.239  0.00  0.00    +0.000 A 
ATOM     32  C   UNL     1       5.651   5.885  17.896  0.00  0.00    +0.000 A 
ATOM     33  H   UNL     1       6.624   3.148  19.123  0.00  0.00    +0.000 HD
ENDBRANCH  23  24
ENDBRANCH  20  23
ENDBRANCH   4  19
TORSDOF 6
ENDMDL
MODEL 2
REMARK VINA RESULT:      -8.3      2.388      3.854
REMARK  Name = 
REMARK  7 active torsions:
REMARK  status: ('A' for Active; 'I' for Inactive)
REMARK    1  A    between atoms: C_1  and  O_2
REMARK    2  A    between atoms: O_2  and  C_3
REMARK    3  A    between atoms: C_6  and  N_7
REMARK    4  A    between atoms: C_8  and  C_10
REMARK    5  A    between atoms: C_13  and  N_14
REMARK    6  A    between atoms: C_15  and  C_17
REMARK    7  A    between atoms: C_17  and  C_18
REMARK                            x       y       z     vdW  Elec       q    Type
REMARK                         _______ _______ _______ _____ _____    ______ ____
ROOT
ATOM      1  C   UNL     1       1.214   9.484  19.617  0.00  0.00    +0.000 A 
ATOM      2  C   UNL     1       1.584   9.515  18.270  0.00  0.00    +0.000 A 
ATOM      3  C   UNL     1       2.191   8.389  17.679  0.00  0.00    +0.000 A 
ATOM      4  C   UNL     1       2.435   7.226  18.420  0.00  0.00    +0.000 A 
ATOM      5  C   UNL     1       2.071   7.206  19.768  0.00  0.00    +0.000 A 
ATOM      6  C   UNL     1       1.467   8.321  20.355  0.00  0.00    +0.000 A 
ENDROOT
BRANCH   1   8
ATOM      7  N   UNL     1      -0.740  10.635  20.588  0.00  0.00    +0.000 N 
ATOM      8  C   UNL     1       0.629  10.640  20.356  0.00  0.00    +0.000 C 
ATOM      9  O   UNL     1       1.416  11.508  20.724  0.00  0.00    +0.000 OA
ATOM     10  H   UNL     1      -1.287   9.835  20.287  0.00  0.00    +0.000 HD
BRANCH   7  14
ATOM     11  C   UNL     1      -2.879  13.551  22.827  0.00  0.00    +0.000 A 
ATOM     12  C   UNL     1      -2.809  13.655  21.440  0.00  0.00    +0.000 A 
ATOM     13  C   UNL     1      -2.108  12.703  20.691  0.00  0.00    +0.000 A 
ATOM     14  C   UNL     1      -1.465  11.625  21.305  0.00  0.00    +0.000 A 
ATOM     15  C   UNL     1      -1.542  11.523  22.699  0.00  0.00    +0.000 A 
ATOM     16  C   UNL     1      -2.246  12.477  23.449  0.00  0.00    +0.000 A 
BRANCH  11  18
ATOM     17  C   UNL     1      -4.891  14.710  23.316  0.00  0.00    +0.000 C 
ATOM     18  O   UNL     1      -3.540  14.413  23.660  0.00  0.00    +0.000 OA
ENDBRANCH  11  18
ENDBRANCH   7  14
ENDBRANCH   1   8
BRANCH   4  19
ATOM     19  N   UNL     1       3.063   6.067  17.916  0.00  0.00    +0.000 N 
ATOM     20  C   UNL     1       4.423   5.817  17.818  0.00  0.00    +0.000 C 
ATOM     21  O   UNL     1       5.316   6.625  18.057  0.00  0.00    +0.000 OA
ATOM     22  H   UNL     1       2.446   5.340  17.574  0.00  0.00    +0.000 HD
BRANCH  20  23
ATOM     23  C   UNL     1       4.738   4.378  17.438  0.00  0.00    +0.000 C 
BRANCH  23  24
ATOM     24  C   UNL     1       3.729   3.371  17.886  0.00  0.00    +0.000 A 
ATOM     25  C   UNL     1       3.001   2.551  17.039  0.00  0.00    +0.000 A 
ATOM     26  N   UNL     1       2.210   1.765  17.827  0.00  0.00    +0.000 N 
ATOM     27  C   UNL     1       2.039   2.386  19.036  0.00  0.00    +0.000 A 
ATOM     28  C   UNL     1       1.021   2.280  19.989  0.00  0.00    +0.000 A 
ATOM     29  C   UNL     1       1.208   2.961  21.193  0.00  0.00    +0.000 A 
ATOM     30  C   UNL     1       2.412   3.612  21.462  0.00  0.00    +0.000 A 
ATOM     31  C   UNL     1       3.402   3.735  20.476  0.00  0.00    +0.000 A 
ATOM     32  C   UNL     1       3.160   3.201  19.196  0.00  0.00    +0.000 A 
ATOM     33  H   UNL     1       1.770   0.896  17.555  0.00  0.00    +0.000 HD
ENDBRANCH  23  24
ENDBRANCH  20  23
ENDBRANCH   4  19
TORSDOF 6
ENDMDL
MODEL 3
REMARK VINA RESULT:      -8.2      2.318      3.655
REMARK  Name = 
REMARK  7 active torsions:
REMARK  status: ('A' for Active; 'I' for Inactive)
REMARK    1  A    between atoms: C_1  and  O_2
REMARK    2  A    between atoms: O_2  and  C_3
REMARK    3  A    between atoms: C_6  and  N_7
REMARK    4  A    between atoms: C_8  and  C_10
REMARK    5  A    between atoms: C_13  and  N_14
REMARK    6  A    between atoms: C_15  and  C_17
REMARK    7  A    between atoms: C_17  and  C_18
REMARK                            x       y       z     vdW  Elec       q    Type
REMARK                         _______ _______ _______ _____ _____    ______ ____
ROOT
ATOM      1  C   UNL     1       0.902   9.815  19.584  0.00  0.00    +0.000 A 
ATOM      2  C   UNL     1       1.276   9.667  18.246  0.00  0.00    +0.000 A 
ATOM      3  C   UNL     1       1.968   8.513  17.830  0.00  0.00    +0.000 A 
ATOM      4  C   UNL     1       2.294   7.499  18.739  0.00  0.00    +0.000 A 
ATOM      5  C   UNL     1       1.926   7.658  20.076  0.00  0.00    +0.000 A 
ATOM      6  C   UNL     1       1.237   8.802  20.489  0.00  0.00    +0.000 A 
ENDROOT
BRANCH   1   8
ATOM      7  N   UNL     1      -0.177  10.987  21.468  0.00  0.00    +0.000 N 
ATOM      8  C   UNL     1       0.228  11.024  20.141  0.00  0.00    +0.000 C 
ATOM      9  O   UNL     1       0.100  11.979  19.378  0.00  0.00    +0.000 OA
ATOM     10  H   UNL     1       0.031  10.163  22.022  0.00  0.00    +0.000 HD
BRANCH   7  14
ATOM     11  C   UNL     1      -2.110  14.101  23.626  0.00  0.00    +0.000 A 
ATOM     12  C   UNL     1      -0.880  14.338  23.017  0.00  0.00    +0.000 A 
ATOM     13  C   UNL     1      -0.233  13.322  22.304  0.00  0.00    +0.000 A 
ATOM     14  C   UNL     1      -0.796  12.050  22.179  0.00  0.00    +0.000 A 
ATOM     15  C   UNL     1      -2.034  11.818  22.789  0.00  0.00    +0.000 A 
ATOM     16  C   UNL     1      -2.684  12.837  23.503  0.00  0.00    +0.000 A 
BRANCH  11  18
ATOM     17  C   UNL     1      -2.261  15.467  25.561  0.00  0.00    +0.000 C 
ATOM     18  O   UNL     1      -2.838  15.015  24.339  0.00  0.00    +0.000 OA
ENDBRANCH  11  18
ENDBRANCH   7  14
ENDBRANCH   1   8
BRANCH   4  19
ATOM     19  N   UNL     1       3.009   6.326  18.414  0.00  0.00    +0.000 N 
ATOM     20  C   UNL     1       4.245   6.235  17.792  0.00  0.00    +0.000 C 
ATOM     21  O   UNL     1       4.876   7.175  17.317  0.00  0.00    +0.000 OA
ATOM     22  H   UNL     1       2.559   5.451  18.651  0.00  0.00    +0.000 HD
BRANCH  20  23
ATOM     23  C   UNL     1       4.815   4.824  17.805  0.00  0.00    +0.000 C 
BRANCH  23  24
ATOM     24  C   UNL     1       3.812   3.740  18.032  0.00  0.00    +0.000 A 
ATOM     25  C   UNL     1       3.155   3.047  17.027  0.00  0.00    +0.000 A 
ATOM     26  N   UNL     1       2.346   2.133  17.637  0.00  0.00    +0.000 N 
ATOM     27  C   UNL     1       2.090   2.555  18.915  0.00  0.00    +0.000 A 
ATOM     28  C   UNL     1       1.025   2.282  19.779  0.00  0.00    +0.000 A 
ATOM     29  C   UNL     1       1.126   2.771  21.082  0.00  0.00    +0.000 A 
ATOM     30  C   UNL     1       2.293   3.396  21.518  0.00  0.00    +0.000 A 
ATOM     31  C   UNL     1       3.332   3.690  20.624  0.00  0.00    +0.000 A 
ATOM     32  C   UNL     1       3.177   3.357  19.265  0.00  0.00    +0.000 A 
ATOM     33  H   UNL     1       1.946   1.309  17.209  0.00  0.00    +0.000 HD
ENDBRANCH  23  24
ENDBRANCH  20  23
ENDBRANCH   4  19
TORSDOF 6
ENDMDL
MODEL 4
REMARK VINA RESULT:      -8.2      1.612      2.091
REMARK  Name = 
REMARK  7 active torsions:
REMARK  status: ('A' for Active; 'I' for Inactive)
REMARK    1  A    between atoms: C_1  and  O_2
REMARK    2  A    between atoms: O_2  and  C_3
REMARK    3  A    between atoms: C_6  and  N_7
REMARK    4  A    between atoms: C_8  and  C_10
REMARK    5  A    between atoms: C_13  and  N_14
REMARK    6  A    between atoms: C_15  and  C_17
REMARK    7  A    between atoms: C_17  and  C_18
REMARK                            x       y       z     vdW  Elec       q    Type
REMARK                         _______ _______ _______ _____ _____    ______ ____
ROOT
ATOM      1  C   UNL     1       0.272   9.995  20.607  0.00  0.00    +0.000 A 
ATOM      2  C   UNL     1       0.936   9.737  19.406  0.00  0.00    +0.000 A 
ATOM      3  C   UNL     1       1.689   8.555  19.255  0.00  0.00    +0.000 A 
ATOM      4  C   UNL     1       1.788   7.624  20.296  0.00  0.00    +0.000 A 
ATOM      5  C   UNL     1       1.130   7.893  21.497  0.00  0.00    +0.000 A 
ATOM      6  C   UNL     1       0.381   9.064  21.647  0.00  0.00    +0.000 A 
ENDROOT
BRANCH   1   8
ATOM      7  N   UNL     1      -1.147  11.335  22.116  0.00  0.00    +0.000 N 
ATOM      8  C   UNL     1      -0.494  11.242  20.895  0.00  0.00    +0.000 C 
ATOM      9  O   UNL     1      -0.472  12.110  20.025  0.00  0.00    +0.000 OA
ATOM     10  H   UNL     1      -1.050  10.578  22.784  0.00  0.00    +0.000 HD
BRANCH   7  14
ATOM     11  C   UNL     1      -3.275  14.734  23.536  0.00  0.00    +0.000 A 
ATOM     12  C   UNL     1      -3.954  13.720  22.863  0.00  0.00    +0.000 A 
ATOM     13  C   UNL     1      -3.266  12.597  22.391  0.00  0.00    +0.000 A 
ATOM     14  C   UNL     1      -1.889  12.455  22.579  0.00  0.00    +0.000 A 
ATOM     15  C   UNL     1      -1.212  13.474  23.259  0.00  0.00    +0.000 A 
ATOM     16  C   UNL     1      -1.902  14.600  23.735  0.00  0.00    +0.000 A 
BRANCH  11  18
ATOM     17  C   UNL     1      -5.265  15.904  24.086  0.00  0.00    +0.000 C 
ATOM     18  O   UNL     1      -3.840  15.870  24.050  0.00  0.00    +0.000 OA
ENDBRANCH  11  18
ENDBRANCH   7  14
ENDBRANCH   1   8
BRANCH   4  19
ATOM     19  N   UNL     1       2.543   6.433  20.240  0.00  0.00    +0.000 N 
ATOM     20  C   UNL     1       2.075   5.130  20.325  0.00  0.00    +0.000 C 
ATOM     21  O   UNL     1       0.919   4.803  20.579  0.00  0.00    +0.000 OA
ATOM     22  H   UNL     1       3.545   6.545  20.139  0.00  0.00    +0.000 HD
BRANCH  20  23
ATOM     23  C   UNL     1       3.140   4.093  20.000  0.00  0.00    +0.000 C 
BRANCH  23  24
ATOM     24  C   UNL     1       3.782   4.245  18.660  0.00  0.00    +0.000 A 
ATOM     25  C   UNL     1       3.266   3.746  17.475  0.00  0.00    +0.000 A 
ATOM     26  N   UNL     1       4.127   4.110  16.480  0.00  0.00    +0.000 N 
ATOM     27  C   UNL     1       5.358   4.352  17.031  0.00  0.00    +0.000 A 
ATOM     28  C   UNL     1       6.641   4.303  16.476  0.00  0.00    +0.000 A 
ATOM     29  C   UNL     1       7.695   4.737  17.280  0.00  0.00    +0.000 A 
ATOM     30  C   UNL     1       7.449   5.301  18.532  0.00  0.00    +0.000 A 
ATOM     31  C   UNL     1       6.159   5.305  19.081  0.00  0.00    +0.000 A 
ATOM     32  C   UNL     1       5.107   4.715  18.355  0.00  0.00    +0.000 A 
ATOM     33  H   UNL     1       3.919   4.142  15.491  0.00  0.00    +0.000 HD
ENDBRANCH  23  24
ENDBRANCH  20  23
ENDBRANCH   4  19
TORSDOF 6
ENDMDL
MODEL 5
REMARK VINA RESULT:      -8.2      1.683      3.072
REMARK  Name = 
REMARK  7 active torsions:
REMARK  status: ('A' for Active; 'I' for Inactive)
REMARK    1  A    between atoms: C_1  and  O_2
REMARK    2  A    between atoms: O_2  and  C_3
REMARK    3  A    between atoms: C_6  and  N_7
REMARK    4  A    between atoms: C_8  and  C_10
REMARK    5  A    between atoms: C_13  and  N_14
REMARK    6  A    between atoms: C_15  and  C_17
REMARK    7  A    between atoms: C_17  and  C_18
REMARK                            x       y       z     vdW  Elec       q    Type
REMARK                         _______ _______ _______ _____ _____    ______ ____
ROOT
ATOM      1  C   UNL     1       0.493   9.713  21.097  0.00  0.00    +0.000 A 
ATOM      2  C   UNL     1       0.605  10.113  19.763  0.00  0.00    +0.000 A 
ATOM      3  C   UNL     1       1.249   9.278  18.828  0.00  0.00    +0.000 A 
ATOM      4  C   UNL     1       1.785   8.043  19.211  0.00  0.00    +0.000 A 
ATOM      5  C   UNL     1       1.677   7.654  20.548  0.00  0.00    +0.000 A 
ATOM      6  C   UNL     1       1.037   8.481  21.475  0.00  0.00    +0.000 A 
ENDROOT
BRANCH   1   8
ATOM      7  N   UNL     1      -0.884  11.635  21.803  0.00  0.00    +0.000 N 
ATOM      8  C   UNL     1      -0.107  10.548  22.178  0.00  0.00    +0.000 C 
ATOM      9  O   UNL     1       0.119  10.192  23.332  0.00  0.00    +0.000 OA
ATOM     10  H   UNL     1      -1.050  11.803  20.816  0.00  0.00    +0.000 HD
BRANCH   7  14
ATOM     11  C   UNL     1      -2.836  14.342  24.439  0.00  0.00    +0.000 A 
ATOM     12  C   UNL     1      -3.483  13.176  24.038  0.00  0.00    +0.000 A 
ATOM     13  C   UNL     1      -2.852  12.276  23.171  0.00  0.00    +0.000 A 
ATOM     14  C   UNL     1      -1.564  12.516  22.686  0.00  0.00    +0.000 A 
ATOM     15  C   UNL     1      -0.917  13.688  23.096  0.00  0.00    +0.000 A 
ATOM     16  C   UNL     1      -1.548  14.588  23.967  0.00  0.00    +0.000 A 
BRANCH  11  18
ATOM     17  C   UNL     1      -4.299  16.188  24.729  0.00  0.00    +0.000 C 
ATOM     18  O   UNL     1      -3.347  15.287  25.288  0.00  0.00    +0.000 OA
ENDBRANCH  11  18
ENDBRANCH   7  14
ENDBRANCH   1   8
BRANCH   4  19
ATOM     19  N   UNL     1       2.470   7.160  18.348  0.00  0.00    +0.000 N 
ATOM     20  C   UNL     1       3.652   7.396  17.662  0.00  0.00    +0.000 C 
ATOM     21  O   UNL     1       4.244   8.470  17.608  0.00  0.00    +0.000 OA
ATOM     22  H   UNL     1       2.039   6.255  18.205  0.00  0.00    +0.000 HD
BRANCH  20  23
ATOM     23  C   UNL     1       4.218   6.146  17.005  0.00  0.00    +0.000 C 
BRANCH  23  24
ATOM     24  C   UNL     1       4.327   4.955  17.902  0.00  0.00    +0.000 A 
ATOM     25  C   UNL     1       5.520   4.385  18.317  0.00  0.00    +0.000 A 
ATOM     26  N   UNL     1       5.199   3.342  19.137  0.00  0.00    +0.000 N 
ATOM     27  C   UNL     1       3.923   2.934  18.849  0.00  0.00    +0.000 A 
ATOM     28  C   UNL     1       3.288   1.700  19.030  0.00  0.00    +0.000 A 
ATOM     29  C   UNL     1       1.923   1.645  18.748  0.00  0.00    +0.000 A 
ATOM     30  C   UNL     1       1.217   2.801  18.419  0.00  0.00    +0.000 A 
ATOM     31  C   UNL     1       1.882   4.018  18.208  0.00  0.00    +0.000 A 
ATOM     32  C   UNL     1       3.285   4.056  18.320  0.00  0.00    +0.000 A 
ATOM     33  H   UNL     1       5.812   2.896  19.806  0.00  0.00    +0.000 HD
ENDBRANCH  23  24
ENDBRANCH  20  23
ENDBRANCH   4  19
TORSDOF 6
ENDMDL
MODEL 6
REMARK VINA RESULT:      -8.2      1.366      1.527
REMARK  Name = 
REMARK  7 active torsions:
REMARK  status: ('A' for Active; 'I' for Inactive)
REMARK    1  A    between atoms: C_1  and  O_2
REMARK    2  A    between atoms: O_2  and  C_3
REMARK    3  A    between atoms: C_6  and  N_7
REMARK    4  A    between atoms: C_8  and  C_10
REMARK    5  A    between atoms: C_13  and  N_14
REMARK    6  A    between atoms: C_15  and  C_17
REMARK    7  A    between atoms: C_17  and  C_18
REMARK                            x       y       z     vdW  Elec       q    Type
REMARK                         _______ _______ _______ _____ _____    ______ ____
ROOT
ATOM      1  C   UNL     1       0.560  10.398  20.315  0.00  0.00    +0.000 A 
ATOM      2  C   UNL     1       0.804  10.496  18.943  0.00  0.00    +0.000 A 
ATOM      3  C   UNL     1       1.475   9.457  18.269  0.00  0.00    +0.000 A 
ATOM      4  C   UNL     1       1.908   8.314  18.953  0.00  0.00    +0.000 A 
ATOM      5  C   UNL     1       1.670   8.227  20.325  0.00  0.00    +0.000 A 
ATOM      6  C   UNL     1       1.002   9.257  20.994  0.00  0.00    +0.000 A 
ENDROOT
BRANCH   1   8
ATOM      7  N   UNL     1      -1.465  11.483  21.214  0.00  0.00    +0.000 N 
ATOM      8  C   UNL     1      -0.080  11.467  21.135  0.00  0.00    +0.000 C 
ATOM      9  O   UNL     1       0.680  12.251  21.701  0.00  0.00    +0.000 OA
ATOM     10  H   UNL     1      -1.992  10.750  20.750  0.00  0.00    +0.000 HD
BRANCH   7  14
ATOM     11  C   UNL     1      -3.794  14.288  23.406  0.00  0.00    +0.000 A 
ATOM     12  C   UNL     1      -3.557  13.020  23.932  0.00  0.00    +0.000 A 
ATOM     13  C   UNL     1      -2.793  12.087  23.222  0.00  0.00    +0.000 A 
ATOM     14  C   UNL     1      -2.245  12.396  21.974  0.00  0.00    +0.000 A 
ATOM     15  C   UNL     1      -2.482  13.673  21.452  0.00  0.00    +0.000 A 
ATOM     16  C   UNL     1      -3.246  14.608  22.166  0.00  0.00    +0.000 A 
BRANCH  11  18
ATOM     17  C   UNL     1      -5.920  15.276  23.773  0.00  0.00    +0.000 C 
ATOM     18  O   UNL     1      -4.514  15.282  24.011  0.00  0.00    +0.000 OA
ENDBRANCH  11  18
ENDBRANCH   7  14
ENDBRANCH   1   8
BRANCH   4  19
ATOM     19  N   UNL     1       2.612   7.242  18.363  0.00  0.00    +0.000 N 
ATOM     20  C   UNL     1       2.366   5.886  18.513  0.00  0.00    +0.000 C 
ATOM     21  O   UNL     1       1.552   5.389  19.286  0.00  0.00    +0.000 OA
ATOM     22  H   UNL     1       3.394   7.495  17.771  0.00  0.00    +0.000 HD
BRANCH  20  23
ATOM     23  C   UNL     1       3.176   5.025  17.554  0.00  0.00    +0.000 C 
BRANCH  23  24
ATOM     24  C   UNL     1       4.598   4.800  17.953  0.00  0.00    +0.000 A 
ATOM     25  C   UNL     1       5.029   3.804  18.814  0.00  0.00    +0.000 A 
ATOM     26  N   UNL     1       6.386   3.916  18.905  0.00  0.00    +0.000 N 
ATOM     27  C   UNL     1       6.745   5.195  18.569  0.00  0.00    +0.000 A 
ATOM     28  C   UNL     1       7.867   5.956  18.913  0.00  0.00    +0.000 A 
ATOM     29  C   UNL     1       8.001   7.199  18.293  0.00  0.00    +0.000 A 
ATOM     30  C   UNL     1       7.115   7.594  17.291  0.00  0.00    +0.000 A 
ATOM     31  C   UNL     1       5.978   6.829  16.991  0.00  0.00    +0.000 A 
ATOM     32  C   UNL     1       5.733   5.655  17.727  0.00  0.00    +0.000 A 
ATOM     33  H   UNL     1       7.025   3.200  19.225  0.00  0.00    +0.000 HD
ENDBRANCH  23  24
ENDBRANCH  20  23
ENDBRANCH   4  19
TORSDOF 6
ENDMDL
MODEL 7
REMARK VINA RESULT:      -8.1      1.644      2.032
REMARK  Name = 
REMARK  7 active torsions:
REMARK  status: ('A' for Active; 'I' for Inactive)
REMARK    1  A    between atoms: C_1  and  O_2
REMARK    2  A    between atoms: O_2  and  C_3
REMARK    3  A    between atoms: C_6  and  N_7
REMARK    4  A    between atoms: C_8  and  C_10
REMARK    5  A    between atoms: C_13  and  N_14
REMARK    6  A    between atoms: C_15  and  C_17
REMARK    7  A    between atoms: C_17  and  C_18
REMARK                            x       y       z     vdW  Elec       q    Type
REMARK                         _______ _______ _______ _____ _____    ______ ____
ROOT
ATOM      1  C   UNL     1       0.109   9.935  20.843  0.00  0.00    +0.000 A 
ATOM      2  C   UNL     1       0.907   9.838  19.700  0.00  0.00    +0.000 A 
ATOM      3  C   UNL     1       1.690   8.687  19.482  0.00  0.00    +0.000 A 
ATOM      4  C   UNL     1       1.686   7.626  20.395  0.00  0.00    +0.000 A 
ATOM      5  C   UNL     1       0.893   7.734  21.539  0.00  0.00    +0.000 A 
ATOM      6  C   UNL     1       0.114   8.874  21.756  0.00  0.00    +0.000 A 
ENDROOT
BRANCH   1   8
ATOM      7  N   UNL     1      -1.000  11.336  22.544  0.00  0.00    +0.000 N 
ATOM      8  C   UNL     1      -0.704  11.133  21.203  0.00  0.00    +0.000 C 
ATOM      9  O   UNL     1      -1.036  11.868  20.276  0.00  0.00    +0.000 OA
ATOM     10  H   UNL     1      -0.624  10.693  23.233  0.00  0.00    +0.000 HD
BRANCH   7  14
ATOM     11  C   UNL     1      -3.256  14.562  24.155  0.00  0.00    +0.000 A 
ATOM     12  C   UNL     1      -1.908  14.741  23.852  0.00  0.00    +0.000 A 
ATOM     13  C   UNL     1      -1.154  13.688  23.321  0.00  0.00    +0.000 A 
ATOM     14  C   UNL     1      -1.724  12.436  23.078  0.00  0.00    +0.000 A 
ATOM     15  C   UNL     1      -3.080  12.263  23.380  0.00  0.00    +0.000 A 
ATOM     16  C   UNL     1      -3.836  13.320  23.910  0.00  0.00    +0.000 A 
BRANCH  11  18
ATOM     17  C   UNL     1      -3.563  16.838  24.754  0.00  0.00    +0.000 C 
ATOM     18  O   UNL     1      -4.093  15.517  24.666  0.00  0.00    +0.000 OA
ENDBRANCH  11  18
ENDBRANCH   7  14
ENDBRANCH   1   8
BRANCH   4  19
ATOM     19  N   UNL     1       2.460   6.453  20.269  0.00  0.00    +0.000 N 
ATOM     20  C   UNL     1       3.063   5.957  19.123  0.00  0.00    +0.000 C 
ATOM     21  O   UNL     1       2.925   6.411  17.990  0.00  0.00    +0.000 OA
ATOM     22  H   UNL     1       2.576   5.904  21.112  0.00  0.00    +0.000 HD
BRANCH  20  23
ATOM     23  C   UNL     1       4.005   4.795  19.402  0.00  0.00    +0.000 C 
BRANCH  23  24
ATOM     24  C   UNL     1       5.319   4.863  18.695  0.00  0.00    +0.000 A 
ATOM     25  C   UNL     1       6.460   5.465  19.204  0.00  0.00    +0.000 A 
ATOM     26  N   UNL     1       7.447   5.298  18.276  0.00  0.00    +0.000 N 
ATOM     27  C   UNL     1       6.867   5.088  17.052  0.00  0.00    +0.000 A 
ATOM     28  C   UNL     1       7.347   5.310  15.757  0.00  0.00    +0.000 A 
ATOM     29  C   UNL     1       6.549   4.865  14.702  0.00  0.00    +0.000 A 
ATOM     30  C   UNL     1       5.389   4.131  14.949  0.00  0.00    +0.000 A 
ATOM     31  C   UNL     1       4.910   3.954  16.255  0.00  0.00    +0.000 A 
ATOM     32  C   UNL     1       5.612   4.543  17.324  0.00  0.00    +0.000 A 
ATOM     33  H   UNL     1       8.441   5.374  18.440  0.00  0.00    +0.000 HD
ENDBRANCH  23  24
ENDBRANCH  20  23
ENDBRANCH   4  19
TORSDOF 6
ENDMDL
MODEL 8
REMARK VINA RESULT:      -8.1      2.412      3.828
REMARK  Name = 
REMARK  7 active torsions:
REMARK  status: ('A' for Active; 'I' for Inactive)
REMARK    1  A    between atoms: C_1  and  O_2
REMARK    2  A    between atoms: O_2  and  C_3
REMARK    3  A    between atoms: C_6  and  N_7
REMARK    4  A    between atoms: C_8  and  C_10
REMARK    5  A    between atoms: C_13  and  N_14
REMARK    6  A    between atoms: C_15  and  C_17
REMARK    7  A    between atoms: C_17  and  C_18
REMARK                            x       y       z     vdW  Elec       q    Type
REMARK                         _______ _______ _______ _____ _____    ______ ____
ROOT
ATOM      1  C   UNL     1       1.076   9.732  19.540  0.00  0.00    +0.000 A 
ATOM      2  C   UNL     1       1.374   8.681  20.411  0.00  0.00    +0.000 A 
ATOM      3  C   UNL     1       1.992   7.513  19.922  0.00  0.00    +0.000 A 
ATOM      4  C   UNL     1       2.318   7.380  18.567  0.00  0.00    +0.000 A 
ATOM      5  C   UNL     1       2.008   8.430  17.701  0.00  0.00    +0.000 A 
ATOM      6  C   UNL     1       1.397   9.590  18.185  0.00  0.00    +0.000 A 
ENDROOT
BRANCH   1   8
ATOM      7  N   UNL     1      -0.552  10.900  20.978  0.00  0.00    +0.000 N 
ATOM      8  C   UNL     1       0.364  10.980  19.939  0.00  0.00    +0.000 C 
ATOM      9  O   UNL     1       0.661  12.000  19.321  0.00  0.00    +0.000 OA
ATOM     10  H   UNL     1      -0.677  10.014  21.456  0.00  0.00    +0.000 HD
BRANCH   7  14
ATOM     11  C   UNL     1      -2.838  14.143  22.512  0.00  0.00    +0.000 A 
ATOM     12  C   UNL     1      -1.772  13.634  23.251  0.00  0.00    +0.000 A 
ATOM     13  C   UNL     1      -1.012  12.568  22.758  0.00  0.00    +0.000 A 
ATOM     14  C   UNL     1      -1.293  11.986  21.519  0.00  0.00    +0.000 A 
ATOM     15  C   UNL     1      -2.362  12.504  20.779  0.00  0.00    +0.000 A 
ATOM     16  C   UNL     1      -3.123  13.574  21.272  0.00  0.00    +0.000 A 
BRANCH  11  18
ATOM     17  C   UNL     1      -4.214  15.105  24.189  0.00  0.00    +0.000 C 
ATOM     18  O   UNL     1      -3.643  15.185  22.885  0.00  0.00    +0.000 OA
ENDBRANCH  11  18
ENDBRANCH   7  14
ENDBRANCH   1   8
BRANCH   4  19
ATOM     19  N   UNL     1       2.910   6.236  17.990  0.00  0.00    +0.000 N 
ATOM     20  C   UNL     1       4.244   6.050  17.661  0.00  0.00    +0.000 C 
ATOM     21  O   UNL     1       5.120   6.908  17.717  0.00  0.00    +0.000 OA
ATOM     22  H   UNL     1       2.283   5.468  17.782  0.00  0.00    +0.000 HD
BRANCH  20  23
ATOM     23  C   UNL     1       4.564   4.615  17.268  0.00  0.00    +0.000 C 
BRANCH  23  24
ATOM     24  C   UNL     1       3.599   3.591  17.772  0.00  0.00    +0.000 A 
ATOM     25  C   UNL     1       2.849   2.748  16.967  0.00  0.00    +0.000 A 
ATOM     26  N   UNL     1       2.114   1.953  17.798  0.00  0.00    +0.000 N 
ATOM     27  C   UNL     1       1.987   2.582  19.009  0.00  0.00    +0.000 A 
ATOM     28  C   UNL     1       1.017   2.463  20.009  0.00  0.00    +0.000 A 
ATOM     29  C   UNL     1       1.247   3.159  21.197  0.00  0.00    +0.000 A 
ATOM     30  C   UNL     1       2.447   3.837  21.404  0.00  0.00    +0.000 A 
ATOM     31  C   UNL     1       3.387   3.972  20.371  0.00  0.00    +0.000 A 
ATOM     32  C   UNL     1       3.097   3.421  19.109  0.00  0.00    +0.000 A 
ATOM     33  H   UNL     1       1.680   1.074  17.554  0.00  0.00    +0.000 HD
ENDBRANCH  23  24
ENDBRANCH  20  23
ENDBRANCH   4  19
TORSDOF 6
ENDMDL
MODEL 9
REMARK VINA RESULT:      -8.1      2.506     11.905
REMARK  Name = 
REMARK  7 active torsions:
REMARK  status: ('A' for Active; 'I' for Inactive)
REMARK    1  A    between atoms: C_1  and  O_2
REMARK    2  A    between atoms: O_2  and  C_3
REMARK    3  A    between atoms: C_6  and  N_7
REMARK    4  A    between atoms: C_8  and  C_10
REMARK    5  A    between atoms: C_13  and  N_14
REMARK    6  A    between atoms: C_15  and  C_17
REMARK    7  A    between atoms: C_17  and  C_18
REMARK                            x       y       z     vdW  Elec       q    Type
REMARK                         _______ _______ _______ _____ _____    ______ ____
ROOT
ATOM      1  C   UNL     1       1.353   8.744  19.525  0.00  0.00    +0.000 A 
ATOM      2  C   UNL     1       1.369   8.396  20.878  0.00  0.00    +0.000 A 
ATOM      3  C   UNL     1       0.538   9.076  21.791  0.00  0.00    +0.000 A 
ATOM      4  C   UNL     1      -0.312  10.104  21.368  0.00  0.00    +0.000 A 
ATOM      5  C   UNL     1      -0.316  10.452  20.016  0.00  0.00    +0.000 A 
ATOM      6  C   UNL     1       0.506   9.778  19.109  0.00  0.00    +0.000 A 
ENDROOT
BRANCH   1   8
ATOM      7  N   UNL     1       2.809   6.903  18.767  0.00  0.00    +0.000 N 
ATOM      8  C   UNL     1       2.238   8.137  18.490  0.00  0.00    +0.000 C 
ATOM      9  O   UNL     1       2.380   8.775  17.449  0.00  0.00    +0.000 OA
ATOM     10  H   UNL     1       2.577   6.438  19.639  0.00  0.00    +0.000 HD
BRANCH   7  14
ATOM     11  C   UNL     1       5.242   4.580  16.163  0.00  0.00    +0.000 A 
ATOM     12  C   UNL     1       5.501   5.939  16.327  0.00  0.00    +0.000 A 
ATOM     13  C   UNL     1       4.708   6.715  17.180  0.00  0.00    +0.000 A 
ATOM     14  C   UNL     1       3.643   6.156  17.891  0.00  0.00    +0.000 A 
ATOM     15  C   UNL     1       3.390   4.789  17.726  0.00  0.00    +0.000 A 
ATOM     16  C   UNL     1       4.186   4.011  16.872  0.00  0.00    +0.000 A 
BRANCH  11  18
ATOM     17  C   UNL     1       6.682   4.315  14.295  0.00  0.00    +0.000 C 
ATOM     18  O   UNL     1       5.952   3.722  15.366  0.00  0.00    +0.000 OA
ENDBRANCH  11  18
ENDBRANCH   7  14
ENDBRANCH   1   8
BRANCH   4  19
ATOM     19  N   UNL     1      -1.153  10.854  22.217  0.00  0.00    +0.000 N 
ATOM     20  C   UNL     1      -1.009  12.181  22.592  0.00  0.00    +0.000 C 
ATOM     21  O   UNL     1      -0.048  12.898  22.327  0.00  0.00    +0.000 OA
ATOM     22  H   UNL     1      -1.946  10.360  22.608  0.00  0.00    +0.000 HD
BRANCH  20  23
ATOM     23  C   UNL     1      -2.222  12.725  23.334  0.00  0.00    +0.000 C 
BRANCH  23  24
ATOM     24  C   UNL     1      -3.428  12.964  22.485  0.00  0.00    +0.000 A 
ATOM     25  C   UNL     1      -3.396  13.444  21.186  0.00  0.00    +0.000 A 
ATOM     26  N   UNL     1      -4.689  13.502  20.751  0.00  0.00    +0.000 N 
ATOM     27  C   UNL     1      -5.517  13.572  21.841  0.00  0.00    +0.000 A 
ATOM     28  C   UNL     1      -6.809  14.086  21.983  0.00  0.00    +0.000 A 
ATOM     29  C   UNL     1      -7.437  13.886  23.214  0.00  0.00    +0.000 A 
ATOM     30  C   UNL     1      -6.836  13.104  24.200  0.00  0.00    +0.000 A 
ATOM     31  C   UNL     1      -5.525  12.631  24.047  0.00  0.00    +0.000 A 
ATOM     32  C   UNL     1      -4.811  12.968  22.882  0.00  0.00    +0.000 A 
ATOM     33  H   UNL     1      -4.995  13.548  19.788  0.00  0.00    +0.000 HD
ENDBRANCH  23  24
ENDBRANCH  20  23
ENDBRANCH   4  19
TORSDOF 6
ENDMDL
