MODEL 1
REMARK VINA RESULT:      -8.0      0.000      0.000
REMARK  Name = 
REMARK  4 active torsions:
REMARK  status: ('A' for Active; 'I' for Inactive)
REMARK    1  A    between atoms: C_2  and  C_19
REMARK    2  A    between atoms: N_3  and  C_4
REMARK    3  A    between atoms: C_8  and  C_9
REMARK    4  A    between atoms: C_19  and  C_20
REMARK                            x       y       z     vdW  Elec       q    Type
REMARK                         _______ _______ _______ _____ _____    ______ ____
ROOT
ATOM      1  C   UNL     1       2.158   7.432  19.007  0.00  0.00    +0.000 A 
ATOM      2  C   UNL     1       2.746   8.006  17.876  0.00  0.00    +0.000 A 
ATOM      3  C   UNL     1       2.576   9.356  17.568  0.00  0.00    +0.000 A 
ATOM      4  C   UNL     1       1.758  10.160  18.358  0.00  0.00    +0.000 A 
ATOM      5  C   UNL     1       1.062   9.604  19.435  0.00  0.00    +0.000 A 
ATOM      6  C   UNL     1       1.288   8.238  19.765  0.00  0.00    +0.000 A 
ENDROOT
BRANCH   5   7
ATOM      7  C   UNL     1       0.085  10.439  20.159  0.00  0.00    +0.000 A 
ATOM      8  N   UNL     1      -0.738  11.352  19.677  0.00  0.00    +0.000 NA
ATOM      9  C   UNL     1      -1.455  11.845  20.755  0.00  0.00    +0.000 A 
ATOM     10  C   UNL     1      -2.450  12.837  20.841  0.00  0.00    +0.000 A 
ATOM     11  C   UNL     1      -2.973  13.162  22.105  0.00  0.00    +0.000 A 
ATOM     12  C   UNL     1      -2.532  12.503  23.257  0.00  0.00    +0.000 A 
ATOM     13  C   UNL     1      -1.579  11.486  23.187  0.00  0.00    +0.000 A 
ATOM     14  C   UNL     1      -1.070  11.197  21.918  0.00  0.00    +0.000 A 
ATOM     15  N   UNL     1      -0.147  10.274  21.505  0.00  0.00    +0.000 N 
ATOM     16  H   UNL     1       0.274   9.574  22.087  0.00  0.00    +0.000 HD
ENDBRANCH   5   7
BRANCH   1  19
ATOM     17  O   UNL     1       1.387   5.022  17.631  0.00  0.00    +0.000 OA
ATOM     18  C   UNL     1       2.003   4.952  18.691  0.00  0.00    +0.000 C 
ATOM     19  N   UNL     1       2.413   6.079  19.405  0.00  0.00    +0.000 N 
ATOM     20  H   UNL     1       2.996   5.960  20.224  0.00  0.00    +0.000 HD
BRANCH  18  21
ATOM     21  C   UNL     1       2.382   3.554  19.215  0.00  0.00    +0.000 C 
ATOM     22  C   UNL     1       3.585   3.649  20.176  0.00  0.00    +0.000 C 
ATOM     23  C   UNL     1       4.234   2.289  20.435  0.00  0.00    +0.000 C 
ATOM     24  O   UNL     1       4.621   1.672  19.213  0.00  0.00    +0.000 OA
ATOM     25  C   UNL     1       3.515   1.403  18.359  0.00  0.00    +0.000 C 
ATOM     26  C   UNL     1       2.833   2.707  17.981  0.00  0.00    +0.000 C 
BRANCH  21  27
ATOM     27  C   UNL     1       1.154   2.919  19.866  0.00  0.00    +0.000 C 
ATOM     28  F   UNL     1       0.389   2.224  18.998  0.00  0.00    +0.000 F 
ATOM     29  F   UNL     1       1.475   2.067  20.867  0.00  0.00    +0.000 F 
ATOM     30  F   UNL     1       0.344   3.861  20.408  0.00  0.00    +0.000 F 
ENDBRANCH  21  27
ENDBRANCH  18  21
ENDBRANCH   1  19
TORSDOF 4
ENDMDL
MODEL 2
REMARK VINA RESULT:      -8.0      0.167      1.310
REMARK  Name = 
REMARK  4 active torsions:
REMARK  status: ('A' for Active; 'I' for Inactive)
REMARK    1  A    between atoms: C_2  and  C_19
REMARK    2  A    between atoms: N_3  and  C_4
REMARK    3  A    between atoms: C_8  and  C_9
REMARK    4  A    between atoms: C_19  and  C_20
REMARK                            x       y       z     vdW  Elec       q    Type
REMARK                         _______ _______ _______ _____ _____    ______ ____
ROOT
ATOM      1  C   UNL     1       2.109   7.423  19.057  0.00  0.00    +0.000 A 
ATOM      2  C   UNL     1       2.637   8.014  17.906  0.00  0.00    +0.000 A 
ATOM      3  C   UNL     1       2.447   9.367  17.626  0.00  0.00    +0.000 A 
ATOM      4  C   UNL     1       1.666  10.157  18.465  0.00  0.00    +0.000 A 
ATOM      5  C   UNL     1       1.027   9.584  19.568  0.00  0.00    +0.000 A 
ATOM      6  C   UNL     1       1.275   8.215  19.869  0.00  0.00    +0.000 A 
ENDROOT
BRANCH   5   7
ATOM      7  C   UNL     1       0.084  10.404  20.352  0.00  0.00    +0.000 A 
ATOM      8  N   UNL     1      -0.102  10.424  21.659  0.00  0.00    +0.000 NA
ATOM      9  C   UNL     1      -1.088  11.367  21.902  0.00  0.00    +0.000 A 
ATOM     10  C   UNL     1      -1.697  11.795  23.097  0.00  0.00    +0.000 A 
ATOM     11  C   UNL     1      -2.723  12.755  23.026  0.00  0.00    +0.000 A 
ATOM     12  C   UNL     1      -3.121  13.292  21.798  0.00  0.00    +0.000 A 
ATOM     13  C   UNL     1      -2.499  12.913  20.608  0.00  0.00    +0.000 A 
ATOM     14  C   UNL     1      -1.493  11.948  20.712  0.00  0.00    +0.000 A 
ATOM     15  N   UNL     1      -0.695  11.371  19.761  0.00  0.00    +0.000 N 
ATOM     16  H   UNL     1      -0.668  11.629  18.792  0.00  0.00    +0.000 HD
ENDBRANCH   5   7
BRANCH   1  19
ATOM     17  O   UNL     1       1.334   5.029  17.655  0.00  0.00    +0.000 OA
ATOM     18  C   UNL     1       1.976   4.947  18.699  0.00  0.00    +0.000 C 
ATOM     19  N   UNL     1       2.389   6.066  19.424  0.00  0.00    +0.000 N 
ATOM     20  H   UNL     1       2.993   5.939  20.227  0.00  0.00    +0.000 HD
BRANCH  18  21
ATOM     21  C   UNL     1       2.384   3.545  19.187  0.00  0.00    +0.000 C 
ATOM     22  C   UNL     1       3.617   3.635  20.109  0.00  0.00    +0.000 C 
ATOM     23  C   UNL     1       4.285   2.277  20.324  0.00  0.00    +0.000 C 
ATOM     24  O   UNL     1       4.636   1.682  19.081  0.00  0.00    +0.000 OA
ATOM     25  C   UNL     1       3.504   1.417  18.260  0.00  0.00    +0.000 C 
ATOM     26  C   UNL     1       2.800   2.720  17.926  0.00  0.00    +0.000 C 
BRANCH  21  27
ATOM     27  C   UNL     1       1.184   2.889  19.870  0.00  0.00    +0.000 C 
ATOM     28  F   UNL     1       1.532   1.993  20.817  0.00  0.00    +0.000 F 
ATOM     29  F   UNL     1       0.367   3.786  20.467  0.00  0.00    +0.000 F 
ATOM     30  F   UNL     1       0.423   2.210  18.976  0.00  0.00    +0.000 F 
ENDBRANCH  21  27
ENDBRANCH  18  21
ENDBRANCH   1  19
TORSDOF 4
ENDMDL
MODEL 3
REMARK VINA RESULT:      -7.9      1.102      1.405
REMARK  Name = 
REMARK  4 active torsions:
REMARK  status: ('A' for Active; 'I' for Inactive)
REMARK    1  A    between atoms: C_2  and  C_19
REMARK    2  A    between atoms: N_3  and  C_4
REMARK    3  A    between atoms: C_8  and  C_9
REMARK    4  A    between atoms: C_19  and  C_20
REMARK                            x       y       z     vdW  Elec       q    Type
REMARK                         _______ _______ _______ _____ _____    ______ ____
ROOT
ATOM      1  C   UNL     1       2.025   7.786  19.283  0.00  0.00    +0.000 A 
ATOM      2  C   UNL     1       2.362   8.304  18.029  0.00  0.00    +0.000 A 
ATOM      3  C   UNL     1       2.166   9.649  17.716  0.00  0.00    +0.000 A 
ATOM      4  C   UNL     1       1.567  10.505  18.635  0.00  0.00    +0.000 A 
ATOM      5  C   UNL     1       1.112  10.008  19.859  0.00  0.00    +0.000 A 
ATOM      6  C   UNL     1       1.368   8.646  20.184  0.00  0.00    +0.000 A 
ENDROOT
BRANCH   5   7
ATOM      7  C   UNL     1       0.344  10.899  20.750  0.00  0.00    +0.000 A 
ATOM      8  N   UNL     1      -0.604  10.584  21.613  0.00  0.00    +0.000 NA
ATOM      9  C   UNL     1      -1.003  11.769  22.211  0.00  0.00    +0.000 A 
ATOM     10  C   UNL     1      -1.982  12.040  23.184  0.00  0.00    +0.000 A 
ATOM     11  C   UNL     1      -2.198  13.376  23.571  0.00  0.00    +0.000 A 
ATOM     12  C   UNL     1      -1.446  14.415  23.016  0.00  0.00    +0.000 A 
ATOM     13  C   UNL     1      -0.441  14.161  22.082  0.00  0.00    +0.000 A 
ATOM     14  C   UNL     1      -0.260  12.826  21.711  0.00  0.00    +0.000 A 
ATOM     15  N   UNL     1       0.622  12.243  20.842  0.00  0.00    +0.000 N 
ATOM     16  H   UNL     1       1.368  12.717  20.367  0.00  0.00    +0.000 HD
ENDBRANCH   5   7
BRANCH   1  19
ATOM     17  O   UNL     1       1.558   5.384  17.764  0.00  0.00    +0.000 OA
ATOM     18  C   UNL     1       2.065   5.314  18.881  0.00  0.00    +0.000 C 
ATOM     19  N   UNL     1       2.325   6.438  19.666  0.00  0.00    +0.000 N 
ATOM     20  H   UNL     1       2.827   6.326  20.539  0.00  0.00    +0.000 HD
BRANCH  18  21
ATOM     21  C   UNL     1       2.478   3.924  19.400  0.00  0.00    +0.000 C 
ATOM     22  C   UNL     1       3.998   3.877  19.656  0.00  0.00    +0.000 C 
ATOM     23  C   UNL     1       4.519   2.449  19.814  0.00  0.00    +0.000 C 
ATOM     24  O   UNL     1       4.181   1.658  18.680  0.00  0.00    +0.000 OA
ATOM     25  C   UNL     1       2.775   1.527  18.502  0.00  0.00    +0.000 C 
ATOM     26  C   UNL     1       2.161   2.896  18.267  0.00  0.00    +0.000 C 
BRANCH  21  27
ATOM     27  C   UNL     1       1.658   3.598  20.648  0.00  0.00    +0.000 C 
ATOM     28  F   UNL     1       1.410   2.279  20.793  0.00  0.00    +0.000 F 
ATOM     29  F   UNL     1       2.257   4.007  21.789  0.00  0.00    +0.000 F 
ATOM     30  F   UNL     1       0.447   4.204  20.611  0.00  0.00    +0.000 F 
ENDBRANCH  21  27
ENDBRANCH  18  21
ENDBRANCH   1  19
TORSDOF 4
ENDMDL
MODEL 4
REMARK VINA RESULT:      -7.8      2.028      2.505
REMARK  Name = 
REMARK  4 active torsions:
REMARK  status: ('A' for Active; 'I' for Inactive)
REMARK    1  A    between atoms: C_2  and  C_19
REMARK    2  A    between atoms: N_3  and  C_4
REMARK    3  A    between atoms: C_8  and  C_9
REMARK    4  A    between atoms: C_19  and  C_20
REMARK                            x       y       z     vdW  Elec       q    Type
REMARK                         _______ _______ _______ _____ _____    ______ ____
ROOT
ATOM      1  C   UNL     1       1.797   8.338  19.539  0.00  0.00    +0.000 A 
ATOM      2  C   UNL     1       2.125   8.879  18.292  0.00  0.00    +0.000 A 
ATOM      3  C   UNL     1       1.923  10.228  18.004  0.00  0.00    +0.000 A 
ATOM      4  C   UNL     1       1.328  11.067  18.942  0.00  0.00    +0.000 A 
ATOM      5  C   UNL     1       0.883  10.547  20.161  0.00  0.00    +0.000 A 
ATOM      6  C   UNL     1       1.145   9.180  20.459  0.00  0.00    +0.000 A 
ENDROOT
BRANCH   5   7
ATOM      7  C   UNL     1       0.119  11.420  21.072  0.00  0.00    +0.000 A 
ATOM      8  N   UNL     1       0.434  12.621  21.521  0.00  0.00    +0.000 NA
ATOM      9  C   UNL     1      -0.612  13.024  22.336  0.00  0.00    +0.000 A 
ATOM     10  C   UNL     1      -0.811  14.197  23.088  0.00  0.00    +0.000 A 
ATOM     11  C   UNL     1      -1.973  14.307  23.873  0.00  0.00    +0.000 A 
ATOM     12  C   UNL     1      -2.925  13.283  23.895  0.00  0.00    +0.000 A 
ATOM     13  C   UNL     1      -2.767  12.133  23.121  0.00  0.00    +0.000 A 
ATOM     14  C   UNL     1      -1.595  12.049  22.364  0.00  0.00    +0.000 A 
ATOM     15  N   UNL     1      -1.140  11.081  21.510  0.00  0.00    +0.000 N 
ATOM     16  H   UNL     1      -1.653  10.265  21.231  0.00  0.00    +0.000 HD
ENDBRANCH   5   7
BRANCH   1  19
ATOM     17  O   UNL     1       2.203   6.104  17.768  0.00  0.00    +0.000 OA
ATOM     18  C   UNL     1       2.282   5.944  18.983  0.00  0.00    +0.000 C 
ATOM     19  N   UNL     1       2.104   6.984  19.897  0.00  0.00    +0.000 N 
ATOM     20  H   UNL     1       2.270   6.812  20.881  0.00  0.00    +0.000 HD
BRANCH  18  21
ATOM     21  C   UNL     1       2.648   4.543  19.505  0.00  0.00    +0.000 C 
ATOM     22  C   UNL     1       1.781   3.470  18.815  0.00  0.00    +0.000 C 
ATOM     23  C   UNL     1       1.832   2.124  19.539  0.00  0.00    +0.000 C 
ATOM     24  O   UNL     1       1.452   2.269  20.903  0.00  0.00    +0.000 OA
ATOM     25  C   UNL     1       2.331   3.120  21.630  0.00  0.00    +0.000 C 
ATOM     26  C   UNL     1       2.305   4.514  21.030  0.00  0.00    +0.000 C 
BRANCH  21  27
ATOM     27  C   UNL     1       4.146   4.313  19.301  0.00  0.00    +0.000 C 
ATOM     28  F   UNL     1       4.627   3.272  20.012  0.00  0.00    +0.000 F 
ATOM     29  F   UNL     1       4.468   4.082  18.008  0.00  0.00    +0.000 F 
ATOM     30  F   UNL     1       4.864   5.395  19.689  0.00  0.00    +0.000 F 
ENDBRANCH  21  27
ENDBRANCH  18  21
ENDBRANCH   1  19
TORSDOF 4
ENDMDL
MODEL 5
REMARK VINA RESULT:      -7.8      0.727      1.088
REMARK  Name = 
REMARK  4 active torsions:
REMARK  status: ('A' for Active; 'I' for Inactive)
REMARK    1  A    between atoms: C_2  and  C_19
REMARK    2  A    between atoms: N_3  and  C_4
REMARK    3  A    between atoms: C_8  and  C_9
REMARK    4  A    between atoms: C_19  and  C_20
REMARK                            x       y       z     vdW  Elec       q    Type
REMARK                         _______ _______ _______ _____ _____    ______ ____
ROOT
ATOM      1  C   UNL     1       2.047   7.812  19.152  0.00  0.00    +0.000 A 
ATOM      2  C   UNL     1       2.635   8.369  18.012  0.00  0.00    +0.000 A 
ATOM      3  C   UNL     1       2.443   9.708  17.671  0.00  0.00    +0.000 A 
ATOM      4  C   UNL     1       1.603  10.515  18.432  0.00  0.00    +0.000 A 
ATOM      5  C   UNL     1       0.907   9.973  19.516  0.00  0.00    +0.000 A 
ATOM      6  C   UNL     1       1.156   8.620  19.883  0.00  0.00    +0.000 A 
ENDROOT
BRANCH   5   7
ATOM      7  C   UNL     1      -0.092  10.806  20.212  0.00  0.00    +0.000 A 
ATOM      8  N   UNL     1      -1.201  11.338  19.731  0.00  0.00    +0.000 NA
ATOM      9  C   UNL     1      -1.797  12.021  20.778  0.00  0.00    +0.000 A 
ATOM     10  C   UNL     1      -2.978  12.784  20.844  0.00  0.00    +0.000 A 
ATOM     11  C   UNL     1      -3.311  13.410  22.059  0.00  0.00    +0.000 A 
ATOM     12  C   UNL     1      -2.500  13.265  23.188  0.00  0.00    +0.000 A 
ATOM     13  C   UNL     1      -1.349  12.477  23.155  0.00  0.00    +0.000 A 
ATOM     14  C   UNL     1      -1.039  11.880  21.930  0.00  0.00    +0.000 A 
ATOM     15  N   UNL     1      -0.008  11.059  21.561  0.00  0.00    +0.000 N 
ATOM     16  H   UNL     1       0.684  10.683  22.182  0.00  0.00    +0.000 HD
ENDBRANCH   5   7
BRANCH   1  19
ATOM     17  O   UNL     1       1.562   5.364  17.714  0.00  0.00    +0.000 OA
ATOM     18  C   UNL     1       2.056   5.327  18.838  0.00  0.00    +0.000 C 
ATOM     19  N   UNL     1       2.324   6.474  19.586  0.00  0.00    +0.000 N 
ATOM     20  H   UNL     1       2.816   6.386  20.467  0.00  0.00    +0.000 HD
BRANCH  18  21
ATOM     21  C   UNL     1       2.444   3.951  19.411  0.00  0.00    +0.000 C 
ATOM     22  C   UNL     1       3.956   3.901  19.709  0.00  0.00    +0.000 C 
ATOM     23  C   UNL     1       4.462   2.474  19.924  0.00  0.00    +0.000 C 
ATOM     24  O   UNL     1       4.148   1.652  18.806  0.00  0.00    +0.000 OA
ATOM     25  C   UNL     1       2.746   1.525  18.594  0.00  0.00    +0.000 C 
ATOM     26  C   UNL     1       2.149   2.890  18.301  0.00  0.00    +0.000 C 
BRANCH  21  27
ATOM     27  C   UNL     1       1.589   3.668  20.645  0.00  0.00    +0.000 C 
ATOM     28  F   UNL     1       2.183   4.034  21.801  0.00  0.00    +0.000 F 
ATOM     29  F   UNL     1       0.392   4.298  20.608  0.00  0.00    +0.000 F 
ATOM     30  F   UNL     1       1.323   2.345  20.765  0.00  0.00    +0.000 F 
ENDBRANCH  21  27
ENDBRANCH  18  21
ENDBRANCH   1  19
TORSDOF 4
ENDMDL
MODEL 6
REMARK VINA RESULT:      -7.8      2.718      3.438
REMARK  Name = 
REMARK  4 active torsions:
REMARK  status: ('A' for Active; 'I' for Inactive)
REMARK    1  A    between atoms: C_2  and  C_19
REMARK    2  A    between atoms: N_3  and  C_4
REMARK    3  A    between atoms: C_8  and  C_9
REMARK    4  A    between atoms: C_19  and  C_20
REMARK                            x       y       z     vdW  Elec       q    Type
REMARK                         _______ _______ _______ _____ _____    ______ ____
ROOT
ATOM      1  C   UNL     1       1.691   9.579  18.030  0.00  0.00    +0.000 A 
ATOM      2  C   UNL     1       2.442  10.750  18.164  0.00  0.00    +0.000 A 
ATOM      3  C   UNL     1       1.847  11.967  18.496  0.00  0.00    +0.000 A 
ATOM      4  C   UNL     1       0.466  12.057  18.646  0.00  0.00    +0.000 A 
ATOM      5  C   UNL     1      -0.336  10.937  18.414  0.00  0.00    +0.000 A 
ATOM      6  C   UNL     1       0.292   9.692  18.128  0.00  0.00    +0.000 A 
ENDROOT
BRANCH   5   7
ATOM      7  C   UNL     1      -1.803  11.095  18.428  0.00  0.00    +0.000 A 
ATOM      8  N   UNL     1      -2.707  10.465  17.700  0.00  0.00    +0.000 NA
ATOM      9  C   UNL     1      -3.941  10.958  18.092  0.00  0.00    +0.000 A 
ATOM     10  C   UNL     1      -5.246  10.667  17.650  0.00  0.00    +0.000 A 
ATOM     11  C   UNL     1      -6.323  11.376  18.214  0.00  0.00    +0.000 A 
ATOM     12  C   UNL     1      -6.111  12.337  19.206  0.00  0.00    +0.000 A 
ATOM     13  C   UNL     1      -4.829  12.607  19.688  0.00  0.00    +0.000 A 
ATOM     14  C   UNL     1      -3.780  11.896  19.098  0.00  0.00    +0.000 A 
ATOM     15  N   UNL     1      -2.432  11.916  19.335  0.00  0.00    +0.000 N 
ATOM     16  H   UNL     1      -1.979  12.429  20.068  0.00  0.00    +0.000 HD
ENDBRANCH   5   7
BRANCH   1  19
ATOM     17  O   UNL     1       2.122   7.479  19.954  0.00  0.00    +0.000 OA
ATOM     18  C   UNL     1       2.479   7.325  18.789  0.00  0.00    +0.000 C 
ATOM     19  N   UNL     1       2.294   8.298  17.805  0.00  0.00    +0.000 N 
ATOM     20  H   UNL     1       2.526   8.079  16.844  0.00  0.00    +0.000 HD
BRANCH  18  21
ATOM     21  C   UNL     1       3.105   5.974  18.398  0.00  0.00    +0.000 C 
ATOM     22  C   UNL     1       4.014   5.456  19.533  0.00  0.00    +0.000 C 
ATOM     23  C   UNL     1       4.938   4.329  19.071  0.00  0.00    +0.000 C 
ATOM     24  O   UNL     1       5.721   4.740  17.956  0.00  0.00    +0.000 OA
ATOM     25  C   UNL     1       4.928   5.064  16.819  0.00  0.00    +0.000 C 
ATOM     26  C   UNL     1       4.012   6.229  17.151  0.00  0.00    +0.000 C 
BRANCH  21  27
ATOM     27  C   UNL     1       1.988   4.993  18.042  0.00  0.00    +0.000 C 
ATOM     28  F   UNL     1       0.999   5.553  17.315  0.00  0.00    +0.000 F 
ATOM     29  F   UNL     1       2.432   3.928  17.337  0.00  0.00    +0.000 F 
ATOM     30  F   UNL     1       1.398   4.497  19.157  0.00  0.00    +0.000 F 
ENDBRANCH  21  27
ENDBRANCH  18  21
ENDBRANCH   1  19
TORSDOF 4
ENDMDL
MODEL 7
REMARK VINA RESULT:      -7.7      4.725      9.216
REMARK  Name = 
REMARK  4 active torsions:
REMARK  status: ('A' for Active; 'I' for Inactive)
REMARK    1  A    between atoms: C_2  and  C_19
REMARK    2  A    between atoms: N_3  and  C_4
REMARK    3  A    between atoms: C_8  and  C_9
REMARK    4  A    between atoms: C_19  and  C_20
REMARK                            x       y       z     vdW  Elec       q    Type
REMARK                         _______ _______ _______ _____ _____    ______ ____
ROOT
ATOM      1  C   UNL     1       0.855  10.303  19.909  0.00  0.00    +0.000 A 
ATOM      2  C   UNL     1       1.349  10.831  18.713  0.00  0.00    +0.000 A 
ATOM      3  C   UNL     1       2.021  10.037  17.785  0.00  0.00    +0.000 A 
ATOM      4  C   UNL     1       2.272   8.695  18.058  0.00  0.00    +0.000 A 
ATOM      5  C   UNL     1       1.895   8.150  19.288  0.00  0.00    +0.000 A 
ATOM      6  C   UNL     1       1.163   8.961  20.201  0.00  0.00    +0.000 A 
ENDROOT
BRANCH   5   7
ATOM      7  C   UNL     1       2.308   6.772  19.615  0.00  0.00    +0.000 A 
ATOM      8  N   UNL     1       3.252   6.039  19.054  0.00  0.00    +0.000 NA
ATOM      9  C   UNL     1       3.258   4.825  19.722  0.00  0.00    +0.000 A 
ATOM     10  C   UNL     1       4.034   3.665  19.544  0.00  0.00    +0.000 A 
ATOM     11  C   UNL     1       3.777   2.548  20.359  0.00  0.00    +0.000 A 
ATOM     12  C   UNL     1       2.783   2.589  21.342  0.00  0.00    +0.000 A 
ATOM     13  C   UNL     1       2.033   3.744  21.563  0.00  0.00    +0.000 A 
ATOM     14  C   UNL     1       2.305   4.831  20.727  0.00  0.00    +0.000 A 
ATOM     15  N   UNL     1       1.767   6.089  20.680  0.00  0.00    +0.000 N 
ATOM     16  H   UNL     1       1.102   6.461  21.332  0.00  0.00    +0.000 HD
ENDBRANCH   5   7
BRANCH   1  19
ATOM     17  O   UNL     1      -1.614  11.680  19.357  0.00  0.00    +0.000 OA
ATOM     18  C   UNL     1      -1.128  11.722  20.485  0.00  0.00    +0.000 C 
ATOM     19  N   UNL     1       0.060  11.072  20.822  0.00  0.00    +0.000 N 
ATOM     20  H   UNL     1       0.364  11.067  21.787  0.00  0.00    +0.000 HD
BRANCH  18  21
ATOM     21  C   UNL     1      -1.903  12.481  21.577  0.00  0.00    +0.000 C 
ATOM     22  C   UNL     1      -2.033  11.612  22.845  0.00  0.00    +0.000 C 
ATOM     23  C   UNL     1      -3.088  12.147  23.814  0.00  0.00    +0.000 C 
ATOM     24  O   UNL     1      -4.349  12.276  23.168  0.00  0.00    +0.000 OA
ATOM     25  C   UNL     1      -4.322  13.207  22.091  0.00  0.00    +0.000 C 
ATOM     26  C   UNL     1      -3.345  12.731  21.030  0.00  0.00    +0.000 C 
BRANCH  21  27
ATOM     27  C   UNL     1      -1.206  13.815  21.844  0.00  0.00    +0.000 C 
ATOM     28  F   UNL     1      -0.465  14.248  20.802  0.00  0.00    +0.000 F 
ATOM     29  F   UNL     1      -2.073  14.808  22.142  0.00  0.00    +0.000 F 
ATOM     30  F   UNL     1      -0.354  13.720  22.894  0.00  0.00    +0.000 F 
ENDBRANCH  21  27
ENDBRANCH  18  21
ENDBRANCH   1  19
TORSDOF 4
ENDMDL
MODEL 8
REMARK VINA RESULT:      -7.7      5.551      7.023
REMARK  Name = 
REMARK  4 active torsions:
REMARK  status: ('A' for Active; 'I' for Inactive)
REMARK    1  A    between atoms: C_2  and  C_19
REMARK    2  A    between atoms: N_3  and  C_4
REMARK    3  A    between atoms: C_8  and  C_9
REMARK    4  A    between atoms: C_19  and  C_20
REMARK                            x       y       z     vdW  Elec       q    Type
REMARK                         _______ _______ _______ _____ _____    ______ ____
ROOT
ATOM      1  C   UNL     1       5.763   4.877  17.609  0.00  0.00    +0.000 A 
ATOM      2  C   UNL     1       6.120   4.440  16.330  0.00  0.00    +0.000 A 
ATOM      3  C   UNL     1       7.084   5.105  15.572  0.00  0.00    +0.000 A 
ATOM      4  C   UNL     1       7.676   6.270  16.053  0.00  0.00    +0.000 A 
ATOM      5  C   UNL     1       7.270   6.806  17.278  0.00  0.00    +0.000 A 
ATOM      6  C   UNL     1       6.325   6.085  18.062  0.00  0.00    +0.000 A 
ENDROOT
BRANCH   5   7
ATOM      7  C   UNL     1       7.799   8.119  17.693  0.00  0.00    +0.000 A 
ATOM      8  N   UNL     1       7.578   9.304  17.155  0.00  0.00    +0.000 NA
ATOM      9  C   UNL     1       8.291  10.220  17.912  0.00  0.00    +0.000 A 
ATOM     10  C   UNL     1       8.441  11.614  17.794  0.00  0.00    +0.000 A 
ATOM     11  C   UNL     1       9.284  12.282  18.700  0.00  0.00    +0.000 A 
ATOM     12  C   UNL     1       9.948  11.584  19.713  0.00  0.00    +0.000 A 
ATOM     13  C   UNL     1       9.778  10.208  19.873  0.00  0.00    +0.000 A 
ATOM     14  C   UNL     1       8.945   9.573  18.948  0.00  0.00    +0.000 A 
ATOM     15  N   UNL     1       8.566   8.263  18.825  0.00  0.00    +0.000 N 
ATOM     16  H   UNL     1       8.793   7.531  19.472  0.00  0.00    +0.000 HD
ENDBRANCH   5   7
BRANCH   1  19
ATOM     17  O   UNL     1       2.894   5.099  17.727  0.00  0.00    +0.000 OA
ATOM     18  C   UNL     1       3.477   4.306  18.462  0.00  0.00    +0.000 C 
ATOM     19  N   UNL     1       4.864   4.143  18.451  0.00  0.00    +0.000 N 
ATOM     20  H   UNL     1       5.280   3.411  19.013  0.00  0.00    +0.000 HD
BRANCH  18  21
ATOM     21  C   UNL     1       2.626   3.420  19.390  0.00  0.00    +0.000 C 
ATOM     22  C   UNL     1       1.685   4.291  20.247  0.00  0.00    +0.000 C 
ATOM     23  C   UNL     1       1.092   3.522  21.428  0.00  0.00    +0.000 C 
ATOM     24  O   UNL     1       2.121   2.959  22.234  0.00  0.00    +0.000 OA
ATOM     25  C   UNL     1       2.914   2.011  21.528  0.00  0.00    +0.000 C 
ATOM     26  C   UNL     1       3.609   2.693  20.363  0.00  0.00    +0.000 C 
BRANCH  21  27
ATOM     27  C   UNL     1       1.873   2.394  18.543  0.00  0.00    +0.000 C 
ATOM     28  F   UNL     1       0.627   2.790  18.209  0.00  0.00    +0.000 F 
ATOM     29  F   UNL     1       2.510   2.102  17.386  0.00  0.00    +0.000 F 
ATOM     30  F   UNL     1       1.727   1.223  19.209  0.00  0.00    +0.000 F 
ENDBRANCH  21  27
ENDBRANCH  18  21
ENDBRANCH   1  19
TORSDOF 4
ENDMDL
MODEL 9
REMARK VINA RESULT:      -7.6      3.060      4.014
REMARK  Name = 
REMARK  4 active torsions:
REMARK  status: ('A' for Active; 'I' for Inactive)
REMARK    1  A    between atoms: C_2  and  C_19
REMARK    2  A    between atoms: N_3  and  C_4
REMARK    3  A    between atoms: C_8  and  C_9
REMARK    4  A    between atoms: C_19  and  C_20
REMARK                            x       y       z     vdW  Elec       q    Type
REMARK                         _______ _______ _______ _____ _____    ______ ____
ROOT
ATOM      1  C   UNL     1       1.419   9.674  18.153  0.00  0.00    +0.000 A 
ATOM      2  C   UNL     1       2.264  10.786  18.197  0.00  0.00    +0.000 A 
ATOM      3  C   UNL     1       1.782  12.060  18.496  0.00  0.00    +0.000 A 
ATOM      4  C   UNL     1       0.420  12.267  18.701  0.00  0.00    +0.000 A 
ATOM      5  C   UNL     1      -0.476  11.204  18.559  0.00  0.00    +0.000 A 
ATOM      6  C   UNL     1       0.039   9.902  18.306  0.00  0.00    +0.000 A 
ENDROOT
BRANCH   5   7
ATOM      7  C   UNL     1      -1.925  11.479  18.630  0.00  0.00    +0.000 A 
ATOM      8  N   UNL     1      -2.607  12.063  19.597  0.00  0.00    +0.000 NA
ATOM      9  C   UNL     1      -3.929  12.093  19.184  0.00  0.00    +0.000 A 
ATOM     10  C   UNL     1      -5.093  12.577  19.811  0.00  0.00    +0.000 A 
ATOM     11  C   UNL     1      -6.327  12.425  19.153  0.00  0.00    +0.000 A 
ATOM     12  C   UNL     1      -6.402  11.823  17.894  0.00  0.00    +0.000 A 
ATOM     13  C   UNL     1      -5.254  11.377  17.238  0.00  0.00    +0.000 A 
ATOM     14  C   UNL     1      -4.046  11.531  17.923  0.00  0.00    +0.000 A 
ATOM     15  N   UNL     1      -2.762  11.212  17.572  0.00  0.00    +0.000 N 
ATOM     16  H   UNL     1      -2.476  10.862  16.676  0.00  0.00    +0.000 HD
ENDBRANCH   5   7
BRANCH   1  19
ATOM     17  O   UNL     1       2.181   7.779  20.185  0.00  0.00    +0.000 OA
ATOM     18  C   UNL     1       2.269   7.473  18.998  0.00  0.00    +0.000 C 
ATOM     19  N   UNL     1       1.910   8.340  17.964  0.00  0.00    +0.000 N 
ATOM     20  H   UNL     1       1.918   8.001  17.010  0.00  0.00    +0.000 HD
BRANCH  18  21
ATOM     21  C   UNL     1       2.744   6.050  18.652  0.00  0.00    +0.000 C 
ATOM     22  C   UNL     1       1.684   5.324  17.798  0.00  0.00    +0.000 C 
ATOM     23  C   UNL     1       1.919   3.815  17.735  0.00  0.00    +0.000 C 
ATOM     24  O   UNL     1       1.973   3.255  19.042  0.00  0.00    +0.000 OA
ATOM     25  C   UNL     1       3.051   3.772  19.816  0.00  0.00    +0.000 C 
ATOM     26  C   UNL     1       2.877   5.269  19.999  0.00  0.00    +0.000 C 
BRANCH  21  27
ATOM     27  C   UNL     1       4.103   6.135  17.959  0.00  0.00    +0.000 C 
ATOM     28  F   UNL     1       5.132   5.781  18.758  0.00  0.00    +0.000 F 
ATOM     29  F   UNL     1       4.179   5.351  16.859  0.00  0.00    +0.000 F 
ATOM     30  F   UNL     1       4.366   7.400  17.549  0.00  0.00    +0.000 F 
ENDBRANCH  21  27
ENDBRANCH  18  21
ENDBRANCH   1  19
TORSDOF 4
ENDMDL
