MODEL 1
REMARK VINA RESULT:      -9.7      0.000      0.000
REMARK  Name = 
REMARK  7 active torsions:
REMARK  status: ('A' for Active; 'I' for Inactive)
REMARK    1  A    between atoms: C_1  and  C_2
REMARK    2  A    between atoms: C_4  and  N_5
REMARK    3  A    between atoms: N_12  and  C_13
REMARK    4  A    between atoms: C_17  and  C_18
REMARK    5  A    between atoms: C_18  and  C_19
REMARK    6  A    between atoms: C_19  and  C_20
REMARK    7  A    between atoms: N_24  and  C_25
REMARK                            x       y       z     vdW  Elec       q    Type
REMARK                         _______ _______ _______ _____ _____    ______ ____
ROOT
ATOM      1  C   UNL     1       2.623   6.383  18.329  0.00  0.00    +0.000 A 
ATOM      2  C   UNL     1       1.837   5.224  18.288  0.00  0.00    +0.000 A 
ATOM      3  C   UNL     1       2.311   4.039  17.738  0.00  0.00    +0.000 A 
ATOM      4  C   UNL     1       3.602   3.984  17.240  0.00  0.00    +0.000 A 
ATOM      5  C   UNL     1       4.460   5.101  17.281  0.00  0.00    +0.000 A 
ATOM      6  C   UNL     1       3.921   6.308  17.795  0.00  0.00    +0.000 A 
ENDROOT
BRANCH   1  16
ATOM      7  C   UNL     1      -0.058  13.118  19.842  0.00  0.00    +0.000 C 
ATOM      8  C   UNL     1       0.352  11.692  20.068  0.00  0.00    +0.000 A 
ATOM      9  C   UNL     1       0.226  11.065  21.329  0.00  0.00    +0.000 A 
ATOM     10  C   UNL     1       0.597   9.716  21.553  0.00  0.00    +0.000 A 
ATOM     11  C   UNL     1       1.157   9.033  20.477  0.00  0.00    +0.000 A 
ATOM     12  C   UNL     1       1.292   9.679  19.253  0.00  0.00    +0.000 A 
ATOM     13  C   UNL     1       0.899  10.978  19.009  0.00  0.00    +0.000 A 
ATOM     14  C   UNL     1       1.923   8.781  18.305  0.00  0.00    +0.000 C 
ATOM     15  O   UNL     1       2.177   9.146  17.169  0.00  0.00    +0.000 OA
ATOM     16  N   UNL     1       2.132   7.564  18.953  0.00  0.00    +0.000 N 
ATOM     17  C   UNL     1       1.689   7.635  20.345  0.00  0.00    +0.000 C 
BRANCH  10  18
ATOM     18  N   UNL     1       0.563   9.152  22.845  0.00  0.00    +0.000 N 
ATOM     19  F   UNL     1      -0.235  10.055  23.633  0.00  0.00    +0.000 F 
ATOM     20  H   UNL     1       0.275   8.179  22.855  0.00  0.00    +0.000 HD
ENDBRANCH  10  18
ENDBRANCH   1  16
BRANCH   5  21
ATOM     21  C   UNL     1       6.000   4.940  16.869  0.00  0.00    +0.000 C 
ATOM     22  C   UNL     1       6.934   4.552  18.058  0.00  0.00    +0.000 C 
ATOM     23  O   UNL     1       7.931   5.506  17.620  0.00  0.00    +0.000 OA
ATOM     24  C   UNL     1       6.911   6.198  16.847  0.00  0.00    +0.000 C 
BRANCH  21  25
ATOM     25  C   UNL     1       6.202   3.983  15.682  0.00  0.00    +0.000 C 
BRANCH  25  26
ATOM     26  C   UNL     1       6.872   4.604  14.504  0.00  0.00    +0.000 A 
ATOM     27  N   UNL     1       7.831   5.510  14.546  0.00  0.00    +0.000 NA
ATOM     28  N   UNL     1       8.257   5.747  13.261  0.00  0.00    +0.000 NA
ATOM     29  C   UNL     1       7.551   4.985  12.461  0.00  0.00    +0.000 A 
ATOM     30  N   UNL     1       6.651   4.271  13.192  0.00  0.00    +0.000 N 
ATOM     31  C   UNL     1       5.685   3.348  12.660  0.00  0.00    +0.000 C 
ENDBRANCH  25  26
ENDBRANCH  21  25
ENDBRANCH   5  21
TORSDOF 5
ENDMDL
MODEL 2
REMARK VINA RESULT:      -9.5      0.956      1.038
REMARK  Name = 
REMARK  7 active torsions:
REMARK  status: ('A' for Active; 'I' for Inactive)
REMARK    1  A    between atoms: C_1  and  C_2
REMARK    2  A    between atoms: C_4  and  N_5
REMARK    3  A    between atoms: N_12  and  C_13
REMARK    4  A    between atoms: C_17  and  C_18
REMARK    5  A    between atoms: C_18  and  C_19
REMARK    6  A    between atoms: C_19  and  C_20
REMARK    7  A    between atoms: N_24  and  C_25
REMARK                            x       y       z     vdW  Elec       q    Type
REMARK                         _______ _______ _______ _____ _____    ______ ____
ROOT
ATOM      1  C   UNL     1       2.857   6.665  18.753  0.00  0.00    +0.000 A 
ATOM      2  C   UNL     1       2.261   5.399  18.690  0.00  0.00    +0.000 A 
ATOM      3  C   UNL     1       2.974   4.274  18.296  0.00  0.00    +0.000 A 
ATOM      4  C   UNL     1       4.319   4.391  17.984  0.00  0.00    +0.000 A 
ATOM      5  C   UNL     1       4.992   5.627  18.060  0.00  0.00    +0.000 A 
ATOM      6  C   UNL     1       4.216   6.762  18.407  0.00  0.00    +0.000 A 
ENDROOT
BRANCH   1  16
ATOM      7  C   UNL     1      -1.134  12.872  19.376  0.00  0.00    +0.000 C 
ATOM      8  C   UNL     1      -0.475  11.586  19.782  0.00  0.00    +0.000 A 
ATOM      9  C   UNL     1      -0.553  11.084  21.101  0.00  0.00    +0.000 A 
ATOM     10  C   UNL     1       0.054   9.866  21.493  0.00  0.00    +0.000 A 
ATOM     11  C   UNL     1       0.794   9.194  20.525  0.00  0.00    +0.000 A 
ATOM     12  C   UNL     1       0.875   9.718  19.240  0.00  0.00    +0.000 A 
ATOM     13  C   UNL     1       0.257  10.882  18.833  0.00  0.00    +0.000 A 
ATOM     14  C   UNL     1       1.718   8.865  18.426  0.00  0.00    +0.000 C 
ATOM     15  O   UNL     1       1.963   9.148  17.265  0.00  0.00    +0.000 OA
ATOM     16  N   UNL     1       2.116   7.788  19.218  0.00  0.00    +0.000 N 
ATOM     17  C   UNL     1       1.589   7.920  20.575  0.00  0.00    +0.000 C 
BRANCH  10  18
ATOM     18  N   UNL     1       0.054   9.447  22.840  0.00  0.00    +0.000 N 
ATOM     19  F   UNL     1      -1.133  10.025  23.417  0.00  0.00    +0.000 F 
ATOM     20  H   UNL     1       0.160   8.444  22.953  0.00  0.00    +0.000 HD
ENDBRANCH  10  18
ENDBRANCH   1  16
BRANCH   5  21
ATOM     21  C   UNL     1       6.582   5.681  17.873  0.00  0.00    +0.000 C 
ATOM     22  C   UNL     1       7.372   5.781  19.215  0.00  0.00    +0.000 C 
ATOM     23  O   UNL     1       8.254   6.783  18.653  0.00  0.00    +0.000 OA
ATOM     24  C   UNL     1       7.266   7.054  17.620  0.00  0.00    +0.000 C 
BRANCH  21  25
ATOM     25  C   UNL     1       7.121   4.530  17.007  0.00  0.00    +0.000 C 
BRANCH  25  26
ATOM     26  C   UNL     1       7.156   4.828  15.547  0.00  0.00    +0.000 A 
ATOM     27  N   UNL     1       8.016   5.622  14.938  0.00  0.00    +0.000 NA
ATOM     28  N   UNL     1       7.788   5.549  13.585  0.00  0.00    +0.000 NA
ATOM     29  C   UNL     1       6.793   4.716  13.394  0.00  0.00    +0.000 A 
ATOM     30  N   UNL     1       6.346   4.260  14.596  0.00  0.00    +0.000 N 
ATOM     31  C   UNL     1       5.249   3.351  14.792  0.00  0.00    +0.000 C 
ENDBRANCH  25  26
ENDBRANCH  21  25
ENDBRANCH   5  21
TORSDOF 5
ENDMDL
MODEL 3
REMARK VINA RESULT:      -9.4      1.695      2.776
REMARK  Name = 
REMARK  7 active torsions:
REMARK  status: ('A' for Active; 'I' for Inactive)
REMARK    1  A    between atoms: C_1  and  C_2
REMARK    2  A    between atoms: C_4  and  N_5
REMARK    3  A    between atoms: N_12  and  C_13
REMARK    4  A    between atoms: C_17  and  C_18
REMARK    5  A    between atoms: C_18  and  C_19
REMARK    6  A    between atoms: C_19  and  C_20
REMARK    7  A    between atoms: N_24  and  C_25
REMARK                            x       y       z     vdW  Elec       q    Type
REMARK                         _______ _______ _______ _____ _____    ______ ____
ROOT
ATOM      1  C   UNL     1       2.769   5.927  18.570  0.00  0.00    +0.000 A 
ATOM      2  C   UNL     1       2.294   4.732  19.125  0.00  0.00    +0.000 A 
ATOM      3  C   UNL     1       2.792   3.496  18.734  0.00  0.00    +0.000 A 
ATOM      4  C   UNL     1       3.805   3.434  17.791  0.00  0.00    +0.000 A 
ATOM      5  C   UNL     1       4.355   4.597  17.217  0.00  0.00    +0.000 A 
ATOM      6  C   UNL     1       3.779   5.837  17.598  0.00  0.00    +0.000 A 
ENDROOT
BRANCH   1  16
ATOM      7  C   UNL     1       0.218  12.851  19.199  0.00  0.00    +0.000 C 
ATOM      8  C   UNL     1       0.571  11.449  19.600  0.00  0.00    +0.000 A 
ATOM      9  C   UNL     1       0.360  10.966  20.911  0.00  0.00    +0.000 A 
ATOM     10  C   UNL     1       0.678   9.641  21.299  0.00  0.00    +0.000 A 
ATOM     11  C   UNL     1       1.273   8.831  20.336  0.00  0.00    +0.000 A 
ATOM     12  C   UNL     1       1.491   9.336  19.059  0.00  0.00    +0.000 A 
ATOM     13  C   UNL     1       1.151  10.610  18.656  0.00  0.00    +0.000 A 
ATOM     14  C   UNL     1       2.144   8.325  18.250  0.00  0.00    +0.000 C 
ATOM     15  O   UNL     1       2.469   8.557  17.097  0.00  0.00    +0.000 OA
ATOM     16  N   UNL     1       2.282   7.181  19.036  0.00  0.00    +0.000 N 
ATOM     17  C   UNL     1       1.769   7.414  20.385  0.00  0.00    +0.000 C 
BRANCH  10  18
ATOM     18  N   UNL     1       0.560   9.222  22.641  0.00  0.00    +0.000 N 
ATOM     19  F   UNL     1      -0.811   8.805  22.789  0.00  0.00    +0.000 F 
ATOM     20  H   UNL     1       1.262   8.544  22.917  0.00  0.00    +0.000 HD
ENDBRANCH  10  18
ENDBRANCH   1  16
BRANCH   5  21
ATOM     21  C   UNL     1       5.647   4.488  16.276  0.00  0.00    +0.000 C 
ATOM     22  C   UNL     1       5.669   5.529  15.112  0.00  0.00    +0.000 C 
ATOM     23  O   UNL     1       6.112   4.515  14.178  0.00  0.00    +0.000 OA
ATOM     24  C   UNL     1       5.633   3.486  15.088  0.00  0.00    +0.000 C 
BRANCH  21  25
ATOM     25  C   UNL     1       6.965   4.525  17.066  0.00  0.00    +0.000 C 
BRANCH  25  26
ATOM     26  C   UNL     1       7.445   5.899  17.390  0.00  0.00    +0.000 A 
ATOM     27  N   UNL     1       7.511   6.915  16.551  0.00  0.00    +0.000 NA
ATOM     28  N   UNL     1       7.899   8.031  17.254  0.00  0.00    +0.000 NA
ATOM     29  C   UNL     1       8.063   7.675  18.505  0.00  0.00    +0.000 A 
ATOM     30  N   UNL     1       7.817   6.342  18.634  0.00  0.00    +0.000 N 
ATOM     31  C   UNL     1       7.922   5.585  19.852  0.00  0.00    +0.000 C 
ENDBRANCH  25  26
ENDBRANCH  21  25
ENDBRANCH   5  21
TORSDOF 5
ENDMDL
MODEL 4
REMARK VINA RESULT:      -9.4      1.768      2.219
REMARK  Name = 
REMARK  7 active torsions:
REMARK  status: ('A' for Active; 'I' for Inactive)
REMARK    1  A    between atoms: C_1  and  C_2
REMARK    2  A    between atoms: C_4  and  N_5
REMARK    3  A    between atoms: N_12  and  C_13
REMARK    4  A    between atoms: C_17  and  C_18
REMARK    5  A    between atoms: C_18  and  C_19
REMARK    6  A    between atoms: C_19  and  C_20
REMARK    7  A    between atoms: N_24  and  C_25
REMARK                            x       y       z     vdW  Elec       q    Type
REMARK                         _______ _______ _______ _____ _____    ______ ____
ROOT
ATOM      1  C   UNL     1       2.745   6.474  18.296  0.00  0.00    +0.000 A 
ATOM      2  C   UNL     1       2.135   5.242  18.026  0.00  0.00    +0.000 A 
ATOM      3  C   UNL     1       2.846   4.176  17.490  0.00  0.00    +0.000 A 
ATOM      4  C   UNL     1       4.201   4.315  17.239  0.00  0.00    +0.000 A 
ATOM      5  C   UNL     1       4.888   5.513  17.519  0.00  0.00    +0.000 A 
ATOM      6  C   UNL     1       4.115   6.598  18.009  0.00  0.00    +0.000 A 
ENDROOT
BRANCH   1  16
ATOM      7  C   UNL     1      -0.858  10.952  22.965  0.00  0.00    +0.000 C 
ATOM      8  C   UNL     1      -0.183  10.496  21.705  0.00  0.00    +0.000 A 
ATOM      9  C   UNL     1      -0.089  11.322  20.562  0.00  0.00    +0.000 A 
ATOM     10  C   UNL     1       0.557  10.908  19.371  0.00  0.00    +0.000 A 
ATOM     11  C   UNL     1       1.056   9.609  19.346  0.00  0.00    +0.000 A 
ATOM     12  C   UNL     1       0.931   8.809  20.476  0.00  0.00    +0.000 A 
ATOM     13  C   UNL     1       0.341   9.210  21.655  0.00  0.00    +0.000 A 
ATOM     14  C   UNL     1       1.494   7.501  20.200  0.00  0.00    +0.000 C 
ATOM     15  O   UNL     1       1.464   6.615  21.038  0.00  0.00    +0.000 OA
ATOM     16  N   UNL     1       2.004   7.528  18.902  0.00  0.00    +0.000 N 
ATOM     17  C   UNL     1       1.758   8.825  18.274  0.00  0.00    +0.000 C 
BRANCH  10  18
ATOM     18  N   UNL     1       0.538  11.711  18.211  0.00  0.00    +0.000 N 
ATOM     19  F   UNL     1      -0.509  12.674  18.432  0.00  0.00    +0.000 F 
ATOM     20  H   UNL     1       1.447  12.091  17.966  0.00  0.00    +0.000 HD
ENDBRANCH  10  18
ENDBRANCH   1  16
BRANCH   5  21
ATOM     21  C   UNL     1       6.484   5.567  17.389  0.00  0.00    +0.000 C 
ATOM     22  C   UNL     1       7.227   5.606  18.762  0.00  0.00    +0.000 C 
ATOM     23  O   UNL     1       8.131   6.626  18.273  0.00  0.00    +0.000 OA
ATOM     24  C   UNL     1       7.181   6.946  17.219  0.00  0.00    +0.000 C 
BRANCH  21  25
ATOM     25  C   UNL     1       7.047   4.450  16.495  0.00  0.00    +0.000 C 
BRANCH  25  26
ATOM     26  C   UNL     1       7.280   4.860  15.081  0.00  0.00    +0.000 A 
ATOM     27  N   UNL     1       8.240   5.656  14.652  0.00  0.00    +0.000 NA
ATOM     28  N   UNL     1       8.184   5.700  13.279  0.00  0.00    +0.000 NA
ATOM     29  C   UNL     1       7.191   4.933  12.897  0.00  0.00    +0.000 A 
ATOM     30  N   UNL     1       6.577   4.407  13.993  0.00  0.00    +0.000 N 
ATOM     31  C   UNL     1       5.430   3.540  13.974  0.00  0.00    +0.000 C 
ENDBRANCH  25  26
ENDBRANCH  21  25
ENDBRANCH   5  21
TORSDOF 5
ENDMDL
MODEL 5
REMARK VINA RESULT:      -9.3      1.925      2.941
REMARK  Name = 
REMARK  7 active torsions:
REMARK  status: ('A' for Active; 'I' for Inactive)
REMARK    1  A    between atoms: C_1  and  C_2
REMARK    2  A    between atoms: C_4  and  N_5
REMARK    3  A    between atoms: N_12  and  C_13
REMARK    4  A    between atoms: C_17  and  C_18
REMARK    5  A    between atoms: C_18  and  C_19
REMARK    6  A    between atoms: C_19  and  C_20
REMARK    7  A    between atoms: N_24  and  C_25
REMARK                            x       y       z     vdW  Elec       q    Type
REMARK                         _______ _______ _______ _____ _____    ______ ____
ROOT
ATOM      1  C   UNL     1       2.693   6.126  18.359  0.00  0.00    +0.000 A 
ATOM      2  C   UNL     1       2.193   4.893  18.799  0.00  0.00    +0.000 A 
ATOM      3  C   UNL     1       2.675   3.689  18.301  0.00  0.00    +0.000 A 
ATOM      4  C   UNL     1       3.697   3.696  17.365  0.00  0.00    +0.000 A 
ATOM      5  C   UNL     1       4.271   4.898  16.904  0.00  0.00    +0.000 A 
ATOM      6  C   UNL     1       3.711   6.107  17.391  0.00  0.00    +0.000 A 
ENDROOT
BRANCH   1  16
ATOM      7  C   UNL     1       0.154  12.974  19.584  0.00  0.00    +0.000 C 
ATOM      8  C   UNL     1       0.525  11.548  19.868  0.00  0.00    +0.000 A 
ATOM      9  C   UNL     1       0.363  10.970  21.148  0.00  0.00    +0.000 A 
ATOM     10  C   UNL     1       0.698   9.621  21.426  0.00  0.00    +0.000 A 
ATOM     11  C   UNL     1       1.258   8.887  20.385  0.00  0.00    +0.000 A 
ATOM     12  C   UNL     1       1.428   9.484  19.142  0.00  0.00    +0.000 A 
ATOM     13  C   UNL     1       1.071  10.782  18.845  0.00  0.00    +0.000 A 
ATOM     14  C   UNL     1       2.052   8.538  18.237  0.00  0.00    +0.000 C 
ATOM     15  O   UNL     1       2.333   8.855  17.094  0.00  0.00    +0.000 OA
ATOM     16  N   UNL     1       2.221   7.340  18.932  0.00  0.00    +0.000 N 
ATOM     17  C   UNL     1       1.758   7.472  20.313  0.00  0.00    +0.000 C 
BRANCH  10  18
ATOM     18  N   UNL     1       0.630   9.105  22.737  0.00  0.00    +0.000 N 
ATOM     19  F   UNL     1      -0.192  10.034  23.469  0.00  0.00    +0.000 F 
ATOM     20  H   UNL     1       0.344   8.133  22.776  0.00  0.00    +0.000 HD
ENDBRANCH  10  18
ENDBRANCH   1  16
BRANCH   5  21
ATOM     21  C   UNL     1       5.570   4.853  15.968  0.00  0.00    +0.000 C 
ATOM     22  C   UNL     1       5.246   4.800  14.442  0.00  0.00    +0.000 C 
ATOM     23  O   UNL     1       6.264   3.791  14.233  0.00  0.00    +0.000 OA
ATOM     24  C   UNL     1       6.227   3.479  15.654  0.00  0.00    +0.000 C 
BRANCH  21  25
ATOM     25  C   UNL     1       6.566   5.983  16.275  0.00  0.00    +0.000 C 
BRANCH  25  26
ATOM     26  C   UNL     1       7.172   5.910  17.635  0.00  0.00    +0.000 A 
ATOM     27  N   UNL     1       7.254   4.832  18.391  0.00  0.00    +0.000 NA
ATOM     28  N   UNL     1       7.973   5.149  19.519  0.00  0.00    +0.000 NA
ATOM     29  C   UNL     1       8.313   6.412  19.432  0.00  0.00    +0.000 A 
ATOM     30  N   UNL     1       7.810   6.939  18.281  0.00  0.00    +0.000 N 
ATOM     31  C   UNL     1       7.952   8.305  17.854  0.00  0.00    +0.000 C 
ENDBRANCH  25  26
ENDBRANCH  21  25
ENDBRANCH   5  21
TORSDOF 5
ENDMDL
MODEL 6
REMARK VINA RESULT:      -9.3      2.982      4.244
REMARK  Name = 
REMARK  7 active torsions:
REMARK  status: ('A' for Active; 'I' for Inactive)
REMARK    1  A    between atoms: C_1  and  C_2
REMARK    2  A    between atoms: C_4  and  N_5
REMARK    3  A    between atoms: N_12  and  C_13
REMARK    4  A    between atoms: C_17  and  C_18
REMARK    5  A    between atoms: C_18  and  C_19
REMARK    6  A    between atoms: C_19  and  C_20
REMARK    7  A    between atoms: N_24  and  C_25
REMARK                            x       y       z     vdW  Elec       q    Type
REMARK                         _______ _______ _______ _____ _____    ______ ____
ROOT
ATOM      1  C   UNL     1       2.063   8.202  18.807  0.00  0.00    +0.000 A 
ATOM      2  C   UNL     1       2.806   8.604  17.689  0.00  0.00    +0.000 A 
ATOM      3  C   UNL     1       3.704   7.749  17.063  0.00  0.00    +0.000 A 
ATOM      4  C   UNL     1       3.855   6.453  17.530  0.00  0.00    +0.000 A 
ATOM      5  C   UNL     1       3.114   5.970  18.627  0.00  0.00    +0.000 A 
ATOM      6  C   UNL     1       2.252   6.891  19.277  0.00  0.00    +0.000 A 
ENDROOT
BRANCH   1  16
ATOM      7  C   UNL     1      -2.069  12.285  23.400  0.00  0.00    +0.000 C 
ATOM      8  C   UNL     1      -1.496  11.782  22.107  0.00  0.00    +0.000 A 
ATOM      9  C   UNL     1      -1.896  12.301  20.855  0.00  0.00    +0.000 A 
ATOM     10  C   UNL     1      -1.353  11.843  19.629  0.00  0.00    +0.000 A 
ATOM     11  C   UNL     1      -0.434  10.800  19.700  0.00  0.00    +0.000 A 
ATOM     12  C   UNL     1      -0.074  10.291  20.942  0.00  0.00    +0.000 A 
ATOM     13  C   UNL     1      -0.563  10.752  22.146  0.00  0.00    +0.000 A 
ATOM     14  C   UNL     1       0.865   9.201  20.759  0.00  0.00    +0.000 C 
ATOM     15  O   UNL     1       1.294   8.575  21.713  0.00  0.00    +0.000 OA
ATOM     16  N   UNL     1       1.107   9.080  19.390  0.00  0.00    +0.000 N 
ATOM     17  C   UNL     1       0.312  10.047  18.635  0.00  0.00    +0.000 C 
BRANCH  10  18
ATOM     18  N   UNL     1      -1.851  12.301  18.391  0.00  0.00    +0.000 N 
ATOM     19  F   UNL     1      -0.820  13.155  17.860  0.00  0.00    +0.000 F 
ATOM     20  H   UNL     1      -2.169  11.555  17.781  0.00  0.00    +0.000 HD
ENDBRANCH  10  18
ENDBRANCH   1  16
BRANCH   5  21
ATOM     21  C   UNL     1       3.182   4.417  19.013  0.00  0.00    +0.000 C 
ATOM     22  C   UNL     1       1.893   3.618  18.641  0.00  0.00    +0.000 C 
ATOM     23  O   UNL     1       1.920   2.930  19.915  0.00  0.00    +0.000 OA
ATOM     24  C   UNL     1       2.778   3.978  20.448  0.00  0.00    +0.000 C 
BRANCH  21  25
ATOM     25  C   UNL     1       4.435   3.719  18.459  0.00  0.00    +0.000 C 
BRANCH  25  26
ATOM     26  C   UNL     1       5.709   4.442  18.737  0.00  0.00    +0.000 A 
ATOM     27  N   UNL     1       6.103   4.897  19.911  0.00  0.00    +0.000 NA
ATOM     28  N   UNL     1       7.374   5.402  19.773  0.00  0.00    +0.000 NA
ATOM     29  C   UNL     1       7.730   5.249  18.521  0.00  0.00    +0.000 A 
ATOM     30  N   UNL     1       6.708   4.676  17.826  0.00  0.00    +0.000 N 
ATOM     31  C   UNL     1       6.717   4.378  16.419  0.00  0.00    +0.000 C 
ENDBRANCH  25  26
ENDBRANCH  21  25
ENDBRANCH   5  21
TORSDOF 5
ENDMDL
MODEL 7
REMARK VINA RESULT:      -9.2      2.515      3.588
REMARK  Name = 
REMARK  7 active torsions:
REMARK  status: ('A' for Active; 'I' for Inactive)
REMARK    1  A    between atoms: C_1  and  C_2
REMARK    2  A    between atoms: C_4  and  N_5
REMARK    3  A    between atoms: N_12  and  C_13
REMARK    4  A    between atoms: C_17  and  C_18
REMARK    5  A    between atoms: C_18  and  C_19
REMARK    6  A    between atoms: C_19  and  C_20
REMARK    7  A    between atoms: N_24  and  C_25
REMARK                            x       y       z     vdW  Elec       q    Type
REMARK                         _______ _______ _______ _____ _____    ______ ____
ROOT
ATOM      1  C   UNL     1       2.927   5.369  18.358  0.00  0.00    +0.000 A 
ATOM      2  C   UNL     1       2.592   4.098  18.843  0.00  0.00    +0.000 A 
ATOM      3  C   UNL     1       3.227   2.950  18.386  0.00  0.00    +0.000 A 
ATOM      4  C   UNL     1       4.240   3.057  17.446  0.00  0.00    +0.000 A 
ATOM      5  C   UNL     1       4.654   4.306  16.941  0.00  0.00    +0.000 A 
ATOM      6  C   UNL     1       3.940   5.448  17.387  0.00  0.00    +0.000 A 
ENDROOT
BRANCH   1  16
ATOM      7  C   UNL     1      -0.189  10.490  22.706  0.00  0.00    +0.000 C 
ATOM      8  C   UNL     1       0.436   9.886  21.482  0.00  0.00    +0.000 A 
ATOM      9  C   UNL     1       0.616  10.622  20.289  0.00  0.00    +0.000 A 
ATOM     10  C   UNL     1       1.215  10.067  19.131  0.00  0.00    +0.000 A 
ATOM     11  C   UNL     1       1.576   8.725  19.194  0.00  0.00    +0.000 A 
ATOM     12  C   UNL     1       1.367   8.015  20.371  0.00  0.00    +0.000 A 
ATOM     13  C   UNL     1       0.822   8.551  21.518  0.00  0.00    +0.000 A 
ATOM     14  C   UNL     1       1.790   6.641  20.183  0.00  0.00    +0.000 C 
ATOM     15  O   UNL     1       1.667   5.819  21.076  0.00  0.00    +0.000 OA
ATOM     16  N   UNL     1       2.301   6.531  18.890  0.00  0.00    +0.000 N 
ATOM     17  C   UNL     1       2.192   7.804  18.179  0.00  0.00    +0.000 C 
BRANCH  10  18
ATOM     18  N   UNL     1       1.281  10.791  17.923  0.00  0.00    +0.000 N 
ATOM     19  F   UNL     1       2.666  11.159  17.775  0.00  0.00    +0.000 F 
ATOM     20  H   UNL     1       0.865  10.305  17.136  0.00  0.00    +0.000 HD
ENDBRANCH  10  18
ENDBRANCH   1  16
BRANCH   5  21
ATOM     21  C   UNL     1       5.949   4.398  16.003  0.00  0.00    +0.000 C 
ATOM     22  C   UNL     1       5.859   5.511  14.912  0.00  0.00    +0.000 C 
ATOM     23  O   UNL     1       6.406   4.615  13.914  0.00  0.00    +0.000 OA
ATOM     24  C   UNL     1       6.039   3.481  14.750  0.00  0.00    +0.000 C 
BRANCH  21  25
ATOM     25  C   UNL     1       7.257   4.521  16.802  0.00  0.00    +0.000 C 
BRANCH  25  26
ATOM     26  C   UNL     1       7.576   5.909  17.240  0.00  0.00    +0.000 A 
ATOM     27  N   UNL     1       7.626   6.975  16.464  0.00  0.00    +0.000 NA
ATOM     28  N   UNL     1       7.843   8.076  17.257  0.00  0.00    +0.000 NA
ATOM     29  C   UNL     1       7.924   7.662  18.499  0.00  0.00    +0.000 A 
ATOM     30  N   UNL     1       7.790   6.308  18.535  0.00  0.00    +0.000 N 
ATOM     31  C   UNL     1       7.851   5.492  19.718  0.00  0.00    +0.000 C 
ENDBRANCH  25  26
ENDBRANCH  21  25
ENDBRANCH   5  21
TORSDOF 5
ENDMDL
MODEL 8
REMARK VINA RESULT:      -9.2      3.309      9.125
REMARK  Name = 
REMARK  7 active torsions:
REMARK  status: ('A' for Active; 'I' for Inactive)
REMARK    1  A    between atoms: C_1  and  C_2
REMARK    2  A    between atoms: C_4  and  N_5
REMARK    3  A    between atoms: N_12  and  C_13
REMARK    4  A    between atoms: C_17  and  C_18
REMARK    5  A    between atoms: C_18  and  C_19
REMARK    6  A    between atoms: C_19  and  C_20
REMARK    7  A    between atoms: N_24  and  C_25
REMARK                            x       y       z     vdW  Elec       q    Type
REMARK                         _______ _______ _______ _____ _____    ______ ____
ROOT
ATOM      1  C   UNL     1       1.821   7.977  19.750  0.00  0.00    +0.000 A 
ATOM      2  C   UNL     1       1.305   7.566  20.987  0.00  0.00    +0.000 A 
ATOM      3  C   UNL     1       0.390   8.337  21.690  0.00  0.00    +0.000 A 
ATOM      4  C   UNL     1      -0.055   9.533  21.151  0.00  0.00    +0.000 A 
ATOM      5  C   UNL     1       0.393   9.992  19.895  0.00  0.00    +0.000 A 
ATOM      6  C   UNL     1       1.373   9.206  19.236  0.00  0.00    +0.000 A 
ENDROOT
BRANCH   1  16
ATOM      7  C   UNL     1       6.575   5.067  14.875  0.00  0.00    +0.000 C 
ATOM      8  C   UNL     1       5.774   5.205  16.137  0.00  0.00    +0.000 A 
ATOM      9  C   UNL     1       5.832   4.245  17.173  0.00  0.00    +0.000 A 
ATOM     10  C   UNL     1       5.091   4.370  18.374  0.00  0.00    +0.000 A 
ATOM     11  C   UNL     1       4.241   5.467  18.475  0.00  0.00    +0.000 A 
ATOM     12  C   UNL     1       4.184   6.386  17.433  0.00  0.00    +0.000 A 
ATOM     13  C   UNL     1       4.928   6.299  16.276  0.00  0.00    +0.000 A 
ATOM     14  C   UNL     1       3.214   7.414  17.754  0.00  0.00    +0.000 C 
ATOM     15  O   UNL     1       2.968   8.312  16.967  0.00  0.00    +0.000 OA
ATOM     16  N   UNL     1       2.711   7.136  19.025  0.00  0.00    +0.000 N 
ATOM     17  C   UNL     1       3.296   5.906  19.557  0.00  0.00    +0.000 C 
BRANCH  10  18
ATOM     18  N   UNL     1       5.084   3.342  19.340  0.00  0.00    +0.000 N 
ATOM     19  F   UNL     1       3.885   2.587  19.082  0.00  0.00    +0.000 F 
ATOM     20  H   UNL     1       5.947   2.809  19.372  0.00  0.00    +0.000 HD
ENDBRANCH  10  18
ENDBRANCH   1  16
BRANCH   5  21
ATOM     21  C   UNL     1      -0.286  11.280  19.228  0.00  0.00    +0.000 C 
ATOM     22  C   UNL     1      -1.512  11.829  20.022  0.00  0.00    +0.000 C 
ATOM     23  O   UNL     1      -2.259  12.012  18.795  0.00  0.00    +0.000 OA
ATOM     24  C   UNL     1      -1.364  11.080  18.127  0.00  0.00    +0.000 C 
BRANCH  21  25
ATOM     25  C   UNL     1       0.724  12.404  18.939  0.00  0.00    +0.000 C 
BRANCH  25  26
ATOM     26  C   UNL     1       0.951  13.330  20.084  0.00  0.00    +0.000 A 
ATOM     27  N   UNL     1       1.661  13.068  21.165  0.00  0.00    +0.000 NA
ATOM     28  N   UNL     1       1.721  14.208  21.929  0.00  0.00    +0.000 NA
ATOM     29  C   UNL     1       1.045  15.142  21.304  0.00  0.00    +0.000 A 
ATOM     30  N   UNL     1       0.521  14.631  20.156  0.00  0.00    +0.000 N 
ATOM     31  C   UNL     1      -0.305  15.347  19.221  0.00  0.00    +0.000 C 
ENDBRANCH  25  26
ENDBRANCH  21  25
ENDBRANCH   5  21
TORSDOF 5
ENDMDL
MODEL 9
REMARK VINA RESULT:      -9.1      2.446      3.590
REMARK  Name = 
REMARK  7 active torsions:
REMARK  status: ('A' for Active; 'I' for Inactive)
REMARK    1  A    between atoms: C_1  and  C_2
REMARK    2  A    between atoms: C_4  and  N_5
REMARK    3  A    between atoms: N_12  and  C_13
REMARK    4  A    between atoms: C_17  and  C_18
REMARK    5  A    between atoms: C_18  and  C_19
REMARK    6  A    between atoms: C_19  and  C_20
REMARK    7  A    between atoms: N_24  and  C_25
REMARK                            x       y       z     vdW  Elec       q    Type
REMARK                         _______ _______ _______ _____ _____    ______ ____
ROOT
ATOM      1  C   UNL     1       2.266   7.932  18.950  0.00  0.00    +0.000 A 
ATOM      2  C   UNL     1       2.805   8.363  17.730  0.00  0.00    +0.000 A 
ATOM      3  C   UNL     1       3.537   7.511  16.914  0.00  0.00    +0.000 A 
ATOM      4  C   UNL     1       3.721   6.191  17.292  0.00  0.00    +0.000 A 
ATOM      5  C   UNL     1       3.177   5.680  18.488  0.00  0.00    +0.000 A 
ATOM      6  C   UNL     1       2.487   6.596  19.323  0.00  0.00    +0.000 A 
ENDROOT
BRANCH   1  16
ATOM      7  C   UNL     1      -2.202  13.301  21.411  0.00  0.00    +0.000 C 
ATOM      8  C   UNL     1      -1.397  12.034  21.426  0.00  0.00    +0.000 A 
ATOM      9  C   UNL     1      -1.315  11.208  22.571  0.00  0.00    +0.000 A 
ATOM     10  C   UNL     1      -0.570  10.004  22.593  0.00  0.00    +0.000 A 
ATOM     11  C   UNL     1       0.143   9.686  21.441  0.00  0.00    +0.000 A 
ATOM     12  C   UNL     1       0.065  10.525  20.336  0.00  0.00    +0.000 A 
ATOM     13  C   UNL     1      -0.688  11.680  20.285  0.00  0.00    +0.000 A 
ATOM     14  C   UNL     1       0.909  10.004  19.278  0.00  0.00    +0.000 C 
ATOM     15  O   UNL     1       1.027  10.599  18.219  0.00  0.00    +0.000 OA
ATOM     16  N   UNL     1       1.469   8.812  19.736  0.00  0.00    +0.000 N 
ATOM     17  C   UNL     1       1.050   8.535  21.109  0.00  0.00    +0.000 C 
BRANCH  10  18
ATOM     18  N   UNL     1      -0.417   9.260  23.782  0.00  0.00    +0.000 N 
ATOM     19  F   UNL     1       0.967   9.413  24.150  0.00  0.00    +0.000 F 
ATOM     20  H   UNL     1      -1.096   9.495  24.498  0.00  0.00    +0.000 HD
ENDBRANCH  10  18
ENDBRANCH   1  16
BRANCH   5  21
ATOM     21  C   UNL     1       3.254   4.109  18.792  0.00  0.00    +0.000 C 
ATOM     22  C   UNL     1       2.060   3.294  18.203  0.00  0.00    +0.000 C 
ATOM     23  O   UNL     1       1.942   2.531  19.428  0.00  0.00    +0.000 OA
ATOM     24  C   UNL     1       2.678   3.571  20.131  0.00  0.00    +0.000 C 
BRANCH  21  25
ATOM     25  C   UNL     1       4.598   3.486  18.377  0.00  0.00    +0.000 C 
BRANCH  25  26
ATOM     26  C   UNL     1       5.785   4.330  18.694  0.00  0.00    +0.000 A 
ATOM     27  N   UNL     1       6.103   4.807  19.882  0.00  0.00    +0.000 NA
ATOM     28  N   UNL     1       7.319   5.439  19.782  0.00  0.00    +0.000 NA
ATOM     29  C   UNL     1       7.719   5.339  18.537  0.00  0.00    +0.000 A 
ATOM     30  N   UNL     1       6.777   4.675  17.811  0.00  0.00    +0.000 N 
ATOM     31  C   UNL     1       6.849   4.397  16.402  0.00  0.00    +0.000 C 
ENDBRANCH  25  26
ENDBRANCH  21  25
ENDBRANCH   5  21
TORSDOF 5
ENDMDL
