MODEL 1
REMARK VINA RESULT:      -8.5      0.000      0.000
REMARK  Name = 
REMARK  5 active torsions:
REMARK  status: ('A' for Active; 'I' for Inactive)
REMARK    1  A    between atoms: C_2  and  C_3
REMARK    2  A    between atoms: C_3  and  C_4
REMARK    3  A    between atoms: N_14  and  C_15
REMARK    4  A    between atoms: N_18  and  C_19
REMARK    5  A    between atoms: C_19  and  C_20
REMARK                            x       y       z     vdW  Elec       q    Type
REMARK                         _______ _______ _______ _____ _____    ______ ____
ROOT
ATOM      1  O   UNL     1       0.970   4.917  20.689  0.00  0.00    +0.000 OA
ATOM      2  C   UNL     1       2.109   5.360  20.565  0.00  0.00    +0.000 C 
ATOM      3  N   UNL     1       2.389   6.711  20.542  0.00  0.00    +0.000 N 
ATOM      4  H   UNL     1       3.243   6.998  20.075  0.00  0.00    +0.000 HD
ENDROOT
BRANCH   3   5
ATOM      5  C   UNL     1       1.325   7.700  20.576  0.00  0.00    +0.000 C 
ATOM      6  C   UNL     1       1.362   8.662  21.763  0.00  0.00    +0.000 C 
ATOM      7  C   UNL     1       0.575   9.863  21.264  0.00  0.00    +0.000 C 
ATOM      8  N   UNL     1       0.825   9.878  19.843  0.00  0.00    +0.000 N 
ATOM      9  C   UNL     1       1.381   8.683  19.402  0.00  0.00    +0.000 C 
ATOM     10  O   UNL     1       1.791   8.427  18.280  0.00  0.00    +0.000 OA
BRANCH   8  11
ATOM     11  C   UNL     1       0.451  10.997  18.995  0.00  0.00    +0.000 C 
BRANCH  11  12
ATOM     12  C   UNL     1      -0.986  10.940  18.534  0.00  0.00    +0.000 A 
ATOM     13  C   UNL     1      -1.379  10.029  17.539  0.00  0.00    +0.000 A 
ATOM     14  C   UNL     1      -2.700   9.991  17.091  0.00  0.00    +0.000 A 
ATOM     15  C   UNL     1      -3.638  10.847  17.652  0.00  0.00    +0.000 A 
ATOM     16  F   UNL     1      -4.902  10.823  17.210  0.00  0.00    +0.000 F 
ATOM     17  C   UNL     1      -3.283  11.732  18.663  0.00  0.00    +0.000 A 
ATOM     18  C   UNL     1      -1.958  11.779  19.105  0.00  0.00    +0.000 A 
ENDBRANCH  11  12
ENDBRANCH   8  11
ENDBRANCH   3   5
BRANCH   2  19
ATOM     19  C   UNL     1       3.327   4.456  20.467  0.00  0.00    +0.000 C 
BRANCH  19  20
ATOM     20  C   UNL     1       3.874   4.301  19.070  0.00  0.00    +0.000 A 
ATOM     21  C   UNL     1       3.042   3.920  18.015  0.00  0.00    +0.000 A 
ATOM     22  C   UNL     1       3.535   3.847  16.707  0.00  0.00    +0.000 A 
ATOM     23  C   UNL     1       4.873   4.166  16.425  0.00  0.00    +0.000 A 
ATOM     24  C   UNL     1       5.380   4.128  15.115  0.00  0.00    +0.000 A 
ATOM     25  C   UNL     1       6.713   4.460  14.856  0.00  0.00    +0.000 A 
ATOM     26  C   UNL     1       7.551   4.829  15.902  0.00  0.00    +0.000 A 
ATOM     27  C   UNL     1       7.064   4.873  17.208  0.00  0.00    +0.000 A 
ATOM     28  C   UNL     1       5.724   4.547  17.485  0.00  0.00    +0.000 A 
ATOM     29  C   UNL     1       5.218   4.610  18.792  0.00  0.00    +0.000 A 
ENDBRANCH  19  20
ENDBRANCH   2  19
TORSDOF 5
ENDMDL
MODEL 2
REMARK VINA RESULT:      -8.4      0.564      1.403
REMARK  Name = 
REMARK  5 active torsions:
REMARK  status: ('A' for Active; 'I' for Inactive)
REMARK    1  A    between atoms: C_2  and  C_3
REMARK    2  A    between atoms: C_3  and  C_4
REMARK    3  A    between atoms: N_14  and  C_15
REMARK    4  A    between atoms: N_18  and  C_19
REMARK    5  A    between atoms: C_19  and  C_20
REMARK                            x       y       z     vdW  Elec       q    Type
REMARK                         _______ _______ _______ _____ _____    ______ ____
ROOT
ATOM      1  O   UNL     1       1.187   4.737  20.175  0.00  0.00    +0.000 OA
ATOM      2  C   UNL     1       2.318   5.211  20.252  0.00  0.00    +0.000 C 
ATOM      3  N   UNL     1       2.556   6.562  20.399  0.00  0.00    +0.000 N 
ATOM      4  H   UNL     1       3.456   6.910  20.083  0.00  0.00    +0.000 HD
ENDROOT
BRANCH   3   5
ATOM      5  C   UNL     1       1.467   7.523  20.385  0.00  0.00    +0.000 C 
ATOM      6  C   UNL     1       1.425   8.485  21.572  0.00  0.00    +0.000 C 
ATOM      7  C   UNL     1       0.631   9.666  21.037  0.00  0.00    +0.000 C 
ATOM      8  N   UNL     1       0.945   9.688  19.629  0.00  0.00    +0.000 N 
ATOM      9  C   UNL     1       1.551   8.508  19.214  0.00  0.00    +0.000 C 
ATOM     10  O   UNL     1       2.018   8.264  18.112  0.00  0.00    +0.000 OA
BRANCH   8  11
ATOM     11  C   UNL     1       0.581  10.798  18.764  0.00  0.00    +0.000 C 
BRANCH  11  12
ATOM     12  C   UNL     1      -0.882  10.805  18.387  0.00  0.00    +0.000 A 
ATOM     13  C   UNL     1      -1.373   9.907  17.425  0.00  0.00    +0.000 A 
ATOM     14  C   UNL     1      -2.719   9.927  17.056  0.00  0.00    +0.000 A 
ATOM     15  C   UNL     1      -3.582  10.830  17.662  0.00  0.00    +0.000 A 
ATOM     16  F   UNL     1      -4.870  10.861  17.296  0.00  0.00    +0.000 F 
ATOM     17  C   UNL     1      -3.128  11.703  18.644  0.00  0.00    +0.000 A 
ATOM     18  C   UNL     1      -1.779  11.691  19.007  0.00  0.00    +0.000 A 
ENDBRANCH  11  12
ENDBRANCH   8  11
ENDBRANCH   3   5
BRANCH   2  19
ATOM     19  C   UNL     1       3.566   4.343  20.233  0.00  0.00    +0.000 C 
BRANCH  19  20
ATOM     20  C   UNL     1       4.521   4.654  19.107  0.00  0.00    +0.000 A 
ATOM     21  C   UNL     1       5.746   5.274  19.360  0.00  0.00    +0.000 A 
ATOM     22  C   UNL     1       6.662   5.495  18.325  0.00  0.00    +0.000 A 
ATOM     23  C   UNL     1       6.373   5.089  17.012  0.00  0.00    +0.000 A 
ATOM     24  C   UNL     1       7.291   5.276  15.964  0.00  0.00    +0.000 A 
ATOM     25  C   UNL     1       6.987   4.854  14.667  0.00  0.00    +0.000 A 
ATOM     26  C   UNL     1       5.764   4.247  14.404  0.00  0.00    +0.000 A 
ATOM     27  C   UNL     1       4.842   4.054  15.432  0.00  0.00    +0.000 A 
ATOM     28  C   UNL     1       5.135   4.467  16.744  0.00  0.00    +0.000 A 
ATOM     29  C   UNL     1       4.224   4.257  17.791  0.00  0.00    +0.000 A 
ENDBRANCH  19  20
ENDBRANCH   2  19
TORSDOF 5
ENDMDL
MODEL 3
REMARK VINA RESULT:      -8.3      0.879      1.915
REMARK  Name = 
REMARK  5 active torsions:
REMARK  status: ('A' for Active; 'I' for Inactive)
REMARK    1  A    between atoms: C_2  and  C_3
REMARK    2  A    between atoms: C_3  and  C_4
REMARK    3  A    between atoms: N_14  and  C_15
REMARK    4  A    between atoms: N_18  and  C_19
REMARK    5  A    between atoms: C_19  and  C_20
REMARK                            x       y       z     vdW  Elec       q    Type
REMARK                         _______ _______ _______ _____ _____    ______ ____
ROOT
ATOM      1  O   UNL     1       1.943   4.611  19.600  0.00  0.00    +0.000 OA
ATOM      2  C   UNL     1       2.985   5.255  19.691  0.00  0.00    +0.000 C 
ATOM      3  N   UNL     1       3.007   6.626  19.843  0.00  0.00    +0.000 N 
ATOM      4  H   UNL     1       3.845   7.112  19.538  0.00  0.00    +0.000 HD
ENDROOT
BRANCH   3   5
ATOM      5  C   UNL     1       1.781   7.405  19.818  0.00  0.00    +0.000 C 
ATOM      6  C   UNL     1       1.423   8.107  21.127  0.00  0.00    +0.000 C 
ATOM      7  C   UNL     1       0.515   9.241  20.679  0.00  0.00    +0.000 C 
ATOM      8  N   UNL     1       1.000   9.576  19.362  0.00  0.00    +0.000 N 
ATOM      9  C   UNL     1       1.847   8.597  18.856  0.00  0.00    +0.000 C 
ATOM     10  O   UNL     1       2.488   8.637  17.817  0.00  0.00    +0.000 OA
BRANCH   8  11
ATOM     11  C   UNL     1       0.568  10.767  18.650  0.00  0.00    +0.000 C 
BRANCH  11  12
ATOM     12  C   UNL     1      -0.911  10.771  18.340  0.00  0.00    +0.000 A 
ATOM     13  C   UNL     1      -1.759  11.722  18.930  0.00  0.00    +0.000 A 
ATOM     14  C   UNL     1      -3.129  11.713  18.667  0.00  0.00    +0.000 A 
ATOM     15  C   UNL     1      -3.653  10.768  17.795  0.00  0.00    +0.000 A 
ATOM     16  F   UNL     1      -4.971  10.749  17.555  0.00  0.00    +0.000 F 
ATOM     17  C   UNL     1      -2.830   9.840  17.169  0.00  0.00    +0.000 A 
ATOM     18  C   UNL     1      -1.459   9.841  17.440  0.00  0.00    +0.000 A 
ENDBRANCH  11  12
ENDBRANCH   8  11
ENDBRANCH   3   5
BRANCH   2  19
ATOM     19  C   UNL     1       4.353   4.593  19.685  0.00  0.00    +0.000 C 
BRANCH  19  20
ATOM     20  C   UNL     1       5.157   4.841  18.432  0.00  0.00    +0.000 A 
ATOM     21  C   UNL     1       6.340   5.582  18.477  0.00  0.00    +0.000 A 
ATOM     22  C   UNL     1       7.123   5.749  17.329  0.00  0.00    +0.000 A 
ATOM     23  C   UNL     1       6.741   5.167  16.109  0.00  0.00    +0.000 A 
ATOM     24  C   UNL     1       7.527   5.299  14.951  0.00  0.00    +0.000 A 
ATOM     25  C   UNL     1       7.133   4.702  13.750  0.00  0.00    +0.000 A 
ATOM     26  C   UNL     1       5.950   3.973  13.694  0.00  0.00    +0.000 A 
ATOM     27  C   UNL     1       5.158   3.832  14.834  0.00  0.00    +0.000 A 
ATOM     28  C   UNL     1       5.543   4.421  16.051  0.00  0.00    +0.000 A 
ATOM     29  C   UNL     1       4.766   4.267  17.209  0.00  0.00    +0.000 A 
ENDBRANCH  19  20
ENDBRANCH   2  19
TORSDOF 5
ENDMDL
MODEL 4
REMARK VINA RESULT:      -8.2      3.570      9.929
REMARK  Name = 
REMARK  5 active torsions:
REMARK  status: ('A' for Active; 'I' for Inactive)
REMARK    1  A    between atoms: C_2  and  C_3
REMARK    2  A    between atoms: C_3  and  C_4
REMARK    3  A    between atoms: N_14  and  C_15
REMARK    4  A    between atoms: N_18  and  C_19
REMARK    5  A    between atoms: C_19  and  C_20
REMARK                            x       y       z     vdW  Elec       q    Type
REMARK                         _______ _______ _______ _____ _____    ______ ____
ROOT
ATOM      1  O   UNL     1      -1.428  10.705  18.137  0.00  0.00    +0.000 OA
ATOM      2  C   UNL     1      -0.660  11.207  18.954  0.00  0.00    +0.000 C 
ATOM      3  N   UNL     1       0.551  10.640  19.291  0.00  0.00    +0.000 N 
ATOM      4  H   UNL     1       0.937  10.879  20.199  0.00  0.00    +0.000 HD
ENDROOT
BRANCH   3   5
ATOM      5  C   UNL     1       0.953   9.351  18.754  0.00  0.00    +0.000 C 
ATOM      6  C   UNL     1       2.064   9.395  17.705  0.00  0.00    +0.000 C 
ATOM      7  C   UNL     1       2.658   7.997  17.766  0.00  0.00    +0.000 C 
ATOM      8  N   UNL     1       2.474   7.599  19.141  0.00  0.00    +0.000 N 
ATOM      9  C   UNL     1       1.581   8.431  19.806  0.00  0.00    +0.000 C 
ATOM     10  O   UNL     1       1.296   8.412  20.994  0.00  0.00    +0.000 OA
BRANCH   8  11
ATOM     11  C   UNL     1       3.102   6.416  19.703  0.00  0.00    +0.000 C 
BRANCH  11  12
ATOM     12  C   UNL     1       2.350   5.141  19.400  0.00  0.00    +0.000 A 
ATOM     13  C   UNL     1       1.444   4.610  20.333  0.00  0.00    +0.000 A 
ATOM     14  C   UNL     1       0.766   3.420  20.069  0.00  0.00    +0.000 A 
ATOM     15  C   UNL     1       0.975   2.768  18.861  0.00  0.00    +0.000 A 
ATOM     16  F   UNL     1       0.337   1.616  18.613  0.00  0.00    +0.000 F 
ATOM     17  C   UNL     1       1.837   3.292  17.906  0.00  0.00    +0.000 A 
ATOM     18  C   UNL     1       2.524   4.479  18.173  0.00  0.00    +0.000 A 
ENDBRANCH  11  12
ENDBRANCH   8  11
ENDBRANCH   3   5
BRANCH   2  19
ATOM     19  C   UNL     1      -0.957  12.530  19.642  0.00  0.00    +0.000 C 
BRANCH  19  20
ATOM     20  C   UNL     1      -1.806  12.407  20.883  0.00  0.00    +0.000 A 
ATOM     21  C   UNL     1      -1.249  11.981  22.091  0.00  0.00    +0.000 A 
ATOM     22  C   UNL     1      -2.021  11.938  23.258  0.00  0.00    +0.000 A 
ATOM     23  C   UNL     1      -3.369  12.330  23.241  0.00  0.00    +0.000 A 
ATOM     24  C   UNL     1      -4.154  12.322  24.407  0.00  0.00    +0.000 A 
ATOM     25  C   UNL     1      -5.491  12.726  24.370  0.00  0.00    +0.000 A 
ATOM     26  C   UNL     1      -6.057  13.140  23.169  0.00  0.00    +0.000 A 
ATOM     27  C   UNL     1      -5.293  13.155  22.002  0.00  0.00    +0.000 A 
ATOM     28  C   UNL     1      -3.944  12.756  22.024  0.00  0.00    +0.000 A 
ATOM     29  C   UNL     1      -3.160  12.789  20.861  0.00  0.00    +0.000 A 
ENDBRANCH  19  20
ENDBRANCH   2  19
TORSDOF 5
ENDMDL
MODEL 5
REMARK VINA RESULT:      -8.2      6.524      9.281
REMARK  Name = 
REMARK  5 active torsions:
REMARK  status: ('A' for Active; 'I' for Inactive)
REMARK    1  A    between atoms: C_2  and  C_3
REMARK    2  A    between atoms: C_3  and  C_4
REMARK    3  A    between atoms: N_14  and  C_15
REMARK    4  A    between atoms: N_18  and  C_19
REMARK    5  A    between atoms: C_19  and  C_20
REMARK                            x       y       z     vdW  Elec       q    Type
REMARK                         _______ _______ _______ _____ _____    ______ ____
ROOT
ATOM      1  O   UNL     1       8.883   8.530  18.831  0.00  0.00    +0.000 OA
ATOM      2  C   UNL     1       8.122   8.960  17.966  0.00  0.00    +0.000 C 
ATOM      3  N   UNL     1       7.290   8.145  17.227  0.00  0.00    +0.000 N 
ATOM      4  H   UNL     1       6.992   8.489  16.320  0.00  0.00    +0.000 HD
ENDROOT
BRANCH   3   5
ATOM      5  C   UNL     1       7.330   6.701  17.374  0.00  0.00    +0.000 C 
ATOM      6  C   UNL     1       6.959   6.171  18.759  0.00  0.00    +0.000 C 
ATOM      7  C   UNL     1       6.522   4.742  18.481  0.00  0.00    +0.000 C 
ATOM      8  N   UNL     1       5.962   4.799  17.153  0.00  0.00    +0.000 N 
ATOM      9  C   UNL     1       6.297   5.980  16.500  0.00  0.00    +0.000 C 
ATOM     10  O   UNL     1       5.896   6.363  15.411  0.00  0.00    +0.000 OA
BRANCH   8  11
ATOM     11  C   UNL     1       5.211   3.699  16.572  0.00  0.00    +0.000 C 
BRANCH  11  12
ATOM     12  C   UNL     1       3.922   3.407  17.304  0.00  0.00    +0.000 A 
ATOM     13  C   UNL     1       3.710   2.153  17.900  0.00  0.00    +0.000 A 
ATOM     14  C   UNL     1       2.511   1.870  18.554  0.00  0.00    +0.000 A 
ATOM     15  C   UNL     1       1.528   2.846  18.634  0.00  0.00    +0.000 A 
ATOM     16  F   UNL     1       0.369   2.570  19.247  0.00  0.00    +0.000 F 
ATOM     17  C   UNL     1       1.727   4.107  18.085  0.00  0.00    +0.000 A 
ATOM     18  C   UNL     1       2.924   4.389  17.420  0.00  0.00    +0.000 A 
ENDBRANCH  11  12
ENDBRANCH   8  11
ENDBRANCH   3   5
BRANCH   2  19
ATOM     19  C   UNL     1       7.998  10.444  17.658  0.00  0.00    +0.000 C 
BRANCH  19  20
ATOM     20  C   UNL     1       9.150  11.280  18.161  0.00  0.00    +0.000 A 
ATOM     21  C   UNL     1      10.442  11.087  17.668  0.00  0.00    +0.000 A 
ATOM     22  C   UNL     1      11.495  11.912  18.080  0.00  0.00    +0.000 A 
ATOM     23  C   UNL     1      11.273  12.957  18.990  0.00  0.00    +0.000 A 
ATOM     24  C   UNL     1      12.310  13.815  19.395  0.00  0.00    +0.000 A 
ATOM     25  C   UNL     1      12.064  14.856  20.294  0.00  0.00    +0.000 A 
ATOM     26  C   UNL     1      10.783  15.048  20.800  0.00  0.00    +0.000 A 
ATOM     27  C   UNL     1       9.742  14.206  20.408  0.00  0.00    +0.000 A 
ATOM     28  C   UNL     1       9.971  13.158  19.500  0.00  0.00    +0.000 A 
ATOM     29  C   UNL     1       8.927  12.319  19.082  0.00  0.00    +0.000 A 
ENDBRANCH  19  20
ENDBRANCH   2  19
TORSDOF 5
ENDMDL
MODEL 6
REMARK VINA RESULT:      -8.1      3.937      5.680
REMARK  Name = 
REMARK  5 active torsions:
REMARK  status: ('A' for Active; 'I' for Inactive)
REMARK    1  A    between atoms: C_2  and  C_3
REMARK    2  A    between atoms: C_3  and  C_4
REMARK    3  A    between atoms: N_14  and  C_15
REMARK    4  A    between atoms: N_18  and  C_19
REMARK    5  A    between atoms: C_19  and  C_20
REMARK                            x       y       z     vdW  Elec       q    Type
REMARK                         _______ _______ _______ _____ _____    ______ ____
ROOT
ATOM      1  O   UNL     1       0.319   9.550  17.803  0.00  0.00    +0.000 OA
ATOM      2  C   UNL     1       1.516   9.617  18.072  0.00  0.00    +0.000 C 
ATOM      3  N   UNL     1       2.075  10.689  18.737  0.00  0.00    +0.000 N 
ATOM      4  H   UNL     1       3.065  10.857  18.593  0.00  0.00    +0.000 HD
ENDROOT
BRANCH   3   5
ATOM      5  C   UNL     1       1.280  11.854  19.087  0.00  0.00    +0.000 C 
ATOM      6  C   UNL     1       0.662  11.831  20.484  0.00  0.00    +0.000 C 
ATOM      7  C   UNL     1       0.425  13.302  20.786  0.00  0.00    +0.000 C 
ATOM      8  N   UNL     1       1.483  13.979  20.075  0.00  0.00    +0.000 N 
ATOM      9  C   UNL     1       2.105  13.144  19.153  0.00  0.00    +0.000 C 
ATOM     10  O   UNL     1       3.089  13.394  18.475  0.00  0.00    +0.000 OA
BRANCH   8  11
ATOM     11  C   UNL     1       1.778  15.388  20.269  0.00  0.00    +0.000 C 
BRANCH  11  12
ATOM     12  C   UNL     1       1.208  16.271  19.184  0.00  0.00    +0.000 A 
ATOM     13  C   UNL     1      -0.181  16.425  19.048  0.00  0.00    +0.000 A 
ATOM     14  C   UNL     1      -0.713  17.219  18.031  0.00  0.00    +0.000 A 
ATOM     15  C   UNL     1       0.143  17.880  17.160  0.00  0.00    +0.000 A 
ATOM     16  F   UNL     1      -0.367  18.628  16.174  0.00  0.00    +0.000 F 
ATOM     17  C   UNL     1       1.522  17.774  17.297  0.00  0.00    +0.000 A 
ATOM     18  C   UNL     1       2.056  16.971  18.308  0.00  0.00    +0.000 A 
ENDBRANCH  11  12
ENDBRANCH   8  11
ENDBRANCH   3   5
BRANCH   2  19
ATOM     19  C   UNL     1       2.490   8.502  17.730  0.00  0.00    +0.000 C 
BRANCH  19  20
ATOM     20  C   UNL     1       2.289   7.237  18.528  0.00  0.00    +0.000 A 
ATOM     21  C   UNL     1       2.123   7.285  19.914  0.00  0.00    +0.000 A 
ATOM     22  C   UNL     1       1.865   6.118  20.643  0.00  0.00    +0.000 A 
ATOM     23  C   UNL     1       1.756   4.877  19.996  0.00  0.00    +0.000 A 
ATOM     24  C   UNL     1       1.468   3.698  20.706  0.00  0.00    +0.000 A 
ATOM     25  C   UNL     1       1.354   2.475  20.040  0.00  0.00    +0.000 A 
ATOM     26  C   UNL     1       1.529   2.416  18.661  0.00  0.00    +0.000 A 
ATOM     27  C   UNL     1       1.816   3.576  17.942  0.00  0.00    +0.000 A 
ATOM     28  C   UNL     1       1.928   4.816  18.596  0.00  0.00    +0.000 A 
ATOM     29  C   UNL     1       2.193   5.993  17.879  0.00  0.00    +0.000 A 
ENDBRANCH  19  20
ENDBRANCH   2  19
TORSDOF 5
ENDMDL
MODEL 7
REMARK VINA RESULT:      -8.1      2.750      4.242
REMARK  Name = 
REMARK  5 active torsions:
REMARK  status: ('A' for Active; 'I' for Inactive)
REMARK    1  A    between atoms: C_2  and  C_3
REMARK    2  A    between atoms: C_3  and  C_4
REMARK    3  A    between atoms: N_14  and  C_15
REMARK    4  A    between atoms: N_18  and  C_19
REMARK    5  A    between atoms: C_19  and  C_20
REMARK                            x       y       z     vdW  Elec       q    Type
REMARK                         _______ _______ _______ _____ _____    ______ ____
ROOT
ATOM      1  O   UNL     1       0.519   9.332  17.863  0.00  0.00    +0.000 OA
ATOM      2  C   UNL     1       1.526   9.098  18.527  0.00  0.00    +0.000 C 
ATOM      3  N   UNL     1       1.531   9.107  19.907  0.00  0.00    +0.000 N 
ATOM      4  H   UNL     1       2.421   9.282  20.365  0.00  0.00    +0.000 HD
ENDROOT
BRANCH   3   5
ATOM      5  C   UNL     1       0.348   9.484  20.661  0.00  0.00    +0.000 C 
ATOM      6  C   UNL     1       0.229   8.860  22.051  0.00  0.00    +0.000 C 
ATOM      7  C   UNL     1      -0.693   9.818  22.787  0.00  0.00    +0.000 C 
ATOM      8  N   UNL     1      -0.410  11.101  22.191  0.00  0.00    +0.000 N 
ATOM      9  C   UNL     1       0.308  10.977  21.007  0.00  0.00    +0.000 C 
ATOM     10  O   UNL     1       0.777  11.877  20.328  0.00  0.00    +0.000 OA
BRANCH   8  11
ATOM     11  C   UNL     1      -0.902  12.349  22.751  0.00  0.00    +0.000 C 
BRANCH  11  12
ATOM     12  C   UNL     1      -2.383  12.555  22.533  0.00  0.00    +0.000 A 
ATOM     13  C   UNL     1      -3.263  12.603  23.626  0.00  0.00    +0.000 A 
ATOM     14  C   UNL     1      -4.635  12.768  23.429  0.00  0.00    +0.000 A 
ATOM     15  C   UNL     1      -5.128  12.907  22.139  0.00  0.00    +0.000 A 
ATOM     16  F   UNL     1      -6.447  13.047  21.947  0.00  0.00    +0.000 F 
ATOM     17  C   UNL     1      -4.274  12.900  21.043  0.00  0.00    +0.000 A 
ATOM     18  C   UNL     1      -2.902  12.725  21.238  0.00  0.00    +0.000 A 
ENDBRANCH  11  12
ENDBRANCH   8  11
ENDBRANCH   3   5
BRANCH   2  19
ATOM     19  C   UNL     1       2.856   8.735  17.887  0.00  0.00    +0.000 C 
BRANCH  19  20
ATOM     20  C   UNL     1       3.076   7.253  17.712  0.00  0.00    +0.000 A 
ATOM     21  C   UNL     1       4.266   6.767  17.165  0.00  0.00    +0.000 A 
ATOM     22  C   UNL     1       4.499   5.390  17.070  0.00  0.00    +0.000 A 
ATOM     23  C   UNL     1       3.546   4.468  17.531  0.00  0.00    +0.000 A 
ATOM     24  C   UNL     1       3.772   3.082  17.472  0.00  0.00    +0.000 A 
ATOM     25  C   UNL     1       2.814   2.182  17.946  0.00  0.00    +0.000 A 
ATOM     26  C   UNL     1       1.621   2.657  18.481  0.00  0.00    +0.000 A 
ATOM     27  C   UNL     1       1.380   4.029  18.547  0.00  0.00    +0.000 A 
ATOM     28  C   UNL     1       2.337   4.948  18.080  0.00  0.00    +0.000 A 
ATOM     29  C   UNL     1       2.115   6.331  18.163  0.00  0.00    +0.000 A 
ENDBRANCH  19  20
ENDBRANCH   2  19
TORSDOF 5
ENDMDL
MODEL 8
REMARK VINA RESULT:      -8.0      3.319      9.576
REMARK  Name = 
REMARK  5 active torsions:
REMARK  status: ('A' for Active; 'I' for Inactive)
REMARK    1  A    between atoms: C_2  and  C_3
REMARK    2  A    between atoms: C_3  and  C_4
REMARK    3  A    between atoms: N_14  and  C_15
REMARK    4  A    between atoms: N_18  and  C_19
REMARK    5  A    between atoms: C_19  and  C_20
REMARK                            x       y       z     vdW  Elec       q    Type
REMARK                         _______ _______ _______ _____ _____    ______ ____
ROOT
ATOM      1  O   UNL     1       1.009  12.521  19.467  0.00  0.00    +0.000 OA
ATOM      2  C   UNL     1       0.060  11.867  19.039  0.00  0.00    +0.000 C 
ATOM      3  N   UNL     1      -0.076  10.512  19.261  0.00  0.00    +0.000 N 
ATOM      4  H   UNL     1      -0.637   9.989  18.596  0.00  0.00    +0.000 HD
ENDROOT
BRANCH   3   5
ATOM      5  C   UNL     1       0.955   9.757  19.951  0.00  0.00    +0.000 C 
ATOM      6  C   UNL     1       0.465   8.877  21.101  0.00  0.00    +0.000 C 
ATOM      7  C   UNL     1       1.557   7.827  21.228  0.00  0.00    +0.000 C 
ATOM      8  N   UNL     1       2.058   7.680  19.883  0.00  0.00    +0.000 N 
ATOM      9  C   UNL     1       1.635   8.715  19.056  0.00  0.00    +0.000 C 
ATOM     10  O   UNL     1       1.811   8.818  17.851  0.00  0.00    +0.000 OA
BRANCH   8  11
ATOM     11  C   UNL     1       2.960   6.608  19.497  0.00  0.00    +0.000 C 
BRANCH  11  12
ATOM     12  C   UNL     1       2.255   5.294  19.255  0.00  0.00    +0.000 A 
ATOM     13  C   UNL     1       2.202   4.743  17.964  0.00  0.00    +0.000 A 
ATOM     14  C   UNL     1       1.530   3.543  17.731  0.00  0.00    +0.000 A 
ATOM     15  C   UNL     1       0.928   2.878  18.791  0.00  0.00    +0.000 A 
ATOM     16  F   UNL     1       0.268   1.735  18.565  0.00  0.00    +0.000 F 
ATOM     17  C   UNL     1       0.999   3.384  20.083  0.00  0.00    +0.000 A 
ATOM     18  C   UNL     1       1.662   4.591  20.317  0.00  0.00    +0.000 A 
ENDBRANCH  11  12
ENDBRANCH   8  11
ENDBRANCH   3   5
BRANCH   2  19
ATOM     19  C   UNL     1      -1.078  12.502  18.257  0.00  0.00    +0.000 C 
BRANCH  19  20
ATOM     20  C   UNL     1      -2.434  12.352  18.901  0.00  0.00    +0.000 A 
ATOM     21  C   UNL     1      -2.694  12.910  20.155  0.00  0.00    +0.000 A 
ATOM     22  C   UNL     1      -3.973  12.833  20.719  0.00  0.00    +0.000 A 
ATOM     23  C   UNL     1      -5.024  12.203  20.032  0.00  0.00    +0.000 A 
ATOM     24  C   UNL     1      -6.322  12.140  20.568  0.00  0.00    +0.000 A 
ATOM     25  C   UNL     1      -7.355  11.517  19.862  0.00  0.00    +0.000 A 
ATOM     26  C   UNL     1      -7.101  10.949  18.619  0.00  0.00    +0.000 A 
ATOM     27  C   UNL     1      -5.818  11.002  18.073  0.00  0.00    +0.000 A 
ATOM     28  C   UNL     1      -4.769  11.630  18.767  0.00  0.00    +0.000 A 
ATOM     29  C   UNL     1      -3.481  11.710  18.217  0.00  0.00    +0.000 A 
ENDBRANCH  19  20
ENDBRANCH   2  19
TORSDOF 5
ENDMDL
MODEL 9
REMARK VINA RESULT:      -7.9      3.246      9.541
REMARK  Name = 
REMARK  5 active torsions:
REMARK  status: ('A' for Active; 'I' for Inactive)
REMARK    1  A    between atoms: C_2  and  C_3
REMARK    2  A    between atoms: C_3  and  C_4
REMARK    3  A    between atoms: N_14  and  C_15
REMARK    4  A    between atoms: N_18  and  C_19
REMARK    5  A    between atoms: C_19  and  C_20
REMARK                            x       y       z     vdW  Elec       q    Type
REMARK                         _______ _______ _______ _____ _____    ______ ____
ROOT
ATOM      1  O   UNL     1       1.515   8.434  20.059  0.00  0.00    +0.000 OA
ATOM      2  C   UNL     1       1.747   8.737  18.891  0.00  0.00    +0.000 C 
ATOM      3  N   UNL     1       2.283   7.850  17.980  0.00  0.00    +0.000 N 
ATOM      4  H   UNL     1       2.783   8.245  17.190  0.00  0.00    +0.000 HD
ENDROOT
BRANCH   3   5
ATOM      5  C   UNL     1       2.689   6.515  18.381  0.00  0.00    +0.000 C 
ATOM      6  C   UNL     1       1.826   5.376  17.839  0.00  0.00    +0.000 C 
ATOM      7  C   UNL     1       2.754   4.174  17.899  0.00  0.00    +0.000 C 
ATOM      8  N   UNL     1       4.067   4.736  17.694  0.00  0.00    +0.000 N 
ATOM      9  C   UNL     1       4.067   6.119  17.840  0.00  0.00    +0.000 C 
ATOM     10  O   UNL     1       4.997   6.884  17.633  0.00  0.00    +0.000 OA
BRANCH   8  11
ATOM     11  C   UNL     1       5.240   3.914  17.447  0.00  0.00    +0.000 C 
BRANCH  11  12
ATOM     12  C   UNL     1       5.840   4.131  16.078  0.00  0.00    +0.000 A 
ATOM     13  C   UNL     1       7.087   4.763  15.939  0.00  0.00    +0.000 A 
ATOM     14  C   UNL     1       7.634   4.989  14.675  0.00  0.00    +0.000 A 
ATOM     15  C   UNL     1       6.947   4.563  13.546  0.00  0.00    +0.000 A 
ATOM     16  F   UNL     1       7.463   4.794  12.332  0.00  0.00    +0.000 F 
ATOM     17  C   UNL     1       5.730   3.901  13.659  0.00  0.00    +0.000 A 
ATOM     18  C   UNL     1       5.176   3.684  14.923  0.00  0.00    +0.000 A 
ENDBRANCH  11  12
ENDBRANCH   8  11
ENDBRANCH   3   5
BRANCH   2  19
ATOM     19  C   UNL     1       1.424  10.111  18.328  0.00  0.00    +0.000 C 
BRANCH  19  20
ATOM     20  C   UNL     1       0.036  10.605  18.654  0.00  0.00    +0.000 A 
ATOM     21  C   UNL     1      -0.175  11.499  19.706  0.00  0.00    +0.000 A 
ATOM     22  C   UNL     1      -1.452  12.013  19.961  0.00  0.00    +0.000 A 
ATOM     23  C   UNL     1      -2.545  11.649  19.159  0.00  0.00    +0.000 A 
ATOM     24  C   UNL     1      -3.829  12.176  19.380  0.00  0.00    +0.000 A 
ATOM     25  C   UNL     1      -4.902  11.809  18.562  0.00  0.00    +0.000 A 
ATOM     26  C   UNL     1      -4.702  10.910  17.520  0.00  0.00    +0.000 A 
ATOM     27  C   UNL     1      -3.434  10.377  17.287  0.00  0.00    +0.000 A 
ATOM     28  C   UNL     1      -2.344  10.742  18.096  0.00  0.00    +0.000 A 
ATOM     29  C   UNL     1      -1.059  10.230  17.856  0.00  0.00    +0.000 A 
ENDBRANCH  19  20
ENDBRANCH   2  19
TORSDOF 5
ENDMDL
