MODEL 1
REMARK VINA RESULT:      -8.5      0.000      0.000
REMARK  Name = 
REMARK  6 active torsions:
REMARK  status: ('A' for Active; 'I' for Inactive)
REMARK    1  A    between atoms: C_1  and  C_2
REMARK    2  A    between atoms: C_2  and  C_3
REMARK    3  A    between atoms: N_11  and  C_12
REMARK    4  A    between atoms: C_12  and  C_13
REMARK    5  A    between atoms: C_16  and  C_17
REMARK    6  A    between atoms: C_19  and  C_20
REMARK                            x       y       z     vdW  Elec       q    Type
REMARK                         _______ _______ _______ _____ _____    ______ ____
ROOT
ATOM      1  C   UNL     1       6.468   6.056  17.739  0.00  0.00    +0.000 A 
ATOM      2  N   UNL     1       7.304   5.764  18.745  0.00  0.00    +0.000 NA
ATOM      3  O   UNL     1       8.163   6.856  18.783  0.00  0.00    +0.000 OA
ATOM      4  C   UNL     1       7.757   7.727  17.808  0.00  0.00    +0.000 A 
ATOM      5  N   UNL     1       6.712   7.279  17.137  0.00  0.00    +0.000 NA
ENDROOT
BRANCH   4   6
ATOM      6  C   UNL     1       8.469   9.059  17.601  0.00  0.00    +0.000 C 
ATOM      7  C   UNL     1       7.665  10.326  17.430  0.00  0.00    +0.000 C 
ATOM      8  C   UNL     1       8.443  10.128  18.696  0.00  0.00    +0.000 C 
BRANCH   8   9
ATOM      9  C   UNL     1       9.736  10.876  18.979  0.00  0.00    +0.000 A 
ATOM     10  C   UNL     1      10.146  11.235  20.274  0.00  0.00    +0.000 A 
ATOM     11  C   UNL     1      11.334  11.947  20.500  0.00  0.00    +0.000 A 
ATOM     12  C   UNL     1      12.151  12.299  19.428  0.00  0.00    +0.000 A 
ATOM     13  C   UNL     1      11.782  11.935  18.138  0.00  0.00    +0.000 A 
ATOM     14  C   UNL     1      10.590  11.234  17.920  0.00  0.00    +0.000 A 
ENDBRANCH   8   9
ENDBRANCH   4   6
BRANCH   1  15
ATOM     15  C   UNL     1       5.263   5.226  17.467  0.00  0.00    +0.000 C 
BRANCH  15  24
ATOM     16  C   UNL     1       3.293   6.451  18.509  0.00  0.00    +0.000 A 
ATOM     17  N   UNL     1       2.376   6.223  19.428  0.00  0.00    +0.000 NA
ATOM     18  C   UNL     1       2.665   4.999  19.960  0.00  0.00    +0.000 A 
ATOM     19  C   UNL     1       1.981   4.284  20.954  0.00  0.00    +0.000 A 
ATOM     20  C   UNL     1       2.453   3.021  21.321  0.00  0.00    +0.000 A 
ATOM     21  C   UNL     1       3.587   2.484  20.710  0.00  0.00    +0.000 A 
ATOM     22  C   UNL     1       4.288   3.186  19.720  0.00  0.00    +0.000 A 
ATOM     23  C   UNL     1       3.798   4.452  19.365  0.00  0.00    +0.000 A 
ATOM     24  N   UNL     1       4.200   5.405  18.448  0.00  0.00    +0.000 N 
BRANCH  16  26
ATOM     25  C   UNL     1       2.107   8.569  17.918  0.00  0.00    +0.000 C 
ATOM     26  C   UNL     1       3.315   7.681  17.661  0.00  0.00    +0.000 C 
ENDBRANCH  16  26
ENDBRANCH  15  24
ENDBRANCH   1  15
TORSDOF 5
ENDMDL
MODEL 2
REMARK VINA RESULT:      -8.3      0.486      1.052
REMARK  Name = 
REMARK  6 active torsions:
REMARK  status: ('A' for Active; 'I' for Inactive)
REMARK    1  A    between atoms: C_1  and  C_2
REMARK    2  A    between atoms: C_2  and  C_3
REMARK    3  A    between atoms: N_11  and  C_12
REMARK    4  A    between atoms: C_12  and  C_13
REMARK    5  A    between atoms: C_16  and  C_17
REMARK    6  A    between atoms: C_19  and  C_20
REMARK                            x       y       z     vdW  Elec       q    Type
REMARK                         _______ _______ _______ _____ _____    ______ ____
ROOT
ATOM      1  C   UNL     1       6.493   5.615  18.110  0.00  0.00    +0.000 A 
ATOM      2  N   UNL     1       7.257   5.430  19.196  0.00  0.00    +0.000 NA
ATOM      3  O   UNL     1       8.110   6.526  19.186  0.00  0.00    +0.000 OA
ATOM      4  C   UNL     1       7.772   7.295  18.105  0.00  0.00    +0.000 A 
ATOM      5  N   UNL     1       6.778   6.775  17.409  0.00  0.00    +0.000 NA
ENDROOT
BRANCH   4   6
ATOM      6  C   UNL     1       8.496   8.606  17.818  0.00  0.00    +0.000 C 
ATOM      7  C   UNL     1       7.723   9.799  17.312  0.00  0.00    +0.000 C 
ATOM      8  C   UNL     1       8.265   9.828  18.710  0.00  0.00    +0.000 C 
BRANCH   8   9
ATOM      9  C   UNL     1       9.478  10.659  19.092  0.00  0.00    +0.000 A 
ATOM     10  C   UNL     1      10.485  11.012  18.177  0.00  0.00    +0.000 A 
ATOM     11  C   UNL     1      11.606  11.760  18.567  0.00  0.00    +0.000 A 
ATOM     12  C   UNL     1      11.733  12.190  19.885  0.00  0.00    +0.000 A 
ATOM     13  C   UNL     1      10.741  11.877  20.807  0.00  0.00    +0.000 A 
ATOM     14  C   UNL     1       9.630  11.121  20.412  0.00  0.00    +0.000 A 
ENDBRANCH   8   9
ENDBRANCH   4   6
BRANCH   1  15
ATOM     15  C   UNL     1       5.311   4.753  17.838  0.00  0.00    +0.000 C 
BRANCH  15  24
ATOM     16  C   UNL     1       3.312   6.151  18.558  0.00  0.00    +0.000 A 
ATOM     17  N   UNL     1       2.291   6.042  19.384  0.00  0.00    +0.000 NA
ATOM     18  C   UNL     1       2.452   4.852  20.036  0.00  0.00    +0.000 A 
ATOM     19  C   UNL     1       1.626   4.254  20.998  0.00  0.00    +0.000 A 
ATOM     20  C   UNL     1       1.984   3.004  21.510  0.00  0.00    +0.000 A 
ATOM     21  C   UNL     1       3.145   2.366  21.072  0.00  0.00    +0.000 A 
ATOM     22  C   UNL     1       3.987   2.952  20.116  0.00  0.00    +0.000 A 
ATOM     23  C   UNL     1       3.609   4.206  19.614  0.00  0.00    +0.000 A 
ATOM     24  N   UNL     1       4.161   5.061  18.678  0.00  0.00    +0.000 N 
BRANCH  16  26
ATOM     25  C   UNL     1       2.515   8.432  17.921  0.00  0.00    +0.000 C 
ATOM     26  C   UNL     1       3.494   7.305  17.627  0.00  0.00    +0.000 C 
ENDBRANCH  16  26
ENDBRANCH  15  24
ENDBRANCH   1  15
TORSDOF 5
ENDMDL
MODEL 3
REMARK VINA RESULT:      -8.3      4.408      7.625
REMARK  Name = 
REMARK  6 active torsions:
REMARK  status: ('A' for Active; 'I' for Inactive)
REMARK    1  A    between atoms: C_1  and  C_2
REMARK    2  A    between atoms: C_2  and  C_3
REMARK    3  A    between atoms: N_11  and  C_12
REMARK    4  A    between atoms: C_12  and  C_13
REMARK    5  A    between atoms: C_16  and  C_17
REMARK    6  A    between atoms: C_19  and  C_20
REMARK                            x       y       z     vdW  Elec       q    Type
REMARK                         _______ _______ _______ _____ _____    ______ ____
ROOT
ATOM      1  C   UNL     1       2.949   7.474  18.167  0.00  0.00    +0.000 A 
ATOM      2  N   UNL     1       2.349   8.387  17.390  0.00  0.00    +0.000 NA
ATOM      3  O   UNL     1       1.422   8.979  18.240  0.00  0.00    +0.000 OA
ATOM      4  C   UNL     1       1.559   8.387  19.467  0.00  0.00    +0.000 A 
ATOM      5  N   UNL     1       2.490   7.452  19.473  0.00  0.00    +0.000 NA
ENDROOT
BRANCH   4   6
ATOM      6  C   UNL     1       0.708   8.833  20.651  0.00  0.00    +0.000 C 
ATOM      7  C   UNL     1       1.342   9.019  22.008  0.00  0.00    +0.000 C 
ATOM      8  C   UNL     1       0.888  10.230  21.250  0.00  0.00    +0.000 C 
BRANCH   8   9
ATOM      9  C   UNL     1      -0.367  11.000  21.628  0.00  0.00    +0.000 A 
ATOM     10  C   UNL     1      -1.058  11.830  20.728  0.00  0.00    +0.000 A 
ATOM     11  C   UNL     1      -2.200  12.546  21.115  0.00  0.00    +0.000 A 
ATOM     12  C   UNL     1      -2.690  12.430  22.413  0.00  0.00    +0.000 A 
ATOM     13  C   UNL     1      -2.042  11.596  23.318  0.00  0.00    +0.000 A 
ATOM     14  C   UNL     1      -0.896  10.893  22.927  0.00  0.00    +0.000 A 
ENDBRANCH   8   9
ENDBRANCH   4   6
BRANCH   1  15
ATOM     15  C   UNL     1       4.147   6.725  17.698  0.00  0.00    +0.000 C 
BRANCH  15  24
ATOM     16  C   UNL     1       5.312   4.866  18.985  0.00  0.00    +0.000 A 
ATOM     17  N   UNL     1       5.013   3.678  19.469  0.00  0.00    +0.000 NA
ATOM     18  C   UNL     1       3.729   3.420  19.083  0.00  0.00    +0.000 A 
ATOM     19  C   UNL     1       2.931   2.301  19.362  0.00  0.00    +0.000 A 
ATOM     20  C   UNL     1       1.620   2.272  18.878  0.00  0.00    +0.000 A 
ATOM     21  C   UNL     1       1.117   3.337  18.129  0.00  0.00    +0.000 A 
ATOM     22  C   UNL     1       1.902   4.460  17.835  0.00  0.00    +0.000 A 
ATOM     23  C   UNL     1       3.215   4.471  18.330  0.00  0.00    +0.000 A 
ATOM     24  N   UNL     1       4.250   5.384  18.260  0.00  0.00    +0.000 N 
BRANCH  16  26
ATOM     25  C   UNL     1       7.665   5.122  18.182  0.00  0.00    +0.000 C 
ATOM     26  C   UNL     1       6.628   5.538  19.214  0.00  0.00    +0.000 C 
ENDBRANCH  16  26
ENDBRANCH  15  24
ENDBRANCH   1  15
TORSDOF 5
ENDMDL
MODEL 4
REMARK VINA RESULT:      -8.1      2.041      3.167
REMARK  Name = 
REMARK  6 active torsions:
REMARK  status: ('A' for Active; 'I' for Inactive)
REMARK    1  A    between atoms: C_1  and  C_2
REMARK    2  A    between atoms: C_2  and  C_3
REMARK    3  A    between atoms: N_11  and  C_12
REMARK    4  A    between atoms: C_12  and  C_13
REMARK    5  A    between atoms: C_16  and  C_17
REMARK    6  A    between atoms: C_19  and  C_20
REMARK                            x       y       z     vdW  Elec       q    Type
REMARK                         _______ _______ _______ _____ _____    ______ ____
ROOT
ATOM      1  C   UNL     1       7.596   7.220  17.842  0.00  0.00    +0.000 A 
ATOM      2  N   UNL     1       7.023   7.951  16.876  0.00  0.00    +0.000 NA
ATOM      3  O   UNL     1       7.433   9.248  17.162  0.00  0.00    +0.000 OA
ATOM      4  C   UNL     1       8.240   9.185  18.266  0.00  0.00    +0.000 A 
ATOM      5  N   UNL     1       8.373   7.953  18.722  0.00  0.00    +0.000 NA
ENDROOT
BRANCH   4   6
ATOM      6  C   UNL     1       8.897  10.440  18.830  0.00  0.00    +0.000 C 
ATOM      7  C   UNL     1       9.674  10.369  20.122  0.00  0.00    +0.000 C 
ATOM      8  C   UNL     1      10.421  10.578  18.839  0.00  0.00    +0.000 C 
BRANCH   8   9
ATOM      9  C   UNL     1      11.006  11.926  18.452  0.00  0.00    +0.000 A 
ATOM     10  C   UNL     1      11.333  12.919  19.392  0.00  0.00    +0.000 A 
ATOM     11  C   UNL     1      11.850  14.162  19.001  0.00  0.00    +0.000 A 
ATOM     12  C   UNL     1      12.071  14.433  17.653  0.00  0.00    +0.000 A 
ATOM     13  C   UNL     1      11.780  13.461  16.702  0.00  0.00    +0.000 A 
ATOM     14  C   UNL     1      11.255  12.226  17.100  0.00  0.00    +0.000 A 
ENDBRANCH   8   9
ENDBRANCH   4   6
BRANCH   1  15
ATOM     15  C   UNL     1       7.562   5.732  17.810  0.00  0.00    +0.000 C 
BRANCH  15  24
ATOM     16  C   UNL     1       6.081   4.636  16.056  0.00  0.00    +0.000 A 
ATOM     17  N   UNL     1       4.875   4.109  15.988  0.00  0.00    +0.000 NA
ATOM     18  C   UNL     1       4.308   4.290  17.217  0.00  0.00    +0.000 A 
ATOM     19  C   UNL     1       3.045   3.889  17.675  0.00  0.00    +0.000 A 
ATOM     20  C   UNL     1       2.689   4.164  18.998  0.00  0.00    +0.000 A 
ATOM     21  C   UNL     1       3.576   4.829  19.846  0.00  0.00    +0.000 A 
ATOM     22  C   UNL     1       4.840   5.244  19.404  0.00  0.00    +0.000 A 
ATOM     23  C   UNL     1       5.178   4.958  18.073  0.00  0.00    +0.000 A 
ATOM     24  N   UNL     1       6.306   5.190  17.307  0.00  0.00    +0.000 N 
BRANCH  16  26
ATOM     25  C   UNL     1       6.446   3.996  13.669  0.00  0.00    +0.000 C 
ATOM     26  C   UNL     1       7.051   4.615  14.920  0.00  0.00    +0.000 C 
ENDBRANCH  16  26
ENDBRANCH  15  24
ENDBRANCH   1  15
TORSDOF 5
ENDMDL
MODEL 5
REMARK VINA RESULT:      -8.1      2.116      3.311
REMARK  Name = 
REMARK  6 active torsions:
REMARK  status: ('A' for Active; 'I' for Inactive)
REMARK    1  A    between atoms: C_1  and  C_2
REMARK    2  A    between atoms: C_2  and  C_3
REMARK    3  A    between atoms: N_11  and  C_12
REMARK    4  A    between atoms: C_12  and  C_13
REMARK    5  A    between atoms: C_16  and  C_17
REMARK    6  A    between atoms: C_19  and  C_20
REMARK                            x       y       z     vdW  Elec       q    Type
REMARK                         _______ _______ _______ _____ _____    ______ ____
ROOT
ATOM      1  C   UNL     1       7.599   6.991  18.047  0.00  0.00    +0.000 A 
ATOM      2  N   UNL     1       7.090   7.786  17.096  0.00  0.00    +0.000 NA
ATOM      3  O   UNL     1       7.704   9.011  17.331  0.00  0.00    +0.000 OA
ATOM      4  C   UNL     1       8.553   8.843  18.392  0.00  0.00    +0.000 A 
ATOM      5  N   UNL     1       8.525   7.612  18.868  0.00  0.00    +0.000 NA
ENDROOT
BRANCH   4   6
ATOM      6  C   UNL     1       9.420   9.993  18.892  0.00  0.00    +0.000 C 
ATOM      7  C   UNL     1      10.030  10.961  17.908  0.00  0.00    +0.000 C 
ATOM      8  C   UNL     1       8.919  11.436  18.797  0.00  0.00    +0.000 C 
BRANCH   8   9
ATOM      9  C   UNL     1       9.167  12.346  19.988  0.00  0.00    +0.000 A 
ATOM     10  C   UNL     1       9.805  13.594  19.880  0.00  0.00    +0.000 A 
ATOM     11  C   UNL     1      10.040  14.401  21.004  0.00  0.00    +0.000 A 
ATOM     12  C   UNL     1       9.622  13.981  22.264  0.00  0.00    +0.000 A 
ATOM     13  C   UNL     1       8.966  12.762  22.397  0.00  0.00    +0.000 A 
ATOM     14  C   UNL     1       8.745  11.958  21.273  0.00  0.00    +0.000 A 
ENDBRANCH   8   9
ENDBRANCH   4   6
BRANCH   1  15
ATOM     15  C   UNL     1       7.342   5.525  18.051  0.00  0.00    +0.000 C 
BRANCH  15  24
ATOM     16  C   UNL     1       5.825   4.655  16.205  0.00  0.00    +0.000 A 
ATOM     17  N   UNL     1       4.565   4.292  16.065  0.00  0.00    +0.000 NA
ATOM     18  C   UNL     1       3.963   4.534  17.267  0.00  0.00    +0.000 A 
ATOM     19  C   UNL     1       2.635   4.299  17.652  0.00  0.00    +0.000 A 
ATOM     20  C   UNL     1       2.249   4.604  18.960  0.00  0.00    +0.000 A 
ATOM     21  C   UNL     1       3.169   5.136  19.864  0.00  0.00    +0.000 A 
ATOM     22  C   UNL     1       4.498   5.385  19.495  0.00  0.00    +0.000 A 
ATOM     23  C   UNL     1       4.867   5.071  18.178  0.00  0.00    +0.000 A 
ATOM     24  N   UNL     1       6.054   5.160  17.475  0.00  0.00    +0.000 N 
BRANCH  16  26
ATOM     25  C   UNL     1       6.239   3.948  13.844  0.00  0.00    +0.000 C 
ATOM     26  C   UNL     1       6.842   4.517  15.119  0.00  0.00    +0.000 C 
ENDBRANCH  16  26
ENDBRANCH  15  24
ENDBRANCH   1  15
TORSDOF 5
ENDMDL
MODEL 6
REMARK VINA RESULT:      -8.0      4.497      7.870
REMARK  Name = 
REMARK  6 active torsions:
REMARK  status: ('A' for Active; 'I' for Inactive)
REMARK    1  A    between atoms: C_1  and  C_2
REMARK    2  A    between atoms: C_2  and  C_3
REMARK    3  A    between atoms: N_11  and  C_12
REMARK    4  A    between atoms: C_12  and  C_13
REMARK    5  A    between atoms: C_16  and  C_17
REMARK    6  A    between atoms: C_19  and  C_20
REMARK                            x       y       z     vdW  Elec       q    Type
REMARK                         _______ _______ _______ _____ _____    ______ ____
ROOT
ATOM      1  C   UNL     1       2.577   7.396  18.777  0.00  0.00    +0.000 A 
ATOM      2  N   UNL     1       2.908   7.880  17.572  0.00  0.00    +0.000 NA
ATOM      3  O   UNL     1       2.170   9.054  17.478  0.00  0.00    +0.000 OA
ATOM      4  C   UNL     1       1.473   9.190  18.649  0.00  0.00    +0.000 A 
ATOM      5  N   UNL     1       1.692   8.192  19.484  0.00  0.00    +0.000 NA
ENDROOT
BRANCH   4   6
ATOM      6  C   UNL     1       0.582  10.403  18.894  0.00  0.00    +0.000 C 
ATOM      7  C   UNL     1      -0.723  10.544  18.149  0.00  0.00    +0.000 C 
ATOM      8  C   UNL     1      -0.757  10.245  19.618  0.00  0.00    +0.000 C 
BRANCH   8   9
ATOM      9  C   UNL     1      -1.125  11.298  20.651  0.00  0.00    +0.000 A 
ATOM     10  C   UNL     1      -0.792  11.186  22.012  0.00  0.00    +0.000 A 
ATOM     11  C   UNL     1      -1.168  12.164  22.945  0.00  0.00    +0.000 A 
ATOM     12  C   UNL     1      -1.873  13.291  22.529  0.00  0.00    +0.000 A 
ATOM     13  C   UNL     1      -2.195  13.440  21.185  0.00  0.00    +0.000 A 
ATOM     14  C   UNL     1      -1.825  12.454  20.262  0.00  0.00    +0.000 A 
ENDBRANCH   8   9
ENDBRANCH   4   6
BRANCH   1  15
ATOM     15  C   UNL     1       3.285   6.224  19.362  0.00  0.00    +0.000 C 
BRANCH  15  24
ATOM     16  C   UNL     1       2.862   4.266  17.797  0.00  0.00    +0.000 A 
ATOM     17  N   UNL     1       3.499   3.629  16.834  0.00  0.00    +0.000 NA
ATOM     18  C   UNL     1       4.738   4.198  16.755  0.00  0.00    +0.000 A 
ATOM     19  C   UNL     1       5.791   3.903  15.876  0.00  0.00    +0.000 A 
ATOM     20  C   UNL     1       6.971   4.646  15.965  0.00  0.00    +0.000 A 
ATOM     21  C   UNL     1       7.098   5.661  16.914  0.00  0.00    +0.000 A 
ATOM     22  C   UNL     1       6.060   5.966  17.806  0.00  0.00    +0.000 A 
ATOM     23  C   UNL     1       4.884   5.209  17.700  0.00  0.00    +0.000 A 
ATOM     24  N   UNL     1       3.677   5.228  18.373  0.00  0.00    +0.000 N 
BRANCH  16  26
ATOM     25  C   UNL     1       1.275   2.522  18.625  0.00  0.00    +0.000 C 
ATOM     26  C   UNL     1       1.450   3.967  18.182  0.00  0.00    +0.000 C 
ENDBRANCH  16  26
ENDBRANCH  15  24
ENDBRANCH   1  15
TORSDOF 5
ENDMDL
MODEL 7
REMARK VINA RESULT:      -8.0      4.412      8.116
REMARK  Name = 
REMARK  6 active torsions:
REMARK  status: ('A' for Active; 'I' for Inactive)
REMARK    1  A    between atoms: C_1  and  C_2
REMARK    2  A    between atoms: C_2  and  C_3
REMARK    3  A    between atoms: N_11  and  C_12
REMARK    4  A    between atoms: C_12  and  C_13
REMARK    5  A    between atoms: C_16  and  C_17
REMARK    6  A    between atoms: C_19  and  C_20
REMARK                            x       y       z     vdW  Elec       q    Type
REMARK                         _______ _______ _______ _____ _____    ______ ____
ROOT
ATOM      1  C   UNL     1       2.917   7.370  18.602  0.00  0.00    +0.000 A 
ATOM      2  N   UNL     1       2.625   6.964  19.845  0.00  0.00    +0.000 NA
ATOM      3  O   UNL     1       1.669   7.879  20.271  0.00  0.00    +0.000 OA
ATOM      4  C   UNL     1       1.449   8.748  19.235  0.00  0.00    +0.000 A 
ATOM      5  N   UNL     1       2.194   8.474  18.182  0.00  0.00    +0.000 NA
ENDROOT
BRANCH   4   6
ATOM      6  C   UNL     1       0.420   9.866  19.356  0.00  0.00    +0.000 C 
ATOM      7  C   UNL     1       0.745  11.249  18.846  0.00  0.00    +0.000 C 
ATOM      8  C   UNL     1      -0.266  10.424  18.107  0.00  0.00    +0.000 C 
BRANCH   8   9
ATOM      9  C   UNL     1      -1.758  10.704  18.190  0.00  0.00    +0.000 A 
ATOM     10  C   UNL     1      -2.724   9.909  17.549  0.00  0.00    +0.000 A 
ATOM     11  C   UNL     1      -4.092  10.208  17.626  0.00  0.00    +0.000 A 
ATOM     12  C   UNL     1      -4.526  11.305  18.365  0.00  0.00    +0.000 A 
ATOM     13  C   UNL     1      -3.595  12.095  19.030  0.00  0.00    +0.000 A 
ATOM     14  C   UNL     1      -2.230  11.796  18.940  0.00  0.00    +0.000 A 
ENDBRANCH   8   9
ENDBRANCH   4   6
BRANCH   1  15
ATOM     15  C   UNL     1       3.778   6.554  17.702  0.00  0.00    +0.000 C 
BRANCH  15  24
ATOM     16  C   UNL     1       5.230   4.791  18.822  0.00  0.00    +0.000 A 
ATOM     17  N   UNL     1       5.090   3.574  19.306  0.00  0.00    +0.000 NA
ATOM     18  C   UNL     1       3.801   3.205  19.045  0.00  0.00    +0.000 A 
ATOM     19  C   UNL     1       3.139   2.014  19.376  0.00  0.00    +0.000 A 
ATOM     20  C   UNL     1       1.794   1.871  19.025  0.00  0.00    +0.000 A 
ATOM     21  C   UNL     1       1.124   2.896  18.356  0.00  0.00    +0.000 A 
ATOM     22  C   UNL     1       1.771   4.090  18.010  0.00  0.00    +0.000 A 
ATOM     23  C   UNL     1       3.121   4.215  18.371  0.00  0.00    +0.000 A 
ATOM     24  N   UNL     1       4.058   5.220  18.219  0.00  0.00    +0.000 N 
BRANCH  16  26
ATOM     25  C   UNL     1       7.481   5.228  17.828  0.00  0.00    +0.000 C 
ATOM     26  C   UNL     1       6.497   5.577  18.934  0.00  0.00    +0.000 C 
ENDBRANCH  16  26
ENDBRANCH  15  24
ENDBRANCH   1  15
TORSDOF 5
ENDMDL
MODEL 8
REMARK VINA RESULT:      -8.0      5.122      7.633
REMARK  Name = 
REMARK  6 active torsions:
REMARK  status: ('A' for Active; 'I' for Inactive)
REMARK    1  A    between atoms: C_1  and  C_2
REMARK    2  A    between atoms: C_2  and  C_3
REMARK    3  A    between atoms: N_11  and  C_12
REMARK    4  A    between atoms: C_12  and  C_13
REMARK    5  A    between atoms: C_16  and  C_17
REMARK    6  A    between atoms: C_19  and  C_20
REMARK                            x       y       z     vdW  Elec       q    Type
REMARK                         _______ _______ _______ _____ _____    ______ ____
ROOT
ATOM      1  C   UNL     1       2.690   7.804  18.453  0.00  0.00    +0.000 A 
ATOM      2  N   UNL     1       2.887   8.351  17.245  0.00  0.00    +0.000 NA
ATOM      3  O   UNL     1       2.021   9.437  17.234  0.00  0.00    +0.000 OA
ATOM      4  C   UNL     1       1.391   9.467  18.449  0.00  0.00    +0.000 A 
ATOM      5  N   UNL     1       1.772   8.480  19.238  0.00  0.00    +0.000 NA
ENDROOT
BRANCH   4   6
ATOM      6  C   UNL     1       0.391  10.568  18.787  0.00  0.00    +0.000 C 
ATOM      7  C   UNL     1      -0.992  10.541  18.184  0.00  0.00    +0.000 C 
ATOM      8  C   UNL     1      -0.836  10.260  19.649  0.00  0.00    +0.000 C 
BRANCH   8   9
ATOM      9  C   UNL     1      -1.219  11.274  20.715  0.00  0.00    +0.000 A 
ATOM     10  C   UNL     1      -0.845  11.146  22.064  0.00  0.00    +0.000 A 
ATOM     11  C   UNL     1      -1.235  12.087  23.028  0.00  0.00    +0.000 A 
ATOM     12  C   UNL     1      -1.995  13.193  22.657  0.00  0.00    +0.000 A 
ATOM     13  C   UNL     1      -2.358  13.358  21.325  0.00  0.00    +0.000 A 
ATOM     14  C   UNL     1      -1.974  12.409  20.370  0.00  0.00    +0.000 A 
ENDBRANCH   8   9
ENDBRANCH   4   6
BRANCH   1  15
ATOM     15  C   UNL     1       3.559   6.705  18.957  0.00  0.00    +0.000 C 
BRANCH  15  24
ATOM     16  C   UNL     1       4.045   4.909  17.222  0.00  0.00    +0.000 A 
ATOM     17  N   UNL     1       3.668   3.673  16.964  0.00  0.00    +0.000 NA
ATOM     18  C   UNL     1       2.713   3.363  17.890  0.00  0.00    +0.000 A 
ATOM     19  C   UNL     1       2.011   2.162  18.068  0.00  0.00    +0.000 A 
ATOM     20  C   UNL     1       1.089   2.069  19.114  0.00  0.00    +0.000 A 
ATOM     21  C   UNL     1       0.871   3.154  19.964  0.00  0.00    +0.000 A 
ATOM     22  C   UNL     1       1.557   4.365  19.798  0.00  0.00    +0.000 A 
ATOM     23  C   UNL     1       2.479   4.438  18.743  0.00  0.00    +0.000 A 
ATOM     24  N   UNL     1       3.329   5.430  18.289  0.00  0.00    +0.000 N 
BRANCH  16  26
ATOM     25  C   UNL     1       5.568   4.815  15.244  0.00  0.00    +0.000 C 
ATOM     26  C   UNL     1       5.110   5.619  16.451  0.00  0.00    +0.000 C 
ENDBRANCH  16  26
ENDBRANCH  15  24
ENDBRANCH   1  15
TORSDOF 5
ENDMDL
MODEL 9
REMARK VINA RESULT:      -8.0      4.448      7.413
REMARK  Name = 
REMARK  6 active torsions:
REMARK  status: ('A' for Active; 'I' for Inactive)
REMARK    1  A    between atoms: C_1  and  C_2
REMARK    2  A    between atoms: C_2  and  C_3
REMARK    3  A    between atoms: N_11  and  C_12
REMARK    4  A    between atoms: C_12  and  C_13
REMARK    5  A    between atoms: C_16  and  C_17
REMARK    6  A    between atoms: C_19  and  C_20
REMARK                            x       y       z     vdW  Elec       q    Type
REMARK                         _______ _______ _______ _____ _____    ______ ____
ROOT
ATOM      1  C   UNL     1       2.986   7.382  18.292  0.00  0.00    +0.000 A 
ATOM      2  N   UNL     1       2.674   7.068  19.557  0.00  0.00    +0.000 NA
ATOM      3  O   UNL     1       1.828   8.097  19.950  0.00  0.00    +0.000 OA
ATOM      4  C   UNL     1       1.681   8.935  18.876  0.00  0.00    +0.000 A 
ATOM      5  N   UNL     1       2.376   8.535  17.828  0.00  0.00    +0.000 NA
ENDROOT
BRANCH   4   6
ATOM      6  C   UNL     1       0.777  10.160  18.956  0.00  0.00    +0.000 C 
ATOM      7  C   UNL     1      -0.526  10.187  18.195  0.00  0.00    +0.000 C 
ATOM      8  C   UNL     1      -0.563  10.086  19.690  0.00  0.00    +0.000 C 
BRANCH   8   9
ATOM      9  C   UNL     1      -0.947  11.262  20.573  0.00  0.00    +0.000 A 
ATOM     10  C   UNL     1      -0.742  11.276  21.964  0.00  0.00    +0.000 A 
ATOM     11  C   UNL     1      -1.129  12.368  22.754  0.00  0.00    +0.000 A 
ATOM     12  C   UNL     1      -1.716  13.484  22.163  0.00  0.00    +0.000 A 
ATOM     13  C   UNL     1      -1.909  13.508  20.787  0.00  0.00    +0.000 A 
ATOM     14  C   UNL     1      -1.529  12.410  20.006  0.00  0.00    +0.000 A 
ENDBRANCH   8   9
ENDBRANCH   4   6
BRANCH   1  15
ATOM     15  C   UNL     1       3.741   6.438  17.423  0.00  0.00    +0.000 C 
BRANCH  15  24
ATOM     16  C   UNL     1       5.203   4.790  18.694  0.00  0.00    +0.000 A 
ATOM     17  N   UNL     1       5.067   3.624  19.294  0.00  0.00    +0.000 NA
ATOM     18  C   UNL     1       3.776   3.233  19.080  0.00  0.00    +0.000 A 
ATOM     19  C   UNL     1       3.117   2.080  19.529  0.00  0.00    +0.000 A 
ATOM     20  C   UNL     1       1.768   1.904  19.205  0.00  0.00    +0.000 A 
ATOM     21  C   UNL     1       1.093   2.861  18.446  0.00  0.00    +0.000 A 
ATOM     22  C   UNL     1       1.737   4.016  17.982  0.00  0.00    +0.000 A 
ATOM     23  C   UNL     1       3.090   4.174  18.318  0.00  0.00    +0.000 A 
ATOM     24  N   UNL     1       4.025   5.159  18.063  0.00  0.00    +0.000 N 
BRANCH  16  26
ATOM     25  C   UNL     1       7.568   4.922  17.900  0.00  0.00    +0.000 C 
ATOM     26  C   UNL     1       6.470   5.582  18.720  0.00  0.00    +0.000 C 
ENDBRANCH  16  26
ENDBRANCH  15  24
ENDBRANCH   1  15
TORSDOF 5
ENDMDL
