MODEL 1
REMARK VINA RESULT:      -8.8      0.000      0.000
REMARK  Name = 
REMARK  5 active torsions:
REMARK  status: ('A' for Active; 'I' for Inactive)
REMARK    1  A    between atoms: C_2  and  C_13
REMARK    2  A    between atoms: N_3  and  N_4
REMARK    3  A    between atoms: C_17  and  S_18
REMARK    4  A    between atoms: S_18  and  N_21
REMARK    5  A    between atoms: N_21  and  C_22
REMARK                            x       y       z     vdW  Elec       q    Type
REMARK                         _______ _______ _______ _____ _____    ______ ____
ROOT
ATOM      1  C   UNL     1       1.309   8.703  20.379  0.00  0.00    +0.000 A 
ATOM      2  C   UNL     1       1.204   8.562  21.772  0.00  0.00    +0.000 A 
ATOM      3  C   UNL     1       0.431   9.449  22.523  0.00  0.00    +0.000 A 
ATOM      4  C   UNL     1      -0.264  10.471  21.884  0.00  0.00    +0.000 A 
ATOM      5  C   UNL     1      -0.192  10.590  20.492  0.00  0.00    +0.000 A 
ATOM      6  C   UNL     1       0.616   9.730  19.730  0.00  0.00    +0.000 A 
ENDROOT
BRANCH   1   8
ATOM      7  O   UNL     1       2.202   7.815  18.425  0.00  0.00    +0.000 OA
ATOM      8  C   UNL     1       2.078   7.670  19.637  0.00  0.00    +0.000 C 
ATOM      9  N   UNL     1       2.572   6.613  20.367  0.00  0.00    +0.000 N 
ATOM     10  H   UNL     1       2.328   6.453  21.334  0.00  0.00    +0.000 HD
BRANCH   9  11
ATOM     11  N   UNL     1       3.233   5.584  19.758  0.00  0.00    +0.000 N 
ATOM     12  C   UNL     1       4.549   5.547  19.395  0.00  0.00    +0.000 A 
ATOM     13  N   UNL     1       4.835   4.444  18.736  0.00  0.00    +0.000 NA
ATOM     14  C   UNL     1       3.647   3.762  18.654  0.00  0.00    +0.000 A 
ATOM     15  C   UNL     1       3.384   2.529  18.039  0.00  0.00    +0.000 A 
ATOM     16  C   UNL     1       2.074   2.034  18.057  0.00  0.00    +0.000 A 
ATOM     17  C   UNL     1       1.050   2.751  18.672  0.00  0.00    +0.000 A 
ATOM     18  C   UNL     1       1.290   3.982  19.300  0.00  0.00    +0.000 A 
ATOM     19  C   UNL     1       2.609   4.461  19.276  0.00  0.00    +0.000 A 
ENDBRANCH   9  11
ENDBRANCH   1   8
BRANCH   5  20
ATOM     20  S   UNL     1      -1.157  11.850  19.679  0.00  0.00    +0.000 S 
ATOM     21  O   UNL     1      -1.452  12.881  20.645  0.00  0.00    +0.000 OA
ATOM     22  O   UNL     1      -0.477  12.147  18.434  0.00  0.00    +0.000 OA
BRANCH  20  23
ATOM     23  N   UNL     1      -2.579  11.035  19.263  0.00  0.00    +0.000 N 
ATOM     24  H   UNL     1      -3.362  11.312  19.854  0.00  0.00    +0.000 HD
BRANCH  23  25
ATOM     25  C   UNL     1      -2.862  10.801  17.889  0.00  0.00    +0.000 A 
ATOM     26  C   UNL     1      -2.119   9.865  17.168  0.00  0.00    +0.000 A 
ATOM     27  C   UNL     1      -2.382   9.666  15.809  0.00  0.00    +0.000 A 
ATOM     28  C   UNL     1      -3.367  10.423  15.184  0.00  0.00    +0.000 A 
ATOM     29  F   UNL     1      -3.610  10.245  13.879  0.00  0.00    +0.000 F 
ATOM     30  C   UNL     1      -4.100  11.368  15.892  0.00  0.00    +0.000 A 
ATOM     31  C   UNL     1      -3.853  11.554  17.253  0.00  0.00    +0.000 A 
ENDBRANCH  23  25
ENDBRANCH  20  23
ENDBRANCH   5  20
TORSDOF 5
ENDMDL
MODEL 2
REMARK VINA RESULT:      -8.8      0.449      1.003
REMARK  Name = 
REMARK  5 active torsions:
REMARK  status: ('A' for Active; 'I' for Inactive)
REMARK    1  A    between atoms: C_2  and  C_13
REMARK    2  A    between atoms: N_3  and  N_4
REMARK    3  A    between atoms: C_17  and  S_18
REMARK    4  A    between atoms: S_18  and  N_21
REMARK    5  A    between atoms: N_21  and  C_22
REMARK                            x       y       z     vdW  Elec       q    Type
REMARK                         _______ _______ _______ _____ _____    ______ ____
ROOT
ATOM      1  C   UNL     1       1.224   8.774  20.571  0.00  0.00    +0.000 A 
ATOM      2  C   UNL     1       1.014   8.582  21.946  0.00  0.00    +0.000 A 
ATOM      3  C   UNL     1       0.272   9.501  22.689  0.00  0.00    +0.000 A 
ATOM      4  C   UNL     1      -0.287  10.609  22.060  0.00  0.00    +0.000 A 
ATOM      5  C   UNL     1      -0.111  10.782  20.683  0.00  0.00    +0.000 A 
ATOM      6  C   UNL     1       0.668   9.887  19.931  0.00  0.00    +0.000 A 
ENDROOT
BRANCH   1   8
ATOM      7  O   UNL     1       2.104   7.864  18.621  0.00  0.00    +0.000 OA
ATOM      8  C   UNL     1       1.948   7.709  19.828  0.00  0.00    +0.000 C 
ATOM      9  N   UNL     1       2.368   6.616  20.552  0.00  0.00    +0.000 N 
ATOM     10  H   UNL     1       2.096   6.457  21.512  0.00  0.00    +0.000 HD
BRANCH   9  11
ATOM     11  N   UNL     1       2.981   5.560  19.941  0.00  0.00    +0.000 N 
ATOM     12  C   UNL     1       4.252   5.517  19.443  0.00  0.00    +0.000 A 
ATOM     13  N   UNL     1       4.490   4.379  18.826  0.00  0.00    +0.000 NA
ATOM     14  C   UNL     1       3.313   3.678  18.912  0.00  0.00    +0.000 A 
ATOM     15  C   UNL     1       3.011   2.405  18.405  0.00  0.00    +0.000 A 
ATOM     16  C   UNL     1       1.721   1.894  18.592  0.00  0.00    +0.000 A 
ATOM     17  C   UNL     1       0.753   2.635  19.267  0.00  0.00    +0.000 A 
ATOM     18  C   UNL     1       1.033   3.906  19.790  0.00  0.00    +0.000 A 
ATOM     19  C   UNL     1       2.333   4.400  19.597  0.00  0.00    +0.000 A 
ENDBRANCH   9  11
ENDBRANCH   1   8
BRANCH   5  20
ATOM     20  S   UNL     1      -0.905  12.158  19.874  0.00  0.00    +0.000 S 
ATOM     21  O   UNL     1      -0.970  13.252  20.813  0.00  0.00    +0.000 OA
ATOM     22  O   UNL     1      -0.261  12.302  18.584  0.00  0.00    +0.000 OA
BRANCH  20  23
ATOM     23  N   UNL     1      -2.463  11.576  19.568  0.00  0.00    +0.000 N 
ATOM     24  H   UNL     1      -3.169  12.091  20.092  0.00  0.00    +0.000 HD
BRANCH  23  25
ATOM     25  C   UNL     1      -2.803  11.183  18.244  0.00  0.00    +0.000 A 
ATOM     26  C   UNL     1      -3.926  11.727  17.616  0.00  0.00    +0.000 A 
ATOM     27  C   UNL     1      -4.270  11.310  16.327  0.00  0.00    +0.000 A 
ATOM     28  C   UNL     1      -3.504  10.337  15.693  0.00  0.00    +0.000 A 
ATOM     29  F   UNL     1      -3.841   9.926  14.464  0.00  0.00    +0.000 F 
ATOM     30  C   UNL     1      -2.394   9.781  16.318  0.00  0.00    +0.000 A 
ATOM     31  C   UNL     1      -2.035  10.211  17.597  0.00  0.00    +0.000 A 
ENDBRANCH  23  25
ENDBRANCH  20  23
ENDBRANCH   5  20
TORSDOF 5
ENDMDL
MODEL 3
REMARK VINA RESULT:      -8.6      6.460      9.630
REMARK  Name = 
REMARK  5 active torsions:
REMARK  status: ('A' for Active; 'I' for Inactive)
REMARK    1  A    between atoms: C_2  and  C_13
REMARK    2  A    between atoms: N_3  and  N_4
REMARK    3  A    between atoms: C_17  and  S_18
REMARK    4  A    between atoms: S_18  and  N_21
REMARK    5  A    between atoms: N_21  and  C_22
REMARK                            x       y       z     vdW  Elec       q    Type
REMARK                         _______ _______ _______ _____ _____    ______ ____
ROOT
ATOM      1  C   UNL     1       7.913   7.865  18.212  0.00  0.00    +0.000 A 
ATOM      2  C   UNL     1       8.436   6.964  19.155  0.00  0.00    +0.000 A 
ATOM      3  C   UNL     1       8.110   5.608  19.102  0.00  0.00    +0.000 A 
ATOM      4  C   UNL     1       7.277   5.135  18.092  0.00  0.00    +0.000 A 
ATOM      5  C   UNL     1       6.787   6.025  17.130  0.00  0.00    +0.000 A 
ATOM      6  C   UNL     1       7.073   7.399  17.196  0.00  0.00    +0.000 A 
ENDROOT
BRANCH   1   8
ATOM      7  O   UNL     1       7.890  10.070  17.478  0.00  0.00    +0.000 OA
ATOM      8  C   UNL     1       8.374   9.276  18.279  0.00  0.00    +0.000 C 
ATOM      9  N   UNL     1       9.330   9.579  19.221  0.00  0.00    +0.000 N 
ATOM     10  H   UNL     1       9.809   8.873  19.763  0.00  0.00    +0.000 HD
BRANCH   9  11
ATOM     11  N   UNL     1       9.861  10.834  19.309  0.00  0.00    +0.000 N 
ATOM     12  C   UNL     1      10.810  11.389  18.498  0.00  0.00    +0.000 A 
ATOM     13  N   UNL     1      11.173  12.580  18.925  0.00  0.00    +0.000 NA
ATOM     14  C   UNL     1      10.443  12.782  20.069  0.00  0.00    +0.000 A 
ATOM     15  C   UNL     1      10.454  13.888  20.933  0.00  0.00    +0.000 A 
ATOM     16  C   UNL     1       9.636  13.863  22.069  0.00  0.00    +0.000 A 
ATOM     17  C   UNL     1       8.825  12.761  22.339  0.00  0.00    +0.000 A 
ATOM     18  C   UNL     1       8.791  11.648  21.487  0.00  0.00    +0.000 A 
ATOM     19  C   UNL     1       9.615  11.692  20.351  0.00  0.00    +0.000 A 
ENDBRANCH   9  11
ENDBRANCH   1   8
BRANCH   5  20
ATOM     20  S   UNL     1       5.792   5.392  15.791  0.00  0.00    +0.000 S 
ATOM     21  O   UNL     1       5.284   6.516  15.042  0.00  0.00    +0.000 OA
ATOM     22  O   UNL     1       6.573   4.348  15.160  0.00  0.00    +0.000 OA
BRANCH  20  23
ATOM     23  N   UNL     1       4.519   4.618  16.592  0.00  0.00    +0.000 N 
ATOM     24  H   UNL     1       4.708   3.627  16.734  0.00  0.00    +0.000 HD
BRANCH  23  25
ATOM     25  C   UNL     1       3.850   5.303  17.644  0.00  0.00    +0.000 A 
ATOM     26  C   UNL     1       3.587   4.651  18.851  0.00  0.00    +0.000 A 
ATOM     27  C   UNL     1       2.900   5.321  19.867  0.00  0.00    +0.000 A 
ATOM     28  C   UNL     1       2.463   6.625  19.654  0.00  0.00    +0.000 A 
ATOM     29  F   UNL     1       1.792   7.263  20.621  0.00  0.00    +0.000 F 
ATOM     30  C   UNL     1       2.708   7.274  18.450  0.00  0.00    +0.000 A 
ATOM     31  C   UNL     1       3.412   6.614  17.442  0.00  0.00    +0.000 A 
ENDBRANCH  23  25
ENDBRANCH  20  23
ENDBRANCH   5  20
TORSDOF 5
ENDMDL
MODEL 4
REMARK VINA RESULT:      -8.6      6.464      9.659
REMARK  Name = 
REMARK  5 active torsions:
REMARK  status: ('A' for Active; 'I' for Inactive)
REMARK    1  A    between atoms: C_2  and  C_13
REMARK    2  A    between atoms: N_3  and  N_4
REMARK    3  A    between atoms: C_17  and  S_18
REMARK    4  A    between atoms: S_18  and  N_21
REMARK    5  A    between atoms: N_21  and  C_22
REMARK                            x       y       z     vdW  Elec       q    Type
REMARK                         _______ _______ _______ _____ _____    ______ ____
ROOT
ATOM      1  C   UNL     1       7.775   7.770  18.265  0.00  0.00    +0.000 A 
ATOM      2  C   UNL     1       8.470   6.869  19.087  0.00  0.00    +0.000 A 
ATOM      3  C   UNL     1       8.103   5.523  19.139  0.00  0.00    +0.000 A 
ATOM      4  C   UNL     1       7.053   5.061  18.352  0.00  0.00    +0.000 A 
ATOM      5  C   UNL     1       6.384   5.951  17.504  0.00  0.00    +0.000 A 
ATOM      6  C   UNL     1       6.716   7.315  17.473  0.00  0.00    +0.000 A 
ENDROOT
BRANCH   1   8
ATOM      7  O   UNL     1       7.817   9.893  17.318  0.00  0.00    +0.000 OA
ATOM      8  C   UNL     1       8.278   9.167  18.193  0.00  0.00    +0.000 C 
ATOM      9  N   UNL     1       9.243   9.532  19.104  0.00  0.00    +0.000 N 
ATOM     10  H   UNL     1       9.701   8.869  19.713  0.00  0.00    +0.000 HD
BRANCH   9  11
ATOM     11  N   UNL     1       9.811  10.774  19.069  0.00  0.00    +0.000 N 
ATOM     12  C   UNL     1      10.671  11.263  18.127  0.00  0.00    +0.000 A 
ATOM     13  N   UNL     1      11.110  12.461  18.452  0.00  0.00    +0.000 NA
ATOM     14  C   UNL     1      10.527  12.735  19.663  0.00  0.00    +0.000 A 
ATOM     15  C   UNL     1      10.667  13.877  20.467  0.00  0.00    +0.000 A 
ATOM     16  C   UNL     1       9.989  13.927  21.690  0.00  0.00    +0.000 A 
ATOM     17  C   UNL     1       9.189  12.863  22.105  0.00  0.00    +0.000 A 
ATOM     18  C   UNL     1       9.027  11.715  21.317  0.00  0.00    +0.000 A 
ATOM     19  C   UNL     1       9.711  11.684  20.091  0.00  0.00    +0.000 A 
ENDBRANCH   9  11
ENDBRANCH   1   8
BRANCH   5  20
ATOM     20  S   UNL     1       5.097   5.328  16.438  0.00  0.00    +0.000 S 
ATOM     21  O   UNL     1       5.313   5.867  15.116  0.00  0.00    +0.000 OA
ATOM     22  O   UNL     1       5.024   3.901  16.674  0.00  0.00    +0.000 OA
BRANCH  20  23
ATOM     23  N   UNL     1       3.692   5.994  17.103  0.00  0.00    +0.000 N 
ATOM     24  H   UNL     1       3.125   6.464  16.398  0.00  0.00    +0.000 HD
BRANCH  23  25
ATOM     25  C   UNL     1       2.996   5.269  18.109  0.00  0.00    +0.000 A 
ATOM     26  C   UNL     1       1.952   4.410  17.761  0.00  0.00    +0.000 A 
ATOM     27  C   UNL     1       1.253   3.726  18.760  0.00  0.00    +0.000 A 
ATOM     28  C   UNL     1       1.590   3.930  20.094  0.00  0.00    +0.000 A 
ATOM     29  F   UNL     1       0.911   3.288  21.053  0.00  0.00    +0.000 F 
ATOM     30  C   UNL     1       2.618   4.795  20.449  0.00  0.00    +0.000 A 
ATOM     31  C   UNL     1       3.331   5.463  19.452  0.00  0.00    +0.000 A 
ENDBRANCH  23  25
ENDBRANCH  20  23
ENDBRANCH   5  20
TORSDOF 5
ENDMDL
MODEL 5
REMARK VINA RESULT:      -8.5      6.543      9.966
REMARK  Name = 
REMARK  5 active torsions:
REMARK  status: ('A' for Active; 'I' for Inactive)
REMARK    1  A    between atoms: C_2  and  C_13
REMARK    2  A    between atoms: N_3  and  N_4
REMARK    3  A    between atoms: C_17  and  S_18
REMARK    4  A    between atoms: S_18  and  N_21
REMARK    5  A    between atoms: N_21  and  C_22
REMARK                            x       y       z     vdW  Elec       q    Type
REMARK                         _______ _______ _______ _____ _____    ______ ____
ROOT
ATOM      1  C   UNL     1       8.004   7.826  18.217  0.00  0.00    +0.000 A 
ATOM      2  C   UNL     1       8.404   6.987  19.269  0.00  0.00    +0.000 A 
ATOM      3  C   UNL     1       8.137   5.618  19.229  0.00  0.00    +0.000 A 
ATOM      4  C   UNL     1       7.489   5.071  18.126  0.00  0.00    +0.000 A 
ATOM      5  C   UNL     1       7.124   5.900  17.060  0.00  0.00    +0.000 A 
ATOM      6  C   UNL     1       7.349   7.285  17.106  0.00  0.00    +0.000 A 
ENDROOT
BRANCH   1   8
ATOM      7  O   UNL     1       7.874  10.033  17.495  0.00  0.00    +0.000 OA
ATOM      8  C   UNL     1       8.400   9.258  18.287  0.00  0.00    +0.000 C 
ATOM      9  N   UNL     1       9.348   9.599  19.225  0.00  0.00    +0.000 N 
ATOM     10  H   UNL     1       9.862   8.914  19.760  0.00  0.00    +0.000 HD
BRANCH   9  11
ATOM     11  N   UNL     1       9.821  10.877  19.316  0.00  0.00    +0.000 N 
ATOM     12  C   UNL     1      10.708  11.491  18.479  0.00  0.00    +0.000 A 
ATOM     13  N   UNL     1      11.030  12.691  18.914  0.00  0.00    +0.000 NA
ATOM     14  C   UNL     1      10.339  12.837  20.091  0.00  0.00    +0.000 A 
ATOM     15  C   UNL     1      10.333  13.926  20.975  0.00  0.00    +0.000 A 
ATOM     16  C   UNL     1       9.564  13.842  22.142  0.00  0.00    +0.000 A 
ATOM     17  C   UNL     1       8.820  12.698  22.423  0.00  0.00    +0.000 A 
ATOM     18  C   UNL     1       8.804  11.600  21.551  0.00  0.00    +0.000 A 
ATOM     19  C   UNL     1       9.577  11.704  20.384  0.00  0.00    +0.000 A 
ENDBRANCH   9  11
ENDBRANCH   1   8
BRANCH   5  20
ATOM     20  S   UNL     1       6.372   5.173  15.616  0.00  0.00    +0.000 S 
ATOM     21  O   UNL     1       5.344   6.070  15.147  0.00  0.00    +0.000 OA
ATOM     22  O   UNL     1       7.460   4.748  14.757  0.00  0.00    +0.000 OA
BRANCH  20  23
ATOM     23  N   UNL     1       5.665   3.761  16.221  0.00  0.00    +0.000 N 
ATOM     24  H   UNL     1       6.365   3.100  16.557  0.00  0.00    +0.000 HD
BRANCH  23  25
ATOM     25  C   UNL     1       4.462   3.861  16.973  0.00  0.00    +0.000 A 
ATOM     26  C   UNL     1       3.765   2.709  17.341  0.00  0.00    +0.000 A 
ATOM     27  C   UNL     1       2.566   2.819  18.052  0.00  0.00    +0.000 A 
ATOM     28  C   UNL     1       2.067   4.080  18.362  0.00  0.00    +0.000 A 
ATOM     29  F   UNL     1       0.911   4.188  19.029  0.00  0.00    +0.000 F 
ATOM     30  C   UNL     1       2.747   5.232  17.985  0.00  0.00    +0.000 A 
ATOM     31  C   UNL     1       3.955   5.123  17.294  0.00  0.00    +0.000 A 
ENDBRANCH  23  25
ENDBRANCH  20  23
ENDBRANCH   5  20
TORSDOF 5
ENDMDL
MODEL 6
REMARK VINA RESULT:      -8.5      4.591      8.946
REMARK  Name = 
REMARK  5 active torsions:
REMARK  status: ('A' for Active; 'I' for Inactive)
REMARK    1  A    between atoms: C_2  and  C_13
REMARK    2  A    between atoms: N_3  and  N_4
REMARK    3  A    between atoms: C_17  and  S_18
REMARK    4  A    between atoms: S_18  and  N_21
REMARK    5  A    between atoms: N_21  and  C_22
REMARK                            x       y       z     vdW  Elec       q    Type
REMARK                         _______ _______ _______ _____ _____    ______ ____
ROOT
ATOM      1  C   UNL     1       3.296   6.704  18.073  0.00  0.00    +0.000 A 
ATOM      2  C   UNL     1       2.707   5.498  18.487  0.00  0.00    +0.000 A 
ATOM      3  C   UNL     1       3.435   4.308  18.475  0.00  0.00    +0.000 A 
ATOM      4  C   UNL     1       4.767   4.316  18.071  0.00  0.00    +0.000 A 
ATOM      5  C   UNL     1       5.366   5.523  17.695  0.00  0.00    +0.000 A 
ATOM      6  C   UNL     1       4.633   6.720  17.663  0.00  0.00    +0.000 A 
ENDROOT
BRANCH   1   8
ATOM      7  O   UNL     1       2.510   8.735  17.259  0.00  0.00    +0.000 OA
ATOM      8  C   UNL     1       2.487   7.945  18.197  0.00  0.00    +0.000 C 
ATOM      9  N   UNL     1       1.790   8.123  19.371  0.00  0.00    +0.000 N 
ATOM     10  H   UNL     1       1.909   7.524  20.175  0.00  0.00    +0.000 HD
BRANCH   9  11
ATOM     11  N   UNL     1       1.075   9.264  19.600  0.00  0.00    +0.000 N 
ATOM     12  C   UNL     1       0.911  10.321  18.750  0.00  0.00    +0.000 A 
ATOM     13  N   UNL     1       0.248  11.302  19.324  0.00  0.00    +0.000 NA
ATOM     14  C   UNL     1       0.003  10.863  20.601  0.00  0.00    +0.000 A 
ATOM     15  C   UNL     1      -0.660  11.526  21.645  0.00  0.00    +0.000 A 
ATOM     16  C   UNL     1      -0.771  10.888  22.886  0.00  0.00    +0.000 A 
ATOM     17  C   UNL     1      -0.232   9.617  23.083  0.00  0.00    +0.000 A 
ATOM     18  C   UNL     1       0.427   8.931  22.053  0.00  0.00    +0.000 A 
ATOM     19  C   UNL     1       0.525   9.585  20.815  0.00  0.00    +0.000 A 
ENDBRANCH   9  11
ENDBRANCH   1   8
BRANCH   5  20
ATOM     20  S   UNL     1       7.096   5.533  17.263  0.00  0.00    +0.000 S 
ATOM     21  O   UNL     1       7.770   6.465  18.135  0.00  0.00    +0.000 OA
ATOM     22  O   UNL     1       7.505   4.146  17.174  0.00  0.00    +0.000 OA
BRANCH  20  23
ATOM     23  N   UNL     1       7.093   6.132  15.681  0.00  0.00    +0.000 N 
ATOM     24  H   UNL     1       7.870   6.770  15.516  0.00  0.00    +0.000 HD
BRANCH  23  25
ATOM     25  C   UNL     1       6.740   5.259  14.615  0.00  0.00    +0.000 A 
ATOM     26  C   UNL     1       5.540   4.546  14.659  0.00  0.00    +0.000 A 
ATOM     27  C   UNL     1       5.217   3.665  13.623  0.00  0.00    +0.000 A 
ATOM     28  C   UNL     1       6.109   3.490  12.569  0.00  0.00    +0.000 A 
ATOM     29  F   UNL     1       5.808   2.636  11.583  0.00  0.00    +0.000 F 
ATOM     30  C   UNL     1       7.312   4.185  12.527  0.00  0.00    +0.000 A 
ATOM     31  C   UNL     1       7.627   5.080  13.550  0.00  0.00    +0.000 A 
ENDBRANCH  23  25
ENDBRANCH  20  23
ENDBRANCH   5  20
TORSDOF 5
ENDMDL
MODEL 7
REMARK VINA RESULT:      -8.5      1.472      1.597
REMARK  Name = 
REMARK  5 active torsions:
REMARK  status: ('A' for Active; 'I' for Inactive)
REMARK    1  A    between atoms: C_2  and  C_13
REMARK    2  A    between atoms: N_3  and  N_4
REMARK    3  A    between atoms: C_17  and  S_18
REMARK    4  A    between atoms: S_18  and  N_21
REMARK    5  A    between atoms: N_21  and  C_22
REMARK                            x       y       z     vdW  Elec       q    Type
REMARK                         _______ _______ _______ _____ _____    ______ ____
ROOT
ATOM      1  C   UNL     1       1.455   8.535  20.141  0.00  0.00    +0.000 A 
ATOM      2  C   UNL     1       0.669   8.228  21.264  0.00  0.00    +0.000 A 
ATOM      3  C   UNL     1      -0.099   9.213  21.888  0.00  0.00    +0.000 A 
ATOM      4  C   UNL     1      -0.106  10.509  21.380  0.00  0.00    +0.000 A 
ATOM      5  C   UNL     1       0.646  10.806  20.239  0.00  0.00    +0.000 A 
ATOM      6  C   UNL     1       1.455   9.835  19.627  0.00  0.00    +0.000 A 
ENDROOT
BRANCH   1   8
ATOM      7  O   UNL     1       2.240   7.430  18.252  0.00  0.00    +0.000 OA
ATOM      8  C   UNL     1       2.175   7.416  19.478  0.00  0.00    +0.000 C 
ATOM      9  N   UNL     1       2.697   6.437  20.292  0.00  0.00    +0.000 N 
ATOM     10  H   UNL     1       2.500   6.385  21.282  0.00  0.00    +0.000 HD
BRANCH   9  11
ATOM     11  N   UNL     1       3.316   5.339  19.766  0.00  0.00    +0.000 N 
ATOM     12  C   UNL     1       4.627   5.225  19.403  0.00  0.00    +0.000 A 
ATOM     13  N   UNL     1       4.870   4.063  18.834  0.00  0.00    +0.000 NA
ATOM     14  C   UNL     1       3.657   3.421  18.810  0.00  0.00    +0.000 A 
ATOM     15  C   UNL     1       3.346   2.152  18.298  0.00  0.00    +0.000 A 
ATOM     16  C   UNL     1       2.020   1.708  18.360  0.00  0.00    +0.000 A 
ATOM     17  C   UNL     1       1.026   2.510  18.918  0.00  0.00    +0.000 A 
ATOM     18  C   UNL     1       1.314   3.777  19.444  0.00  0.00    +0.000 A 
ATOM     19  C   UNL     1       2.649   4.204  19.378  0.00  0.00    +0.000 A 
ENDBRANCH   9  11
ENDBRANCH   1   8
BRANCH   5  20
ATOM     20  S   UNL     1       0.560  12.448  19.549  0.00  0.00    +0.000 S 
ATOM     21  O   UNL     1      -0.235  13.265  20.435  0.00  0.00    +0.000 OA
ATOM     22  O   UNL     1       1.915  12.814  19.190  0.00  0.00    +0.000 OA
BRANCH  20  23
ATOM     23  N   UNL     1      -0.271  12.209  18.094  0.00  0.00    +0.000 N 
ATOM     24  H   UNL     1       0.353  11.907  17.347  0.00  0.00    +0.000 HD
BRANCH  23  25
ATOM     25  C   UNL     1      -1.565  11.621  18.129  0.00  0.00    +0.000 A 
ATOM     26  C   UNL     1      -1.795  10.393  17.506  0.00  0.00    +0.000 A 
ATOM     27  C   UNL     1      -3.079   9.839  17.518  0.00  0.00    +0.000 A 
ATOM     28  C   UNL     1      -4.119  10.531  18.129  0.00  0.00    +0.000 A 
ATOM     29  F   UNL     1      -5.352  10.008  18.129  0.00  0.00    +0.000 F 
ATOM     30  C   UNL     1      -3.900  11.761  18.738  0.00  0.00    +0.000 A 
ATOM     31  C   UNL     1      -2.615  12.307  18.746  0.00  0.00    +0.000 A 
ENDBRANCH  23  25
ENDBRANCH  20  23
ENDBRANCH   5  20
TORSDOF 5
ENDMDL
MODEL 8
REMARK VINA RESULT:      -8.5      4.534      8.865
REMARK  Name = 
REMARK  5 active torsions:
REMARK  status: ('A' for Active; 'I' for Inactive)
REMARK    1  A    between atoms: C_2  and  C_13
REMARK    2  A    between atoms: N_3  and  N_4
REMARK    3  A    between atoms: C_17  and  S_18
REMARK    4  A    between atoms: S_18  and  N_21
REMARK    5  A    between atoms: N_21  and  C_22
REMARK                            x       y       z     vdW  Elec       q    Type
REMARK                         _______ _______ _______ _____ _____    ______ ____
ROOT
ATOM      1  C   UNL     1       3.418   5.969  18.400  0.00  0.00    +0.000 A 
ATOM      2  C   UNL     1       3.126   4.740  19.013  0.00  0.00    +0.000 A 
ATOM      3  C   UNL     1       4.092   3.737  19.098  0.00  0.00    +0.000 A 
ATOM      4  C   UNL     1       5.368   3.962  18.590  0.00  0.00    +0.000 A 
ATOM      5  C   UNL     1       5.673   5.199  18.013  0.00  0.00    +0.000 A 
ATOM      6  C   UNL     1       4.698   6.202  17.884  0.00  0.00    +0.000 A 
ENDROOT
BRANCH   1   8
ATOM      7  O   UNL     1       1.589   7.069  17.478  0.00  0.00    +0.000 OA
ATOM      8  C   UNL     1       2.368   7.020  18.426  0.00  0.00    +0.000 C 
ATOM      9  N   UNL     1       2.365   7.875  19.504  0.00  0.00    +0.000 N 
ATOM     10  H   UNL     1       3.106   7.896  20.190  0.00  0.00    +0.000 HD
BRANCH   9  11
ATOM     11  N   UNL     1       1.479   8.913  19.579  0.00  0.00    +0.000 N 
ATOM     12  C   UNL     1       1.197   9.829  18.606  0.00  0.00    +0.000 A 
ATOM     13  N   UNL     1       0.372  10.757  19.044  0.00  0.00    +0.000 NA
ATOM     14  C   UNL     1       0.140  10.432  20.357  0.00  0.00    +0.000 A 
ATOM     15  C   UNL     1      -0.658  11.100  21.298  0.00  0.00    +0.000 A 
ATOM     16  C   UNL     1      -0.726  10.596  22.603  0.00  0.00    +0.000 A 
ATOM     17  C   UNL     1      -0.014   9.453  22.962  0.00  0.00    +0.000 A 
ATOM     18  C   UNL     1       0.783   8.763  22.037  0.00  0.00    +0.000 A 
ATOM     19  C   UNL     1       0.836   9.281  20.733  0.00  0.00    +0.000 A 
ENDBRANCH   9  11
ENDBRANCH   1   8
BRANCH   5  20
ATOM     20  S   UNL     1       7.336   5.505  17.446  0.00  0.00    +0.000 S 
ATOM     21  O   UNL     1       7.921   6.512  18.298  0.00  0.00    +0.000 OA
ATOM     22  O   UNL     1       7.953   4.206  17.269  0.00  0.00    +0.000 OA
BRANCH  20  23
ATOM     23  N   UNL     1       7.102   6.137  15.894  0.00  0.00    +0.000 N 
ATOM     24  H   UNL     1       7.759   6.887  15.688  0.00  0.00    +0.000 HD
BRANCH  23  25
ATOM     25  C   UNL     1       6.784   5.248  14.830  0.00  0.00    +0.000 A 
ATOM     26  C   UNL     1       7.642   5.129  13.735  0.00  0.00    +0.000 A 
ATOM     27  C   UNL     1       7.305   4.277  12.679  0.00  0.00    +0.000 A 
ATOM     28  C   UNL     1       6.104   3.577  12.719  0.00  0.00    +0.000 A 
ATOM     29  F   UNL     1       5.772   2.773  11.701  0.00  0.00    +0.000 F 
ATOM     30  C   UNL     1       5.238   3.703  13.799  0.00  0.00    +0.000 A 
ATOM     31  C   UNL     1       5.582   4.536  14.864  0.00  0.00    +0.000 A 
ENDBRANCH  23  25
ENDBRANCH  20  23
ENDBRANCH   5  20
TORSDOF 5
ENDMDL
MODEL 9
REMARK VINA RESULT:      -8.3      4.579      8.948
REMARK  Name = 
REMARK  5 active torsions:
REMARK  status: ('A' for Active; 'I' for Inactive)
REMARK    1  A    between atoms: C_2  and  C_13
REMARK    2  A    between atoms: N_3  and  N_4
REMARK    3  A    between atoms: C_17  and  S_18
REMARK    4  A    between atoms: S_18  and  N_21
REMARK    5  A    between atoms: N_21  and  C_22
REMARK                            x       y       z     vdW  Elec       q    Type
REMARK                         _______ _______ _______ _____ _____    ______ ____
ROOT
ATOM      1  C   UNL     1       2.946   7.125  17.948  0.00  0.00    +0.000 A 
ATOM      2  C   UNL     1       2.227   5.980  18.329  0.00  0.00    +0.000 A 
ATOM      3  C   UNL     1       2.837   4.725  18.335  0.00  0.00    +0.000 A 
ATOM      4  C   UNL     1       4.178   4.606  17.982  0.00  0.00    +0.000 A 
ATOM      5  C   UNL     1       4.905   5.751  17.640  0.00  0.00    +0.000 A 
ATOM      6  C   UNL     1       4.293   7.014  17.589  0.00  0.00    +0.000 A 
ENDROOT
BRANCH   1   8
ATOM      7  O   UNL     1       2.533   9.293  17.215  0.00  0.00    +0.000 OA
ATOM      8  C   UNL     1       2.256   8.438  18.051  0.00  0.00    +0.000 C 
ATOM      9  N   UNL     1       1.375   8.602  19.095  0.00  0.00    +0.000 N 
ATOM     10  H   UNL     1       1.281   7.931  19.844  0.00  0.00    +0.000 HD
BRANCH   9  11
ATOM     11  N   UNL     1       0.747   9.797  19.307  0.00  0.00    +0.000 N 
ATOM     12  C   UNL     1       1.006  10.701  20.298  0.00  0.00    +0.000 A 
ATOM     13  N   UNL     1       0.147  11.698  20.275  0.00  0.00    +0.000 NA
ATOM     14  C   UNL     1      -0.710  11.404  19.245  0.00  0.00    +0.000 A 
ATOM     15  C   UNL     1      -1.823  12.129  18.795  0.00  0.00    +0.000 A 
ATOM     16  C   UNL     1      -2.575  11.617  17.731  0.00  0.00    +0.000 A 
ATOM     17  C   UNL     1      -2.227  10.409  17.129  0.00  0.00    +0.000 A 
ATOM     18  C   UNL     1      -1.114   9.670  17.555  0.00  0.00    +0.000 A 
ATOM     19  C   UNL     1      -0.369  10.201  18.620  0.00  0.00    +0.000 A 
ENDBRANCH   9  11
ENDBRANCH   1   8
BRANCH   5  20
ATOM     20  S   UNL     1       6.644   5.595  17.275  0.00  0.00    +0.000 S 
ATOM     21  O   UNL     1       7.367   6.478  18.159  0.00  0.00    +0.000 OA
ATOM     22  O   UNL     1       6.926   4.175  17.222  0.00  0.00    +0.000 OA
BRANCH  20  23
ATOM     23  N   UNL     1       6.755   6.163  15.686  0.00  0.00    +0.000 N 
ATOM     24  H   UNL     1       7.521   6.825  15.573  0.00  0.00    +0.000 HD
BRANCH  23  25
ATOM     25  C   UNL     1       6.523   5.258  14.614  0.00  0.00    +0.000 A 
ATOM     26  C   UNL     1       5.343   4.513  14.567  0.00  0.00    +0.000 A 
ATOM     27  C   UNL     1       5.139   3.602  13.527  0.00  0.00    +0.000 A 
ATOM     28  C   UNL     1       6.126   3.429  12.562  0.00  0.00    +0.000 A 
ATOM     29  F   UNL     1       5.938   2.546  11.573  0.00  0.00    +0.000 F 
ATOM     30  C   UNL     1       7.309   4.157  12.611  0.00  0.00    +0.000 A 
ATOM     31  C   UNL     1       7.507   5.083  13.637  0.00  0.00    +0.000 A 
ENDBRANCH  23  25
ENDBRANCH  20  23
ENDBRANCH   5  20
TORSDOF 5
ENDMDL
