MODEL 1
REMARK VINA RESULT:      -9.5      0.000      0.000
REMARK  Name = 
REMARK  5 active torsions:
REMARK  status: ('A' for Active; 'I' for Inactive)
REMARK    1  A    between atoms: C_1  and  C_2
REMARK    2  A    between atoms: C_6  and  C_7
REMARK    3  A    between atoms: N_13  and  C_14
REMARK    4  A    between atoms: C_18  and  C_19
REMARK    5  A    between atoms: N_23  and  N_24
REMARK                            x       y       z     vdW  Elec       q    Type
REMARK                         _______ _______ _______ _____ _____    ______ ____
ROOT
ATOM      1  C   UNL     1       1.802   7.163  20.031  0.00  0.00    +0.000 A 
ATOM      2  C   UNL     1       1.324   6.212  20.949  0.00  0.00    +0.000 A 
ATOM      3  C   UNL     1       1.819   4.912  20.984  0.00  0.00    +0.000 A 
ATOM      4  C   UNL     1       2.835   4.548  20.116  0.00  0.00    +0.000 A 
ATOM      5  C   UNL     1       3.359   5.494  19.225  0.00  0.00    +0.000 A 
ATOM      6  C   UNL     1       2.793   6.777  19.129  0.00  0.00    +0.000 A 
ENDROOT
BRANCH   1  15
ATOM      7  C   UNL     1      -0.208  14.110  18.481  0.00  0.00    +0.000 C 
ATOM      8  C   UNL     1      -0.025  12.842  19.261  0.00  0.00    +0.000 A 
ATOM      9  C   UNL     1       0.659  11.773  18.694  0.00  0.00    +0.000 A 
ATOM     10  C   UNL     1       0.793  10.626  19.449  0.00  0.00    +0.000 A 
ATOM     11  C   UNL     1       0.274  10.462  20.730  0.00  0.00    +0.000 A 
ATOM     12  C   UNL     1      -0.388  11.528  21.331  0.00  0.00    +0.000 A 
ATOM     13  C   UNL     1      -0.533  12.718  20.574  0.00  0.00    +0.000 A 
ATOM     14  C   UNL     1       0.553   9.058  21.194  0.00  0.00    +0.000 C 
ATOM     15  N   UNL     1       1.340   8.500  20.097  0.00  0.00    +0.000 N 
ATOM     16  C   UNL     1       1.470   9.403  19.046  0.00  0.00    +0.000 C 
ATOM     17  O   UNL     1       1.982   9.288  17.946  0.00  0.00    +0.000 OA
BRANCH  12  18
ATOM     18  C   UNL     1      -0.938  11.471  22.732  0.00  0.00    +0.000 C 
ATOM     19  F   UNL     1      -2.263  11.167  22.788  0.00  0.00    +0.000 F 
ATOM     20  F   UNL     1      -0.308  10.534  23.493  0.00  0.00    +0.000 F 
ATOM     21  F   UNL     1      -0.796  12.651  23.396  0.00  0.00    +0.000 F 
ENDBRANCH  12  18
ENDBRANCH   1  15
BRANCH   5  22
ATOM     22  C   UNL     1       4.610   5.192  18.452  0.00  0.00    +0.000 C 
ATOM     23  N   UNL     1       5.639   4.900  19.183  0.00  0.00    +0.000 NA
ATOM     24  N   UNL     1       6.942   4.588  18.860  0.00  0.00    +0.000 NA
ATOM     25  C   UNL     1       7.502   4.702  17.711  0.00  0.00    +0.000 C 
ATOM     26  N   UNL     1       7.026   4.965  16.453  0.00  0.00    +0.000 N 
ATOM     27  C   UNL     1       6.262   3.947  15.753  0.00  0.00    +0.000 C 
ATOM     28  C   UNL     1       4.820   3.967  16.223  0.00  0.00    +0.000 C 
ATOM     29  C   UNL     1       4.442   5.253  16.942  0.00  0.00    +0.000 C 
BRANCH  26  30
ATOM     30  N   UNL     1       7.602   6.046  15.750  0.00  0.00    +0.000 NA
ATOM     31  H   UNL     1       7.087   6.906  15.968  0.00  0.00    +0.000 HD
ATOM     32  H   UNL     1       7.410   5.913  14.752  0.00  0.00    +0.000 HD
ENDBRANCH  26  30
ENDBRANCH   5  22
TORSDOF 4
ENDMDL
MODEL 2
REMARK VINA RESULT:      -9.2      3.214      4.140
REMARK  Name = 
REMARK  5 active torsions:
REMARK  status: ('A' for Active; 'I' for Inactive)
REMARK    1  A    between atoms: C_1  and  C_2
REMARK    2  A    between atoms: C_6  and  C_7
REMARK    3  A    between atoms: N_13  and  C_14
REMARK    4  A    between atoms: C_18  and  C_19
REMARK    5  A    between atoms: N_23  and  N_24
REMARK                            x       y       z     vdW  Elec       q    Type
REMARK                         _______ _______ _______ _____ _____    ______ ____
ROOT
ATOM      1  C   UNL     1       1.527   8.927  19.028  0.00  0.00    +0.000 A 
ATOM      2  C   UNL     1       2.262   9.329  17.900  0.00  0.00    +0.000 A 
ATOM      3  C   UNL     1       3.241   8.518  17.334  0.00  0.00    +0.000 A 
ATOM      4  C   UNL     1       3.480   7.265  17.873  0.00  0.00    +0.000 A 
ATOM      5  C   UNL     1       2.727   6.825  18.970  0.00  0.00    +0.000 A 
ATOM      6  C   UNL     1       1.805   7.683  19.594  0.00  0.00    +0.000 A 
ENDROOT
BRANCH   1  15
ATOM      7  C   UNL     1      -2.678  13.610  22.912  0.00  0.00    +0.000 C 
ATOM      8  C   UNL     1      -2.247  12.706  21.796  0.00  0.00    +0.000 A 
ATOM      9  C   UNL     1      -1.053  12.001  21.899  0.00  0.00    +0.000 A 
ATOM     10  C   UNL     1      -0.696  11.189  20.842  0.00  0.00    +0.000 A 
ATOM     11  C   UNL     1      -1.441  11.043  19.675  0.00  0.00    +0.000 A 
ATOM     12  C   UNL     1      -2.654  11.713  19.561  0.00  0.00    +0.000 A 
ATOM     13  C   UNL     1      -3.043  12.551  20.638  0.00  0.00    +0.000 A 
ATOM     14  C   UNL     1      -0.695  10.142  18.729  0.00  0.00    +0.000 C 
ATOM     15  N   UNL     1       0.474   9.741  19.509  0.00  0.00    +0.000 N 
ATOM     16  C   UNL     1       0.504  10.371  20.750  0.00  0.00    +0.000 C 
ATOM     17  O   UNL     1       1.335  10.353  21.641  0.00  0.00    +0.000 OA
BRANCH  12  18
ATOM     18  C   UNL     1      -3.559  11.581  18.365  0.00  0.00    +0.000 C 
ATOM     19  F   UNL     1      -2.969  11.929  17.190  0.00  0.00    +0.000 F 
ATOM     20  F   UNL     1      -4.003  10.304  18.196  0.00  0.00    +0.000 F 
ATOM     21  F   UNL     1      -4.675  12.354  18.467  0.00  0.00    +0.000 F 
ENDBRANCH  12  18
ENDBRANCH   1  15
BRANCH   5  22
ATOM     22  C   UNL     1       2.802   5.393  19.413  0.00  0.00    +0.000 C 
ATOM     23  N   UNL     1       2.326   5.168  20.596  0.00  0.00    +0.000 NA
ATOM     24  N   UNL     1       2.230   4.018  21.350  0.00  0.00    +0.000 NA
ATOM     25  C   UNL     1       2.787   2.888  21.109  0.00  0.00    +0.000 C 
ATOM     26  N   UNL     1       3.462   2.381  20.029  0.00  0.00    +0.000 N 
ATOM     27  C   UNL     1       2.726   2.044  18.822  0.00  0.00    +0.000 C 
ATOM     28  C   UNL     1       2.488   3.294  17.995  0.00  0.00    +0.000 C 
ATOM     29  C   UNL     1       3.398   4.449  18.380  0.00  0.00    +0.000 C 
BRANCH  26  30
ATOM     30  N   UNL     1       4.757   1.863  20.252  0.00  0.00    +0.000 NA
ATOM     31  H   UNL     1       4.856   1.611  21.241  0.00  0.00    +0.000 HD
ATOM     32  H   UNL     1       5.428   2.631  20.145  0.00  0.00    +0.000 HD
ENDBRANCH  26  30
ENDBRANCH   5  22
TORSDOF 4
ENDMDL
MODEL 3
REMARK VINA RESULT:      -9.1      4.207      9.209
REMARK  Name = 
REMARK  5 active torsions:
REMARK  status: ('A' for Active; 'I' for Inactive)
REMARK    1  A    between atoms: C_1  and  C_2
REMARK    2  A    between atoms: C_6  and  C_7
REMARK    3  A    between atoms: N_13  and  C_14
REMARK    4  A    between atoms: C_18  and  C_19
REMARK    5  A    between atoms: N_23  and  N_24
REMARK                            x       y       z     vdW  Elec       q    Type
REMARK                         _______ _______ _______ _____ _____    ______ ____
ROOT
ATOM      1  C   UNL     1       0.350  10.279  19.838  0.00  0.00    +0.000 A 
ATOM      2  C   UNL     1       0.725  10.984  20.995  0.00  0.00    +0.000 A 
ATOM      3  C   UNL     1      -0.036  12.039  21.490  0.00  0.00    +0.000 A 
ATOM      4  C   UNL     1      -1.213  12.387  20.849  0.00  0.00    +0.000 A 
ATOM      5  C   UNL     1      -1.629  11.668  19.722  0.00  0.00    +0.000 A 
ATOM      6  C   UNL     1      -0.813  10.666  19.171  0.00  0.00    +0.000 A 
ENDROOT
BRANCH   1  15
ATOM      7  C   UNL     1       5.133   5.692  16.554  0.00  0.00    +0.000 C 
ATOM      8  C   UNL     1       4.085   6.178  17.511  0.00  0.00    +0.000 A 
ATOM      9  C   UNL     1       3.579   7.467  17.385  0.00  0.00    +0.000 A 
ATOM     10  C   UNL     1       2.623   7.870  18.295  0.00  0.00    +0.000 A 
ATOM     11  C   UNL     1       2.146   7.082  19.338  0.00  0.00    +0.000 A 
ATOM     12  C   UNL     1       2.615   5.778  19.466  0.00  0.00    +0.000 A 
ATOM     13  C   UNL     1       3.596   5.341  18.539  0.00  0.00    +0.000 A 
ATOM     14  C   UNL     1       1.178   7.889  20.159  0.00  0.00    +0.000 C 
ATOM     15  N   UNL     1       1.100   9.151  19.427  0.00  0.00    +0.000 N 
ATOM     16  C   UNL     1       1.967   9.168  18.338  0.00  0.00    +0.000 C 
ATOM     17  O   UNL     1       2.240  10.049  17.541  0.00  0.00    +0.000 OA
BRANCH  12  18
ATOM     18  C   UNL     1       2.125   4.827  20.526  0.00  0.00    +0.000 C 
ATOM     19  F   UNL     1       2.426   5.217  21.794  0.00  0.00    +0.000 F 
ATOM     20  F   UNL     1       0.773   4.675  20.494  0.00  0.00    +0.000 F 
ATOM     21  F   UNL     1       2.646   3.577  20.386  0.00  0.00    +0.000 F 
ENDBRANCH  12  18
ENDBRANCH   1  15
BRANCH   5  22
ATOM     22  C   UNL     1      -3.007  11.870  19.162  0.00  0.00    +0.000 C 
ATOM     23  N   UNL     1      -3.222  11.281  18.029  0.00  0.00    +0.000 NA
ATOM     24  N   UNL     1      -4.325  11.241  17.203  0.00  0.00    +0.000 NA
ATOM     25  C   UNL     1      -5.381  11.965  17.289  0.00  0.00    +0.000 C 
ATOM     26  N   UNL     1      -5.856  12.830  18.240  0.00  0.00    +0.000 N 
ATOM     27  C   UNL     1      -6.365  12.302  19.494  0.00  0.00    +0.000 C 
ATOM     28  C   UNL     1      -5.214  12.011  20.438  0.00  0.00    +0.000 C 
ATOM     29  C   UNL     1      -3.922  12.709  20.042  0.00  0.00    +0.000 C 
BRANCH  26  30
ATOM     30  N   UNL     1      -6.176  14.143  17.827  0.00  0.00    +0.000 NA
ATOM     31  H   UNL     1      -7.121  14.379  18.151  0.00  0.00    +0.000 HD
ATOM     32  H   UNL     1      -6.280  14.138  16.807  0.00  0.00    +0.000 HD
ENDBRANCH  26  30
ENDBRANCH   5  22
TORSDOF 4
ENDMDL
MODEL 4
REMARK VINA RESULT:      -9.1      4.166      9.024
REMARK  Name = 
REMARK  5 active torsions:
REMARK  status: ('A' for Active; 'I' for Inactive)
REMARK    1  A    between atoms: C_1  and  C_2
REMARK    2  A    between atoms: C_6  and  C_7
REMARK    3  A    between atoms: N_13  and  C_14
REMARK    4  A    between atoms: C_18  and  C_19
REMARK    5  A    between atoms: N_23  and  N_24
REMARK                            x       y       z     vdW  Elec       q    Type
REMARK                         _______ _______ _______ _____ _____    ______ ____
ROOT
ATOM      1  C   UNL     1       0.535  10.173  19.783  0.00  0.00    +0.000 A 
ATOM      2  C   UNL     1       1.012  10.939  20.860  0.00  0.00    +0.000 A 
ATOM      3  C   UNL     1       0.297  12.023  21.363  0.00  0.00    +0.000 A 
ATOM      4  C   UNL     1      -0.934  12.339  20.814  0.00  0.00    +0.000 A 
ATOM      5  C   UNL     1      -1.450  11.559  19.771  0.00  0.00    +0.000 A 
ATOM      6  C   UNL     1      -0.685  10.525  19.205  0.00  0.00    +0.000 A 
ENDROOT
BRANCH   1  15
ATOM      7  C   UNL     1       5.128   5.428  16.453  0.00  0.00    +0.000 C 
ATOM      8  C   UNL     1       4.112   5.951  17.425  0.00  0.00    +0.000 A 
ATOM      9  C   UNL     1       3.638   7.252  17.296  0.00  0.00    +0.000 A 
ATOM     10  C   UNL     1       2.711   7.689  18.220  0.00  0.00    +0.000 A 
ATOM     11  C   UNL     1       2.235   6.923  19.280  0.00  0.00    +0.000 A 
ATOM     12  C   UNL     1       2.671   5.609  19.412  0.00  0.00    +0.000 A 
ATOM     13  C   UNL     1       3.621   5.137  18.470  0.00  0.00    +0.000 A 
ATOM     14  C   UNL     1       1.304   7.764  20.111  0.00  0.00    +0.000 C 
ATOM     15  N   UNL     1       1.246   9.021  19.369  0.00  0.00    +0.000 N 
ATOM     16  C   UNL     1       2.091   9.005  18.263  0.00  0.00    +0.000 C 
ATOM     17  O   UNL     1       2.371   9.870  17.452  0.00  0.00    +0.000 OA
BRANCH  12  18
ATOM     18  C   UNL     1       2.177   4.681  20.491  0.00  0.00    +0.000 C 
ATOM     19  F   UNL     1       0.827   4.517  20.495  0.00  0.00    +0.000 F 
ATOM     20  F   UNL     1       2.705   3.432  20.375  0.00  0.00    +0.000 F 
ATOM     21  F   UNL     1       2.505   5.113  21.740  0.00  0.00    +0.000 F 
ENDBRANCH  12  18
ENDBRANCH   1  15
BRANCH   5  22
ATOM     22  C   UNL     1      -2.873  11.735  19.329  0.00  0.00    +0.000 C 
ATOM     23  N   UNL     1      -3.522  12.666  19.954  0.00  0.00    +0.000 NA
ATOM     24  N   UNL     1      -4.822  13.112  19.854  0.00  0.00    +0.000 NA
ATOM     25  C   UNL     1      -5.783  12.555  19.212  0.00  0.00    +0.000 C 
ATOM     26  N   UNL     1      -5.843  11.519  18.318  0.00  0.00    +0.000 N 
ATOM     27  C   UNL     1      -5.327  11.707  16.973  0.00  0.00    +0.000 C 
ATOM     28  C   UNL     1      -3.820  11.529  16.967  0.00  0.00    +0.000 C 
ATOM     29  C   UNL     1      -3.297  10.808  18.199  0.00  0.00    +0.000 C 
BRANCH  26  30
ATOM     30  N   UNL     1      -6.724  10.454  18.609  0.00  0.00    +0.000 NA
ATOM     31  H   UNL     1      -7.055  10.542  19.577  0.00  0.00    +0.000 HD
ATOM     32  H   UNL     1      -6.176   9.587  18.635  0.00  0.00    +0.000 HD
ENDBRANCH  26  30
ENDBRANCH   5  22
TORSDOF 4
ENDMDL
MODEL 5
REMARK VINA RESULT:      -9.0      4.185      8.860
REMARK  Name = 
REMARK  5 active torsions:
REMARK  status: ('A' for Active; 'I' for Inactive)
REMARK    1  A    between atoms: C_1  and  C_2
REMARK    2  A    between atoms: C_6  and  C_7
REMARK    3  A    between atoms: N_13  and  C_14
REMARK    4  A    between atoms: C_18  and  C_19
REMARK    5  A    between atoms: N_23  and  N_24
REMARK                            x       y       z     vdW  Elec       q    Type
REMARK                         _______ _______ _______ _____ _____    ______ ____
ROOT
ATOM      1  C   UNL     1       1.617   8.018  19.932  0.00  0.00    +0.000 A 
ATOM      2  C   UNL     1       1.819   8.099  21.320  0.00  0.00    +0.000 A 
ATOM      3  C   UNL     1       1.132   9.016  22.110  0.00  0.00    +0.000 A 
ATOM      4  C   UNL     1       0.198   9.853  21.524  0.00  0.00    +0.000 A 
ATOM      5  C   UNL     1      -0.053   9.757  20.149  0.00  0.00    +0.000 A 
ATOM      6  C   UNL     1       0.707   8.896  19.341  0.00  0.00    +0.000 A 
ENDROOT
BRANCH   1  15
ATOM      7  C   UNL     1       5.985   4.230  15.320  0.00  0.00    +0.000 C 
ATOM      8  C   UNL     1       4.977   4.496  16.399  0.00  0.00    +0.000 A 
ATOM      9  C   UNL     1       4.594   5.803  16.680  0.00  0.00    +0.000 A 
ATOM     10  C   UNL     1       3.671   5.996  17.688  0.00  0.00    +0.000 A 
ATOM     11  C   UNL     1       3.113   4.974  18.450  0.00  0.00    +0.000 A 
ATOM     12  C   UNL     1       3.457   3.656  18.167  0.00  0.00    +0.000 A 
ATOM     13  C   UNL     1       4.402   3.435  17.133  0.00  0.00    +0.000 A 
ATOM     14  C   UNL     1       2.215   5.579  19.495  0.00  0.00    +0.000 C 
ATOM     15  N   UNL     1       2.262   7.005  19.184  0.00  0.00    +0.000 N 
ATOM     16  C   UNL     1       3.138   7.274  18.135  0.00  0.00    +0.000 C 
ATOM     17  O   UNL     1       3.499   8.326  17.638  0.00  0.00    +0.000 OA
BRANCH  12  18
ATOM     18  C   UNL     1       2.870   2.477  18.897  0.00  0.00    +0.000 C 
ATOM     19  F   UNL     1       3.133   2.473  20.231  0.00  0.00    +0.000 F 
ATOM     20  F   UNL     1       1.515   2.425  18.783  0.00  0.00    +0.000 F 
ATOM     21  F   UNL     1       3.332   1.287  18.421  0.00  0.00    +0.000 F 
ENDBRANCH  12  18
ENDBRANCH   1  15
BRANCH   5  22
ATOM     22  C   UNL     1      -1.221  10.479  19.543  0.00  0.00    +0.000 C 
ATOM     23  N   UNL     1      -1.526  11.597  20.122  0.00  0.00    +0.000 NA
ATOM     24  N   UNL     1      -2.518  12.522  19.881  0.00  0.00    +0.000 NA
ATOM     25  C   UNL     1      -3.529  12.385  19.103  0.00  0.00    +0.000 C 
ATOM     26  N   UNL     1      -3.876  11.448  18.165  0.00  0.00    +0.000 N 
ATOM     27  C   UNL     1      -3.158  11.403  16.903  0.00  0.00    +0.000 C 
ATOM     28  C   UNL     1      -1.857  10.642  17.076  0.00  0.00    +0.000 C 
ATOM     29  C   UNL     1      -1.826   9.785  18.332  0.00  0.00    +0.000 C 
BRANCH  26  30
ATOM     30  N   UNL     1      -5.136  10.824  18.301  0.00  0.00    +0.000 NA
ATOM     31  H   UNL     1      -5.006   9.871  18.659  0.00  0.00    +0.000 HD
ATOM     32  H   UNL     1      -5.513  10.663  17.361  0.00  0.00    +0.000 HD
ENDBRANCH  26  30
ENDBRANCH   5  22
TORSDOF 4
ENDMDL
MODEL 6
REMARK VINA RESULT:      -9.0      1.151      1.636
REMARK  Name = 
REMARK  5 active torsions:
REMARK  status: ('A' for Active; 'I' for Inactive)
REMARK    1  A    between atoms: C_1  and  C_2
REMARK    2  A    between atoms: C_6  and  C_7
REMARK    3  A    between atoms: N_13  and  C_14
REMARK    4  A    between atoms: C_18  and  C_19
REMARK    5  A    between atoms: N_23  and  N_24
REMARK                            x       y       z     vdW  Elec       q    Type
REMARK                         _______ _______ _______ _____ _____    ______ ____
ROOT
ATOM      1  C   UNL     1       1.733   7.645  19.767  0.00  0.00    +0.000 A 
ATOM      2  C   UNL     1       1.437   6.682  20.746  0.00  0.00    +0.000 A 
ATOM      3  C   UNL     1       1.948   5.389  20.683  0.00  0.00    +0.000 A 
ATOM      4  C   UNL     1       2.800   5.046  19.646  0.00  0.00    +0.000 A 
ATOM      5  C   UNL     1       3.145   6.004  18.685  0.00  0.00    +0.000 A 
ATOM      6  C   UNL     1       2.554   7.279  18.701  0.00  0.00    +0.000 A 
ENDROOT
BRANCH   1  15
ATOM      7  C   UNL     1      -0.206  14.704  18.712  0.00  0.00    +0.000 C 
ATOM      8  C   UNL     1      -0.053  13.377  19.394  0.00  0.00    +0.000 A 
ATOM      9  C   UNL     1       0.647  12.354  18.766  0.00  0.00    +0.000 A 
ATOM     10  C   UNL     1       0.752  11.149  19.430  0.00  0.00    +0.000 A 
ATOM     11  C   UNL     1       0.190  10.885  20.675  0.00  0.00    +0.000 A 
ATOM     12  C   UNL     1      -0.490  11.903  21.338  0.00  0.00    +0.000 A 
ATOM     13  C   UNL     1      -0.606  13.151  20.674  0.00  0.00    +0.000 A 
ATOM     14  C   UNL     1       0.449   9.447  21.035  0.00  0.00    +0.000 C 
ATOM     15  N   UNL     1       1.272   8.975  19.924  0.00  0.00    +0.000 N 
ATOM     16  C   UNL     1       1.440   9.958  18.953  0.00  0.00    +0.000 C 
ATOM     17  O   UNL     1       1.990   9.930  17.866  0.00  0.00    +0.000 OA
BRANCH  12  18
ATOM     18  C   UNL     1      -1.088  11.736  22.710  0.00  0.00    +0.000 C 
ATOM     19  F   UNL     1      -0.549  10.710  23.421  0.00  0.00    +0.000 F 
ATOM     20  F   UNL     1      -0.927  12.849  23.478  0.00  0.00    +0.000 F 
ATOM     21  F   UNL     1      -2.428  11.501  22.669  0.00  0.00    +0.000 F 
ENDBRANCH  12  18
ENDBRANCH   1  15
BRANCH   5  22
ATOM     22  C   UNL     1       4.244   5.725  17.701  0.00  0.00    +0.000 C 
ATOM     23  N   UNL     1       4.365   6.608  16.761  0.00  0.00    +0.000 NA
ATOM     24  N   UNL     1       5.219   6.699  15.684  0.00  0.00    +0.000 NA
ATOM     25  C   UNL     1       6.009   5.788  15.245  0.00  0.00    +0.000 C 
ATOM     26  N   UNL     1       6.410   4.572  15.734  0.00  0.00    +0.000 N 
ATOM     27  C   UNL     1       7.316   4.524  16.869  0.00  0.00    +0.000 C 
ATOM     28  C   UNL     1       6.539   4.705  18.159  0.00  0.00    +0.000 C 
ATOM     29  C   UNL     1       5.046   4.467  17.999  0.00  0.00    +0.000 C 
BRANCH  26  30
ATOM     30  N   UNL     1       6.233   3.444  14.904  0.00  0.00    +0.000 NA
ATOM     31  H   UNL     1       5.261   3.412  14.576  0.00  0.00    +0.000 HD
ATOM     32  H   UNL     1       6.303   2.605  15.489  0.00  0.00    +0.000 HD
ENDBRANCH  26  30
ENDBRANCH   5  22
TORSDOF 4
ENDMDL
MODEL 7
REMARK VINA RESULT:      -8.9      4.399      9.012
REMARK  Name = 
REMARK  5 active torsions:
REMARK  status: ('A' for Active; 'I' for Inactive)
REMARK    1  A    between atoms: C_1  and  C_2
REMARK    2  A    between atoms: C_6  and  C_7
REMARK    3  A    between atoms: N_13  and  C_14
REMARK    4  A    between atoms: C_18  and  C_19
REMARK    5  A    between atoms: N_23  and  N_24
REMARK                            x       y       z     vdW  Elec       q    Type
REMARK                         _______ _______ _______ _____ _____    ______ ____
ROOT
ATOM      1  C   UNL     1       1.505   8.317  20.264  0.00  0.00    +0.000 A 
ATOM      2  C   UNL     1       1.688   8.514  21.644  0.00  0.00    +0.000 A 
ATOM      3  C   UNL     1       0.967   9.473  22.349  0.00  0.00    +0.000 A 
ATOM      4  C   UNL     1       0.018  10.234  21.687  0.00  0.00    +0.000 A 
ATOM      5  C   UNL     1      -0.213  10.021  20.322  0.00  0.00    +0.000 A 
ATOM      6  C   UNL     1       0.581   9.118  19.594  0.00  0.00    +0.000 A 
ENDROOT
BRANCH   1  15
ATOM      7  C   UNL     1       3.771   1.730  17.776  0.00  0.00    +0.000 C 
ATOM      8  C   UNL     1       3.667   3.221  17.910  0.00  0.00    +0.000 A 
ATOM      9  C   UNL     1       2.842   3.772  18.884  0.00  0.00    +0.000 A 
ATOM     10  C   UNL     1       2.774   5.148  18.961  0.00  0.00    +0.000 A 
ATOM     11  C   UNL     1       3.459   6.018  18.119  0.00  0.00    +0.000 A 
ATOM     12  C   UNL     1       4.315   5.491  17.156  0.00  0.00    +0.000 A 
ATOM     13  C   UNL     1       4.403   4.079  17.062  0.00  0.00    +0.000 A 
ATOM     14  C   UNL     1       3.072   7.432  18.457  0.00  0.00    +0.000 C 
ATOM     15  N   UNL     1       2.187   7.264  19.607  0.00  0.00    +0.000 N 
ATOM     16  C   UNL     1       1.978   5.920  19.903  0.00  0.00    +0.000 C 
ATOM     17  O   UNL     1       1.262   5.380  20.728  0.00  0.00    +0.000 OA
BRANCH  12  18
ATOM     18  C   UNL     1       5.141   6.347  16.232  0.00  0.00    +0.000 C 
ATOM     19  F   UNL     1       4.409   7.226  15.498  0.00  0.00    +0.000 F 
ATOM     20  F   UNL     1       6.056   7.095  16.908  0.00  0.00    +0.000 F 
ATOM     21  F   UNL     1       5.851   5.609  15.334  0.00  0.00    +0.000 F 
ENDBRANCH  12  18
ENDBRANCH   1  15
BRANCH   5  22
ATOM     22  C   UNL     1      -1.392  10.659  19.646  0.00  0.00    +0.000 C 
ATOM     23  N   UNL     1      -1.793  11.764  20.190  0.00  0.00    +0.000 NA
ATOM     24  N   UNL     1      -2.828  12.621  19.885  0.00  0.00    +0.000 NA
ATOM     25  C   UNL     1      -3.789  12.410  19.061  0.00  0.00    +0.000 C 
ATOM     26  N   UNL     1      -4.030  11.439  18.124  0.00  0.00    +0.000 N 
ATOM     27  C   UNL     1      -3.248  11.420  16.900  0.00  0.00    +0.000 C 
ATOM     28  C   UNL     1      -1.913  10.745  17.149  0.00  0.00    +0.000 C 
ATOM     29  C   UNL     1      -1.891   9.910  18.420  0.00  0.00    +0.000 C 
BRANCH  26  30
ATOM     30  N   UNL     1      -5.254  10.739  18.210  0.00  0.00    +0.000 NA
ATOM     31  H   UNL     1      -5.154   9.825  17.753  0.00  0.00    +0.000 HD
ATOM     32  H   UNL     1      -5.936  11.218  17.613  0.00  0.00    +0.000 HD
ENDBRANCH  26  30
ENDBRANCH   5  22
TORSDOF 4
ENDMDL
MODEL 8
REMARK VINA RESULT:      -8.9      3.090      4.331
REMARK  Name = 
REMARK  5 active torsions:
REMARK  status: ('A' for Active; 'I' for Inactive)
REMARK    1  A    between atoms: C_1  and  C_2
REMARK    2  A    between atoms: C_6  and  C_7
REMARK    3  A    between atoms: N_13  and  C_14
REMARK    4  A    between atoms: C_18  and  C_19
REMARK    5  A    between atoms: N_23  and  N_24
REMARK                            x       y       z     vdW  Elec       q    Type
REMARK                         _______ _______ _______ _____ _____    ______ ____
ROOT
ATOM      1  C   UNL     1       1.615   8.895  18.955  0.00  0.00    +0.000 A 
ATOM      2  C   UNL     1       2.403   9.327  17.874  0.00  0.00    +0.000 A 
ATOM      3  C   UNL     1       3.396   8.523  17.322  0.00  0.00    +0.000 A 
ATOM      4  C   UNL     1       3.596   7.249  17.825  0.00  0.00    +0.000 A 
ATOM      5  C   UNL     1       2.790   6.780  18.870  0.00  0.00    +0.000 A 
ATOM      6  C   UNL     1       1.853   7.627  19.486  0.00  0.00    +0.000 A 
ENDROOT
BRANCH   1  15
ATOM      7  C   UNL     1      -2.660  13.578  22.762  0.00  0.00    +0.000 C 
ATOM      8  C   UNL     1      -2.212  12.668  21.657  0.00  0.00    +0.000 A 
ATOM      9  C   UNL     1      -1.014  11.972  21.777  0.00  0.00    +0.000 A 
ATOM     10  C   UNL     1      -0.641  11.155  20.730  0.00  0.00    +0.000 A 
ATOM     11  C   UNL     1      -1.373  10.995  19.557  0.00  0.00    +0.000 A 
ATOM     12  C   UNL     1      -2.590  11.657  19.426  0.00  0.00    +0.000 A 
ATOM     13  C   UNL     1      -2.994  12.499  20.493  0.00  0.00    +0.000 A 
ATOM     14  C   UNL     1      -0.612  10.092  18.625  0.00  0.00    +0.000 C 
ATOM     15  N   UNL     1       0.551   9.705  19.419  0.00  0.00    +0.000 N 
ATOM     16  C   UNL     1       0.565  10.344  20.656  0.00  0.00    +0.000 C 
ATOM     17  O   UNL     1       1.387  10.339  21.555  0.00  0.00    +0.000 OA
BRANCH  12  18
ATOM     18  C   UNL     1      -3.482  11.509  18.222  0.00  0.00    +0.000 C 
ATOM     19  F   UNL     1      -4.611  12.266  18.281  0.00  0.00    +0.000 F 
ATOM     20  F   UNL     1      -2.852  11.868  17.069  0.00  0.00    +0.000 F 
ATOM     21  F   UNL     1      -3.900  10.227  18.037  0.00  0.00    +0.000 F 
ENDBRANCH  12  18
ENDBRANCH   1  15
BRANCH   5  22
ATOM     22  C   UNL     1       2.828   5.332  19.263  0.00  0.00    +0.000 C 
ATOM     23  N   UNL     1       4.013   4.809  19.286  0.00  0.00    +0.000 NA
ATOM     24  N   UNL     1       4.456   3.536  19.571  0.00  0.00    +0.000 NA
ATOM     25  C   UNL     1       3.739   2.481  19.709  0.00  0.00    +0.000 C 
ATOM     26  N   UNL     1       2.389   2.266  19.807  0.00  0.00    +0.000 N 
ATOM     27  C   UNL     1       1.691   2.651  21.021  0.00  0.00    +0.000 C 
ATOM     28  C   UNL     1       1.379   4.135  20.990  0.00  0.00    +0.000 C 
ATOM     29  C   UNL     1       1.468   4.738  19.597  0.00  0.00    +0.000 C 
BRANCH  26  30
ATOM     30  N   UNL     1       1.805   1.357  18.897  0.00  0.00    +0.000 NA
ATOM     31  H   UNL     1       1.287   0.641  19.419  0.00  0.00    +0.000 HD
ATOM     32  H   UNL     1       2.559   0.818  18.459  0.00  0.00    +0.000 HD
ENDBRANCH  26  30
ENDBRANCH   5  22
TORSDOF 4
ENDMDL
MODEL 9
REMARK VINA RESULT:      -8.8      4.062      8.461
REMARK  Name = 
REMARK  5 active torsions:
REMARK  status: ('A' for Active; 'I' for Inactive)
REMARK    1  A    between atoms: C_1  and  C_2
REMARK    2  A    between atoms: C_6  and  C_7
REMARK    3  A    between atoms: N_13  and  C_14
REMARK    4  A    between atoms: C_18  and  C_19
REMARK    5  A    between atoms: N_23  and  N_24
REMARK                            x       y       z     vdW  Elec       q    Type
REMARK                         _______ _______ _______ _____ _____    ______ ____
ROOT
ATOM      1  C   UNL     1       1.439   7.953  20.415  0.00  0.00    +0.000 A 
ATOM      2  C   UNL     1       0.434   7.552  21.311  0.00  0.00    +0.000 A 
ATOM      3  C   UNL     1      -0.320   8.475  22.030  0.00  0.00    +0.000 A 
ATOM      4  C   UNL     1      -0.101   9.829  21.836  0.00  0.00    +0.000 A 
ATOM      5  C   UNL     1       0.864  10.251  20.913  0.00  0.00    +0.000 A 
ATOM      6  C   UNL     1       1.686   9.317  20.260  0.00  0.00    +0.000 A 
ENDROOT
BRANCH   1  15
ATOM      7  C   UNL     1       5.690   4.467  15.468  0.00  0.00    +0.000 C 
ATOM      8  C   UNL     1       4.781   4.668  16.644  0.00  0.00    +0.000 A 
ATOM      9  C   UNL     1       4.283   5.936  16.923  0.00  0.00    +0.000 A 
ATOM     10  C   UNL     1       3.458   6.071  18.021  0.00  0.00    +0.000 A 
ATOM     11  C   UNL     1       3.106   5.029  18.874  0.00  0.00    +0.000 A 
ATOM     12  C   UNL     1       3.567   3.746  18.598  0.00  0.00    +0.000 A 
ATOM     13  C   UNL     1       4.414   3.584  17.472  0.00  0.00    +0.000 A 
ATOM     14  C   UNL     1       2.263   5.577  19.994  0.00  0.00    +0.000 C 
ATOM     15  N   UNL     1       2.112   6.985  19.633  0.00  0.00    +0.000 N 
ATOM     16  C   UNL     1       2.833   7.301  18.484  0.00  0.00    +0.000 C 
ATOM     17  O   UNL     1       3.015   8.363  17.916  0.00  0.00    +0.000 OA
BRANCH  12  18
ATOM     18  C   UNL     1       3.202   2.543  19.427  0.00  0.00    +0.000 C 
ATOM     19  F   UNL     1       1.863   2.384  19.601  0.00  0.00    +0.000 F 
ATOM     20  F   UNL     1       3.646   1.382  18.871  0.00  0.00    +0.000 F 
ATOM     21  F   UNL     1       3.740   2.589  20.677  0.00  0.00    +0.000 F 
ENDBRANCH  12  18
ENDBRANCH   1  15
BRANCH   5  22
ATOM     22  C   UNL     1       0.948  11.696  20.516  0.00  0.00    +0.000 C 
ATOM     23  N   UNL     1       1.059  12.524  21.506  0.00  0.00    +0.000 NA
ATOM     24  N   UNL     1       1.144  13.898  21.557  0.00  0.00    +0.000 NA
ATOM     25  C   UNL     1       0.938  14.721  20.594  0.00  0.00    +0.000 C 
ATOM     26  N   UNL     1       0.761  14.566  19.243  0.00  0.00    +0.000 N 
ATOM     27  C   UNL     1       1.895  14.197  18.414  0.00  0.00    +0.000 C 
ATOM     28  C   UNL     1       2.121  12.699  18.482  0.00  0.00    +0.000 C 
ATOM     29  C   UNL     1       0.919  11.935  19.014  0.00  0.00    +0.000 C 
BRANCH  26  30
ATOM     30  N   UNL     1      -0.402  15.124  18.669  0.00  0.00    +0.000 NA
ATOM     31  H   UNL     1      -0.652  14.594  17.826  0.00  0.00    +0.000 HD
ATOM     32  H   UNL     1      -0.158  16.046  18.293  0.00  0.00    +0.000 HD
ENDBRANCH  26  30
ENDBRANCH   5  22
TORSDOF 4
ENDMDL
