MODEL 1
REMARK VINA RESULT:      -9.9      0.000      0.000
REMARK  Name = 
REMARK  10 active torsions:
REMARK  status: ('A' for Active; 'I' for Inactive)
REMARK    1  A    between atoms: C_1  and  C_2
REMARK    2  A    between atoms: C_4  and  N_5
REMARK    3  A    between atoms: N_5  and  S_6
REMARK    4  A    between atoms: S_6  and  C_9
REMARK    5  A    between atoms: C_12  and  N_13
REMARK    6  A    between atoms: C_14  and  C_16
REMARK    7  A    between atoms: C_16  and  C_17
REMARK    8  A    between atoms: C_20  and  C_21
REMARK    9  A    between atoms: C_22  and  C_23
REMARK   10  A    between atoms: C_28  and  C_29
REMARK                            x       y       z     vdW  Elec       q    Type
REMARK                         _______ _______ _______ _____ _____    ______ ____
ROOT
ATOM      1  C   UNL     1       3.259   5.094  19.085  0.00  0.00    +0.000 A 
ATOM      2  C   UNL     1       3.237   6.073  18.094  0.00  0.00    +0.000 A 
ATOM      3  C   UNL     1       2.614   7.301  18.342  0.00  0.00    +0.000 A 
ATOM      4  C   UNL     1       1.983   7.567  19.558  0.00  0.00    +0.000 A 
ATOM      5  C   UNL     1       2.033   6.586  20.560  0.00  0.00    +0.000 A 
ATOM      6  C   UNL     1       2.658   5.343  20.321  0.00  0.00    +0.000 A 
ENDROOT
BRANCH   4   7
ATOM      7  N   UNL     1       1.270   8.770  19.794  0.00  0.00    +0.000 N 
ATOM      8  C   UNL     1       1.261   9.875  18.939  0.00  0.00    +0.000 C 
ATOM      9  O   UNL     1       1.842   9.944  17.854  0.00  0.00    +0.000 OA
ATOM     10  H   UNL     1       0.600   8.773  20.551  0.00  0.00    +0.000 HD
BRANCH   8  11
ATOM     11  C   UNL     1       0.416  11.049  19.403  0.00  0.00    +0.000 C 
BRANCH  11  12
ATOM     12  C   UNL     1      -0.983  11.093  18.828  0.00  0.00    +0.000 A 
ATOM     13  C   UNL     1      -1.970  11.845  19.474  0.00  0.00    +0.000 A 
ATOM     14  C   UNL     1      -3.266  11.918  18.955  0.00  0.00    +0.000 A 
ATOM     15  C   UNL     1      -3.614  11.237  17.779  0.00  0.00    +0.000 A 
ATOM     16  C   UNL     1      -5.027  11.324  17.271  0.00  0.00    +0.000 C 
ATOM     17  C   UNL     1      -2.632  10.483  17.114  0.00  0.00    +0.000 A 
ATOM     18  C   UNL     1      -2.908   9.667  15.880  0.00  0.00    +0.000 C 
ATOM     19  C   UNL     1      -1.321  10.454  17.627  0.00  0.00    +0.000 A 
ENDBRANCH  11  12
ENDBRANCH   8  11
ENDBRANCH   4   7
BRANCH   1  20
ATOM     20  S   UNL     1       3.916   3.489  18.656  0.00  0.00    +0.000 S 
ATOM     21  O   UNL     1       3.598   3.257  17.266  0.00  0.00    +0.000 OA
ATOM     22  O   UNL     1       3.497   2.550  19.681  0.00  0.00    +0.000 OA
BRANCH  20  23
ATOM     23  N   UNL     1       5.585   3.660  18.726  0.00  0.00    +0.000 N 
ATOM     24  H   UNL     1       6.062   2.757  18.727  0.00  0.00    +0.000 HD
BRANCH  23  28
ATOM     25  C   UNL     1       7.953   7.876  17.904  0.00  0.00    +0.000 C 
ATOM     26  C   UNL     1       7.297   6.600  17.471  0.00  0.00    +0.000 A 
ATOM     27  C   UNL     1       6.675   5.779  18.380  0.00  0.00    +0.000 A 
ATOM     28  C   UNL     1       6.173   4.605  17.871  0.00  0.00    +0.000 A 
ATOM     29  N   UNL     1       6.228   4.235  16.588  0.00  0.00    +0.000 NA
ATOM     30  C   UNL     1       6.828   5.118  15.768  0.00  0.00    +0.000 A 
ATOM     31  C   UNL     1       6.914   4.785  14.308  0.00  0.00    +0.000 C 
ATOM     32  N   UNL     1       7.373   6.285  16.161  0.00  0.00    +0.000 NA
ENDBRANCH  23  28
ENDBRANCH  20  23
ENDBRANCH   1  20
TORSDOF 6
ENDMDL
MODEL 2
REMARK VINA RESULT:      -9.9      0.531      1.537
REMARK  Name = 
REMARK  10 active torsions:
REMARK  status: ('A' for Active; 'I' for Inactive)
REMARK    1  A    between atoms: C_1  and  C_2
REMARK    2  A    between atoms: C_4  and  N_5
REMARK    3  A    between atoms: N_5  and  S_6
REMARK    4  A    between atoms: S_6  and  C_9
REMARK    5  A    between atoms: C_12  and  N_13
REMARK    6  A    between atoms: C_14  and  C_16
REMARK    7  A    between atoms: C_16  and  C_17
REMARK    8  A    between atoms: C_20  and  C_21
REMARK    9  A    between atoms: C_22  and  C_23
REMARK   10  A    between atoms: C_28  and  C_29
REMARK                            x       y       z     vdW  Elec       q    Type
REMARK                         _______ _______ _______ _____ _____    ______ ____
ROOT
ATOM      1  C   UNL     1       3.210   5.254  18.930  0.00  0.00    +0.000 A 
ATOM      2  C   UNL     1       3.147   6.174  17.886  0.00  0.00    +0.000 A 
ATOM      3  C   UNL     1       2.543   7.418  18.090  0.00  0.00    +0.000 A 
ATOM      4  C   UNL     1       1.971   7.760  19.317  0.00  0.00    +0.000 A 
ATOM      5  C   UNL     1       2.062   6.837  20.372  0.00  0.00    +0.000 A 
ATOM      6  C   UNL     1       2.669   5.578  20.176  0.00  0.00    +0.000 A 
ENDROOT
BRANCH   4   7
ATOM      7  N   UNL     1       1.276   8.980  19.517  0.00  0.00    +0.000 N 
ATOM      8  C   UNL     1       1.381  10.103  18.692  0.00  0.00    +0.000 C 
ATOM      9  O   UNL     1       2.062  10.176  17.668  0.00  0.00    +0.000 OA
ATOM     10  H   UNL     1       0.538   8.987  20.208  0.00  0.00    +0.000 HD
BRANCH   8  11
ATOM     11  C   UNL     1       0.532  11.293  19.106  0.00  0.00    +0.000 C 
BRANCH  11  12
ATOM     12  C   UNL     1      -0.908  11.241  18.642  0.00  0.00    +0.000 A 
ATOM     13  C   UNL     1      -1.892  11.913  19.374  0.00  0.00    +0.000 A 
ATOM     14  C   UNL     1      -3.227  11.896  18.958  0.00  0.00    +0.000 A 
ATOM     15  C   UNL     1      -3.617  11.203  17.803  0.00  0.00    +0.000 A 
ATOM     16  C   UNL     1      -5.067  11.191  17.408  0.00  0.00    +0.000 C 
ATOM     17  C   UNL     1      -2.638  10.528  17.052  0.00  0.00    +0.000 A 
ATOM     18  C   UNL     1      -2.951   9.706  15.832  0.00  0.00    +0.000 C 
ATOM     19  C   UNL     1      -1.292  10.590  17.461  0.00  0.00    +0.000 A 
ENDBRANCH  11  12
ENDBRANCH   8  11
ENDBRANCH   4   7
BRANCH   1  20
ATOM     20  S   UNL     1       3.837   3.621  18.564  0.00  0.00    +0.000 S 
ATOM     21  O   UNL     1       3.573   3.367  17.167  0.00  0.00    +0.000 OA
ATOM     22  O   UNL     1       3.348   2.717  19.590  0.00  0.00    +0.000 OA
BRANCH  20  23
ATOM     23  N   UNL     1       5.506   3.746  18.703  0.00  0.00    +0.000 N 
ATOM     24  H   UNL     1       5.948   2.837  18.850  0.00  0.00    +0.000 HD
BRANCH  23  28
ATOM     25  C   UNL     1       6.951   4.771  14.129  0.00  0.00    +0.000 C 
ATOM     26  C   UNL     1       6.862   5.044  15.600  0.00  0.00    +0.000 A 
ATOM     27  C   UNL     1       6.255   4.152  16.451  0.00  0.00    +0.000 A 
ATOM     28  C   UNL     1       6.173   4.548  17.764  0.00  0.00    +0.000 A 
ATOM     29  N   UNL     1       6.653   5.696  18.253  0.00  0.00    +0.000 NA
ATOM     30  C   UNL     1       7.259   6.490  17.351  0.00  0.00    +0.000 A 
ATOM     31  C   UNL     1       7.840   7.788  17.826  0.00  0.00    +0.000 C 
ATOM     32  N   UNL     1       7.374   6.212  16.039  0.00  0.00    +0.000 NA
ENDBRANCH  23  28
ENDBRANCH  20  23
ENDBRANCH   1  20
TORSDOF 6
ENDMDL
MODEL 3
REMARK VINA RESULT:      -9.9      0.964      1.940
REMARK  Name = 
REMARK  10 active torsions:
REMARK  status: ('A' for Active; 'I' for Inactive)
REMARK    1  A    between atoms: C_1  and  C_2
REMARK    2  A    between atoms: C_4  and  N_5
REMARK    3  A    between atoms: N_5  and  S_6
REMARK    4  A    between atoms: S_6  and  C_9
REMARK    5  A    between atoms: C_12  and  N_13
REMARK    6  A    between atoms: C_14  and  C_16
REMARK    7  A    between atoms: C_16  and  C_17
REMARK    8  A    between atoms: C_20  and  C_21
REMARK    9  A    between atoms: C_22  and  C_23
REMARK   10  A    between atoms: C_28  and  C_29
REMARK                            x       y       z     vdW  Elec       q    Type
REMARK                         _______ _______ _______ _____ _____    ______ ____
ROOT
ATOM      1  C   UNL     1       3.370   5.040  18.931  0.00  0.00    +0.000 A 
ATOM      2  C   UNL     1       2.744   5.472  20.098  0.00  0.00    +0.000 A 
ATOM      3  C   UNL     1       2.139   6.732  20.138  0.00  0.00    +0.000 A 
ATOM      4  C   UNL     1       2.166   7.590  19.037  0.00  0.00    +0.000 A 
ATOM      5  C   UNL     1       2.775   7.136  17.857  0.00  0.00    +0.000 A 
ATOM      6  C   UNL     1       3.389   5.867  17.806  0.00  0.00    +0.000 A 
ENDROOT
BRANCH   4   7
ATOM      7  N   UNL     1       1.636   8.905  19.088  0.00  0.00    +0.000 N 
ATOM      8  C   UNL     1       0.861   9.414  20.133  0.00  0.00    +0.000 C 
ATOM      9  O   UNL     1       0.559   8.806  21.161  0.00  0.00    +0.000 OA
ATOM     10  H   UNL     1       1.969   9.567  18.401  0.00  0.00    +0.000 HD
BRANCH   8  11
ATOM     11  C   UNL     1       0.413  10.856  19.965  0.00  0.00    +0.000 C 
BRANCH  11  12
ATOM     12  C   UNL     1      -0.911  11.033  19.254  0.00  0.00    +0.000 A 
ATOM     13  C   UNL     1      -1.876  11.888  19.797  0.00  0.00    +0.000 A 
ATOM     14  C   UNL     1      -3.101  12.084  19.152  0.00  0.00    +0.000 A 
ATOM     15  C   UNL     1      -3.398  11.427  17.949  0.00  0.00    +0.000 A 
ATOM     16  C   UNL     1      -4.738  11.648  17.303  0.00  0.00    +0.000 C 
ATOM     17  C   UNL     1      -2.436  10.569  17.386  0.00  0.00    +0.000 A 
ATOM     18  C   UNL     1      -2.670   9.769  16.134  0.00  0.00    +0.000 C 
ATOM     19  C   UNL     1      -1.192  10.415  18.027  0.00  0.00    +0.000 A 
ENDBRANCH  11  12
ENDBRANCH   8  11
ENDBRANCH   4   7
BRANCH   1  20
ATOM     20  S   UNL     1       4.272   3.498  18.991  0.00  0.00    +0.000 S 
ATOM     21  O   UNL     1       4.118   2.865  17.701  0.00  0.00    +0.000 OA
ATOM     22  O   UNL     1       3.889   2.807  20.209  0.00  0.00    +0.000 OA
BRANCH  20  23
ATOM     23  N   UNL     1       5.889   3.936  19.100  0.00  0.00    +0.000 N 
ATOM     24  H   UNL     1       6.481   3.149  19.373  0.00  0.00    +0.000 HD
BRANCH  23  28
ATOM     25  C   UNL     1       6.934   4.665  14.363  0.00  0.00    +0.000 C 
ATOM     26  C   UNL     1       6.921   5.058  15.810  0.00  0.00    +0.000 A 
ATOM     27  C   UNL     1       6.449   4.200  16.773  0.00  0.00    +0.000 A 
ATOM     28  C   UNL     1       6.423   4.702  18.052  0.00  0.00    +0.000 A 
ATOM     29  N   UNL     1       6.837   5.921  18.410  0.00  0.00    +0.000 NA
ATOM     30  C   UNL     1       7.312   6.678  17.404  0.00  0.00    +0.000 A 
ATOM     31  C   UNL     1       7.814   8.054  17.726  0.00  0.00    +0.000 C 
ATOM     32  N   UNL     1       7.363   6.296  16.113  0.00  0.00    +0.000 NA
ENDBRANCH  23  28
ENDBRANCH  20  23
ENDBRANCH   1  20
TORSDOF 6
ENDMDL
MODEL 4
REMARK VINA RESULT:      -9.8      0.422      1.312
REMARK  Name = 
REMARK  10 active torsions:
REMARK  status: ('A' for Active; 'I' for Inactive)
REMARK    1  A    between atoms: C_1  and  C_2
REMARK    2  A    between atoms: C_4  and  N_5
REMARK    3  A    between atoms: N_5  and  S_6
REMARK    4  A    between atoms: S_6  and  C_9
REMARK    5  A    between atoms: C_12  and  N_13
REMARK    6  A    between atoms: C_14  and  C_16
REMARK    7  A    between atoms: C_16  and  C_17
REMARK    8  A    between atoms: C_20  and  C_21
REMARK    9  A    between atoms: C_22  and  C_23
REMARK   10  A    between atoms: C_28  and  C_29
REMARK                            x       y       z     vdW  Elec       q    Type
REMARK                         _______ _______ _______ _____ _____    ______ ____
ROOT
ATOM      1  C   UNL     1       3.215   5.168  18.960  0.00  0.00    +0.000 A 
ATOM      2  C   UNL     1       3.042   5.993  17.851  0.00  0.00    +0.000 A 
ATOM      3  C   UNL     1       2.458   7.254  18.006  0.00  0.00    +0.000 A 
ATOM      4  C   UNL     1       2.014   7.705  19.250  0.00  0.00    +0.000 A 
ATOM      5  C   UNL     1       2.216   6.878  20.367  0.00  0.00    +0.000 A 
ATOM      6  C   UNL     1       2.803   5.603  20.221  0.00  0.00    +0.000 A 
ENDROOT
BRANCH   4   7
ATOM      7  N   UNL     1       1.339   8.942  19.412  0.00  0.00    +0.000 N 
ATOM      8  C   UNL     1       1.449  10.032  18.543  0.00  0.00    +0.000 C 
ATOM      9  O   UNL     1       2.118  10.056  17.509  0.00  0.00    +0.000 OA
ATOM     10  H   UNL     1       0.611   8.987  20.111  0.00  0.00    +0.000 HD
BRANCH   8  11
ATOM     11  C   UNL     1       0.622  11.249  18.922  0.00  0.00    +0.000 C 
BRANCH  11  12
ATOM     12  C   UNL     1      -0.856  11.135  18.618  0.00  0.00    +0.000 A 
ATOM     13  C   UNL     1      -1.291  10.239  17.636  0.00  0.00    +0.000 A 
ATOM     14  C   UNL     1      -2.652  10.101  17.349  0.00  0.00    +0.000 A 
ATOM     15  C   UNL     1      -3.616  10.859  18.029  0.00  0.00    +0.000 A 
ATOM     16  C   UNL     1      -5.067  10.696  17.668  0.00  0.00    +0.000 C 
ATOM     17  C   UNL     1      -3.196  11.759  19.023  0.00  0.00    +0.000 A 
ATOM     18  C   UNL     1      -4.136  12.664  19.774  0.00  0.00    +0.000 C 
ATOM     19  C   UNL     1      -1.825  11.856  19.331  0.00  0.00    +0.000 A 
ENDBRANCH  11  12
ENDBRANCH   8  11
ENDBRANCH   4   7
BRANCH   1  20
ATOM     20  S   UNL     1       3.807   3.506  18.677  0.00  0.00    +0.000 S 
ATOM     21  O   UNL     1       3.501   3.173  17.305  0.00  0.00    +0.000 OA
ATOM     22  O   UNL     1       3.332   2.674  19.768  0.00  0.00    +0.000 OA
BRANCH  20  23
ATOM     23  N   UNL     1       5.481   3.611  18.764  0.00  0.00    +0.000 N 
ATOM     24  H   UNL     1       5.923   2.690  18.753  0.00  0.00    +0.000 HD
BRANCH  23  28
ATOM     25  C   UNL     1       8.016   7.747  18.038  0.00  0.00    +0.000 C 
ATOM     26  C   UNL     1       7.315   6.505  17.576  0.00  0.00    +0.000 A 
ATOM     27  C   UNL     1       6.654   5.692  18.466  0.00  0.00    +0.000 A 
ATOM     28  C   UNL     1       6.113   4.547  17.931  0.00  0.00    +0.000 A 
ATOM     29  N   UNL     1       6.167   4.198  16.642  0.00  0.00    +0.000 NA
ATOM     30  C   UNL     1       6.807   5.071  15.843  0.00  0.00    +0.000 A 
ATOM     31  C   UNL     1       6.894   4.761  14.378  0.00  0.00    +0.000 C 
ATOM     32  N   UNL     1       7.392   6.210  16.263  0.00  0.00    +0.000 NA
ENDBRANCH  23  28
ENDBRANCH  20  23
ENDBRANCH   1  20
TORSDOF 6
ENDMDL
MODEL 5
REMARK VINA RESULT:      -9.8      0.618      2.007
REMARK  Name = 
REMARK  10 active torsions:
REMARK  status: ('A' for Active; 'I' for Inactive)
REMARK    1  A    between atoms: C_1  and  C_2
REMARK    2  A    between atoms: C_4  and  N_5
REMARK    3  A    between atoms: N_5  and  S_6
REMARK    4  A    between atoms: S_6  and  C_9
REMARK    5  A    between atoms: C_12  and  N_13
REMARK    6  A    between atoms: C_14  and  C_16
REMARK    7  A    between atoms: C_16  and  C_17
REMARK    8  A    between atoms: C_20  and  C_21
REMARK    9  A    between atoms: C_22  and  C_23
REMARK   10  A    between atoms: C_28  and  C_29
REMARK                            x       y       z     vdW  Elec       q    Type
REMARK                         _______ _______ _______ _____ _____    ______ ____
ROOT
ATOM      1  C   UNL     1       3.282   5.175  18.969  0.00  0.00    +0.000 A 
ATOM      2  C   UNL     1       3.307   6.111  17.937  0.00  0.00    +0.000 A 
ATOM      3  C   UNL     1       2.717   7.365  18.120  0.00  0.00    +0.000 A 
ATOM      4  C   UNL     1       2.072   7.702  19.312  0.00  0.00    +0.000 A 
ATOM      5  C   UNL     1       2.075   6.764  20.356  0.00  0.00    +0.000 A 
ATOM      6  C   UNL     1       2.667   5.495  20.181  0.00  0.00    +0.000 A 
ENDROOT
BRANCH   4   7
ATOM      7  N   UNL     1       1.391   8.934  19.483  0.00  0.00    +0.000 N 
ATOM      8  C   UNL     1       1.392   9.983  18.560  0.00  0.00    +0.000 C 
ATOM      9  O   UNL     1       1.955   9.969  17.464  0.00  0.00    +0.000 OA
ATOM     10  H   UNL     1       0.735   9.000  20.249  0.00  0.00    +0.000 HD
BRANCH   8  11
ATOM     11  C   UNL     1       0.582  11.203  18.963  0.00  0.00    +0.000 C 
BRANCH  11  12
ATOM     12  C   UNL     1      -0.896  11.119  18.650  0.00  0.00    +0.000 A 
ATOM     13  C   UNL     1      -1.340  10.245  17.652  0.00  0.00    +0.000 A 
ATOM     14  C   UNL     1      -2.702  10.135  17.355  0.00  0.00    +0.000 A 
ATOM     15  C   UNL     1      -3.658  10.898  18.042  0.00  0.00    +0.000 A 
ATOM     16  C   UNL     1      -5.109  10.765  17.672  0.00  0.00    +0.000 C 
ATOM     17  C   UNL     1      -3.228  11.776  19.053  0.00  0.00    +0.000 A 
ATOM     18  C   UNL     1      -4.156  12.684  19.812  0.00  0.00    +0.000 C 
ATOM     19  C   UNL     1      -1.857  11.845  19.368  0.00  0.00    +0.000 A 
ENDBRANCH  11  12
ENDBRANCH   8  11
ENDBRANCH   4   7
BRANCH   1  20
ATOM     20  S   UNL     1       3.898   3.535  18.621  0.00  0.00    +0.000 S 
ATOM     21  O   UNL     1       3.600   3.253  17.236  0.00  0.00    +0.000 OA
ATOM     22  O   UNL     1       3.433   2.653  19.676  0.00  0.00    +0.000 OA
BRANCH  20  23
ATOM     23  N   UNL     1       5.570   3.660  18.716  0.00  0.00    +0.000 N 
ATOM     24  H   UNL     1       6.016   2.748  18.830  0.00  0.00    +0.000 HD
BRANCH  23  28
ATOM     25  C   UNL     1       6.916   4.774  14.133  0.00  0.00    +0.000 C 
ATOM     26  C   UNL     1       6.852   5.023  15.610  0.00  0.00    +0.000 A 
ATOM     27  C   UNL     1       6.271   4.110  16.457  0.00  0.00    +0.000 A 
ATOM     28  C   UNL     1       6.210   4.485  17.778  0.00  0.00    +0.000 A 
ATOM     29  N   UNL     1       6.686   5.630  18.277  0.00  0.00    +0.000 NA
ATOM     30  C   UNL     1       7.265   6.445  17.377  0.00  0.00    +0.000 A 
ATOM     31  C   UNL     1       7.840   7.743  17.862  0.00  0.00    +0.000 C 
ATOM     32  N   UNL     1       7.359   6.189  16.058  0.00  0.00    +0.000 NA
ENDBRANCH  23  28
ENDBRANCH  20  23
ENDBRANCH   1  20
TORSDOF 6
ENDMDL
MODEL 6
REMARK VINA RESULT:      -9.6      1.922      2.634
REMARK  Name = 
REMARK  10 active torsions:
REMARK  status: ('A' for Active; 'I' for Inactive)
REMARK    1  A    between atoms: C_1  and  C_2
REMARK    2  A    between atoms: C_4  and  N_5
REMARK    3  A    between atoms: N_5  and  S_6
REMARK    4  A    between atoms: S_6  and  C_9
REMARK    5  A    between atoms: C_12  and  N_13
REMARK    6  A    between atoms: C_14  and  C_16
REMARK    7  A    between atoms: C_16  and  C_17
REMARK    8  A    between atoms: C_20  and  C_21
REMARK    9  A    between atoms: C_22  and  C_23
REMARK   10  A    between atoms: C_28  and  C_29
REMARK                            x       y       z     vdW  Elec       q    Type
REMARK                         _______ _______ _______ _____ _____    ______ ____
ROOT
ATOM      1  C   UNL     1       2.617   4.767  18.749  0.00  0.00    +0.000 A 
ATOM      2  C   UNL     1       2.260   4.550  20.077  0.00  0.00    +0.000 A 
ATOM      3  C   UNL     1       1.901   5.632  20.888  0.00  0.00    +0.000 A 
ATOM      4  C   UNL     1       1.917   6.942  20.405  0.00  0.00    +0.000 A 
ATOM      5  C   UNL     1       2.253   7.149  19.058  0.00  0.00    +0.000 A 
ATOM      6  C   UNL     1       2.617   6.064  18.232  0.00  0.00    +0.000 A 
ENDROOT
BRANCH   4   7
ATOM      7  N   UNL     1       1.645   8.059  21.235  0.00  0.00    +0.000 N 
ATOM      8  C   UNL     1       0.378   8.412  21.709  0.00  0.00    +0.000 C 
ATOM      9  O   UNL     1      -0.663   7.788  21.496  0.00  0.00    +0.000 OA
ATOM     10  H   UNL     1       2.435   8.542  21.641  0.00  0.00    +0.000 HD
BRANCH   8  11
ATOM     11  C   UNL     1       0.336   9.649  22.589  0.00  0.00    +0.000 C 
BRANCH  11  12
ATOM     12  C   UNL     1      -0.647  10.712  22.149  0.00  0.00    +0.000 A 
ATOM     13  C   UNL     1      -1.480  11.316  23.098  0.00  0.00    +0.000 A 
ATOM     14  C   UNL     1      -2.384  12.313  22.721  0.00  0.00    +0.000 A 
ATOM     15  C   UNL     1      -2.486  12.732  21.386  0.00  0.00    +0.000 A 
ATOM     16  C   UNL     1      -3.491  13.790  21.023  0.00  0.00    +0.000 C 
ATOM     17  C   UNL     1      -1.652  12.140  20.422  0.00  0.00    +0.000 A 
ATOM     18  C   UNL     1      -1.717  12.468  18.955  0.00  0.00    +0.000 C 
ATOM     19  C   UNL     1      -0.717  11.167  20.825  0.00  0.00    +0.000 A 
ENDBRANCH  11  12
ENDBRANCH   8  11
ENDBRANCH   4   7
BRANCH   1  20
ATOM     20  S   UNL     1       3.228   3.373  17.813  0.00  0.00    +0.000 S 
ATOM     21  O   UNL     1       3.072   3.698  16.414  0.00  0.00    +0.000 OA
ATOM     22  O   UNL     1       2.633   2.170  18.367  0.00  0.00    +0.000 OA
BRANCH  20  23
ATOM     23  N   UNL     1       4.883   3.340  18.096  0.00  0.00    +0.000 N 
ATOM     24  H   UNL     1       5.256   2.389  18.075  0.00  0.00    +0.000 HD
BRANCH  23  28
ATOM     25  C   UNL     1       7.756   7.312  17.931  0.00  0.00    +0.000 C 
ATOM     26  C   UNL     1       7.039   6.149  17.315  0.00  0.00    +0.000 A 
ATOM     27  C   UNL     1       6.219   5.343  18.067  0.00  0.00    +0.000 A 
ATOM     28  C   UNL     1       5.675   4.269  17.404  0.00  0.00    +0.000 A 
ATOM     29  N   UNL     1       5.868   3.983  16.113  0.00  0.00    +0.000 NA
ATOM     30  C   UNL     1       6.660   4.846  15.451  0.00  0.00    +0.000 A 
ATOM     31  C   UNL     1       6.910   4.604  13.992  0.00  0.00    +0.000 C 
ATOM     32  N   UNL     1       7.261   5.916  16.005  0.00  0.00    +0.000 NA
ENDBRANCH  23  28
ENDBRANCH  20  23
ENDBRANCH   1  20
TORSDOF 6
ENDMDL
MODEL 7
REMARK VINA RESULT:      -9.6      1.059      2.386
REMARK  Name = 
REMARK  10 active torsions:
REMARK  status: ('A' for Active; 'I' for Inactive)
REMARK    1  A    between atoms: C_1  and  C_2
REMARK    2  A    between atoms: C_4  and  N_5
REMARK    3  A    between atoms: N_5  and  S_6
REMARK    4  A    between atoms: S_6  and  C_9
REMARK    5  A    between atoms: C_12  and  N_13
REMARK    6  A    between atoms: C_14  and  C_16
REMARK    7  A    between atoms: C_16  and  C_17
REMARK    8  A    between atoms: C_20  and  C_21
REMARK    9  A    between atoms: C_22  and  C_23
REMARK   10  A    between atoms: C_28  and  C_29
REMARK                            x       y       z     vdW  Elec       q    Type
REMARK                         _______ _______ _______ _____ _____    ______ ____
ROOT
ATOM      1  C   UNL     1       3.341   5.013  18.900  0.00  0.00    +0.000 A 
ATOM      2  C   UNL     1       2.938   5.537  20.126  0.00  0.00    +0.000 A 
ATOM      3  C   UNL     1       2.375   6.816  20.186  0.00  0.00    +0.000 A 
ATOM      4  C   UNL     1       2.227   7.602  19.042  0.00  0.00    +0.000 A 
ATOM      5  C   UNL     1       2.611   7.056  17.807  0.00  0.00    +0.000 A 
ATOM      6  C   UNL     1       3.181   5.767  17.736  0.00  0.00    +0.000 A 
ENDROOT
BRANCH   4   7
ATOM      7  N   UNL     1       1.741   8.934  19.095  0.00  0.00    +0.000 N 
ATOM      8  C   UNL     1       0.803   9.406  20.017  0.00  0.00    +0.000 C 
ATOM      9  O   UNL     1       0.296   8.743  20.924  0.00  0.00    +0.000 OA
ATOM     10  H   UNL     1       2.218   9.626  18.533  0.00  0.00    +0.000 HD
BRANCH   8  11
ATOM     11  C   UNL     1       0.442  10.875  19.881  0.00  0.00    +0.000 C 
BRANCH  11  12
ATOM     12  C   UNL     1      -0.964  11.143  19.391  0.00  0.00    +0.000 A 
ATOM     13  C   UNL     1      -1.415  10.525  18.220  0.00  0.00    +0.000 A 
ATOM     14  C   UNL     1      -2.716  10.741  17.754  0.00  0.00    +0.000 A 
ATOM     15  C   UNL     1      -3.600  11.585  18.442  0.00  0.00    +0.000 A 
ATOM     16  C   UNL     1      -4.981  11.808  17.890  0.00  0.00    +0.000 C 
ATOM     17  C   UNL     1      -3.164  12.209  19.624  0.00  0.00    +0.000 A 
ATOM     18  C   UNL     1      -4.006  13.178  20.409  0.00  0.00    +0.000 C 
ATOM     19  C   UNL     1      -1.866  11.948  20.102  0.00  0.00    +0.000 A 
ENDBRANCH  11  12
ENDBRANCH   8  11
ENDBRANCH   4   7
BRANCH   1  20
ATOM     20  S   UNL     1       4.208   3.451  18.906  0.00  0.00    +0.000 S 
ATOM     21  O   UNL     1       4.026   2.858  17.601  0.00  0.00    +0.000 OA
ATOM     22  O   UNL     1       3.821   2.734  20.108  0.00  0.00    +0.000 OA
BRANCH  20  23
ATOM     23  N   UNL     1       5.836   3.848  19.010  0.00  0.00    +0.000 N 
ATOM     24  H   UNL     1       6.413   3.038  19.244  0.00  0.00    +0.000 HD
BRANCH  23  28
ATOM     25  C   UNL     1       6.863   4.730  14.296  0.00  0.00    +0.000 C 
ATOM     26  C   UNL     1       6.863   5.072  15.755  0.00  0.00    +0.000 A 
ATOM     27  C   UNL     1       6.386   4.186  16.691  0.00  0.00    +0.000 A 
ATOM     28  C   UNL     1       6.373   4.643  17.987  0.00  0.00    +0.000 A 
ATOM     29  N   UNL     1       6.804   5.845  18.384  0.00  0.00    +0.000 NA
ATOM     30  C   UNL     1       7.283   6.630  17.402  0.00  0.00    +0.000 A 
ATOM     31  C   UNL     1       7.803   7.988  17.770  0.00  0.00    +0.000 C 
ATOM     32  N   UNL     1       7.322   6.293  16.099  0.00  0.00    +0.000 NA
ENDBRANCH  23  28
ENDBRANCH  20  23
ENDBRANCH   1  20
TORSDOF 6
ENDMDL
MODEL 8
REMARK VINA RESULT:      -9.5      0.925      1.320
REMARK  Name = 
REMARK  10 active torsions:
REMARK  status: ('A' for Active; 'I' for Inactive)
REMARK    1  A    between atoms: C_1  and  C_2
REMARK    2  A    between atoms: C_4  and  N_5
REMARK    3  A    between atoms: N_5  and  S_6
REMARK    4  A    between atoms: S_6  and  C_9
REMARK    5  A    between atoms: C_12  and  N_13
REMARK    6  A    between atoms: C_14  and  C_16
REMARK    7  A    between atoms: C_16  and  C_17
REMARK    8  A    between atoms: C_20  and  C_21
REMARK    9  A    between atoms: C_22  and  C_23
REMARK   10  A    between atoms: C_28  and  C_29
REMARK                            x       y       z     vdW  Elec       q    Type
REMARK                         _______ _______ _______ _____ _____    ______ ____
ROOT
ATOM      1  C   UNL     1       3.310   4.979  18.857  0.00  0.00    +0.000 A 
ATOM      2  C   UNL     1       3.101   5.664  20.052  0.00  0.00    +0.000 A 
ATOM      3  C   UNL     1       2.580   6.961  20.029  0.00  0.00    +0.000 A 
ATOM      4  C   UNL     1       2.284   7.608  18.828  0.00  0.00    +0.000 A 
ATOM      5  C   UNL     1       2.473   6.902  17.630  0.00  0.00    +0.000 A 
ATOM      6  C   UNL     1       2.999   5.592  17.641  0.00  0.00    +0.000 A 
ENDROOT
BRANCH   4   7
ATOM      7  N   UNL     1       1.840   8.955  18.781  0.00  0.00    +0.000 N 
ATOM      8  C   UNL     1       0.858   9.502  19.613  0.00  0.00    +0.000 C 
ATOM      9  O   UNL     1       0.271   8.901  20.514  0.00  0.00    +0.000 OA
ATOM     10  H   UNL     1       2.376   9.602  18.220  0.00  0.00    +0.000 HD
BRANCH   8  11
ATOM     11  C   UNL     1       0.556  10.971  19.379  0.00  0.00    +0.000 C 
BRANCH  11  12
ATOM     12  C   UNL     1      -0.914  11.308  19.254  0.00  0.00    +0.000 A 
ATOM     13  C   UNL     1      -1.527  12.095  20.235  0.00  0.00    +0.000 A 
ATOM     14  C   UNL     1      -2.879  12.435  20.135  0.00  0.00    +0.000 A 
ATOM     15  C   UNL     1      -3.659  11.994  19.056  0.00  0.00    +0.000 A 
ATOM     16  C   UNL     1      -5.116  12.363  19.003  0.00  0.00    +0.000 C 
ATOM     17  C   UNL     1      -3.057  11.207  18.058  0.00  0.00    +0.000 A 
ATOM     18  C   UNL     1      -3.810  10.630  16.890  0.00  0.00    +0.000 C 
ATOM     19  C   UNL     1      -1.684  10.908  18.152  0.00  0.00    +0.000 A 
ENDBRANCH  11  12
ENDBRANCH   8  11
ENDBRANCH   4   7
BRANCH   1  20
ATOM     20  S   UNL     1       4.135   3.396  18.937  0.00  0.00    +0.000 S 
ATOM     21  O   UNL     1       3.908   2.734  17.673  0.00  0.00    +0.000 OA
ATOM     22  O   UNL     1       3.757   2.762  20.187  0.00  0.00    +0.000 OA
BRANCH  20  23
ATOM     23  N   UNL     1       5.775   3.753  18.982  0.00  0.00    +0.000 N 
ATOM     24  H   UNL     1       6.347   2.913  19.083  0.00  0.00    +0.000 HD
BRANCH  23  28
ATOM     25  C   UNL     1       7.837   8.016  17.705  0.00  0.00    +0.000 C 
ATOM     26  C   UNL     1       7.244   6.671  17.409  0.00  0.00    +0.000 A 
ATOM     27  C   UNL     1       6.714   5.895  18.412  0.00  0.00    +0.000 A 
ATOM     28  C   UNL     1       6.267   4.654  18.026  0.00  0.00    +0.000 A 
ATOM     29  N   UNL     1       6.291   4.181  16.776  0.00  0.00    +0.000 NA
ATOM     30  C   UNL     1       6.799   5.024  15.859  0.00  0.00    +0.000 A 
ATOM     31  C   UNL     1       6.844   4.574  14.429  0.00  0.00    +0.000 C 
ATOM     32  N   UNL     1       7.286   6.251  16.129  0.00  0.00    +0.000 NA
ENDBRANCH  23  28
ENDBRANCH  20  23
ENDBRANCH   1  20
TORSDOF 6
ENDMDL
MODEL 9
REMARK VINA RESULT:      -9.4      1.687      2.925
REMARK  Name = 
REMARK  10 active torsions:
REMARK  status: ('A' for Active; 'I' for Inactive)
REMARK    1  A    between atoms: C_1  and  C_2
REMARK    2  A    between atoms: C_4  and  N_5
REMARK    3  A    between atoms: N_5  and  S_6
REMARK    4  A    between atoms: S_6  and  C_9
REMARK    5  A    between atoms: C_12  and  N_13
REMARK    6  A    between atoms: C_14  and  C_16
REMARK    7  A    between atoms: C_16  and  C_17
REMARK    8  A    between atoms: C_20  and  C_21
REMARK    9  A    between atoms: C_22  and  C_23
REMARK   10  A    between atoms: C_28  and  C_29
REMARK                            x       y       z     vdW  Elec       q    Type
REMARK                         _______ _______ _______ _____ _____    ______ ____
ROOT
ATOM      1  C   UNL     1       3.131   5.275  18.810  0.00  0.00    +0.000 A 
ATOM      2  C   UNL     1       2.529   5.669  20.003  0.00  0.00    +0.000 A 
ATOM      3  C   UNL     1       2.069   6.981  20.151  0.00  0.00    +0.000 A 
ATOM      4  C   UNL     1       2.221   7.927  19.135  0.00  0.00    +0.000 A 
ATOM      5  C   UNL     1       2.804   7.515  17.927  0.00  0.00    +0.000 A 
ATOM      6  C   UNL     1       3.273   6.193  17.767  0.00  0.00    +0.000 A 
ENDROOT
BRANCH   4   7
ATOM      7  N   UNL     1       1.842   9.284  19.299  0.00  0.00    +0.000 N 
ATOM      8  C   UNL     1       0.803   9.913  18.607  0.00  0.00    +0.000 C 
ATOM      9  O   UNL     1       0.060   9.370  17.788  0.00  0.00    +0.000 OA
ATOM     10  H   UNL     1       2.244   9.788  20.078  0.00  0.00    +0.000 HD
BRANCH   8  11
ATOM     11  C   UNL     1       0.581  11.374  18.958  0.00  0.00    +0.000 C 
BRANCH  11  12
ATOM     12  C   UNL     1      -0.384  11.615  20.099  0.00  0.00    +0.000 A 
ATOM     13  C   UNL     1      -0.030  11.225  21.395  0.00  0.00    +0.000 A 
ATOM     14  C   UNL     1      -0.895  11.452  22.469  0.00  0.00    +0.000 A 
ATOM     15  C   UNL     1      -2.140  12.071  22.279  0.00  0.00    +0.000 A 
ATOM     16  C   UNL     1      -3.048  12.272  23.460  0.00  0.00    +0.000 C 
ATOM     17  C   UNL     1      -2.507  12.475  20.984  0.00  0.00    +0.000 A 
ATOM     18  C   UNL     1      -3.839  13.092  20.654  0.00  0.00    +0.000 C 
ATOM     19  C   UNL     1      -1.607  12.277  19.919  0.00  0.00    +0.000 A 
ENDBRANCH  11  12
ENDBRANCH   8  11
ENDBRANCH   4   7
BRANCH   1  20
ATOM     20  S   UNL     1       3.851   3.641  18.741  0.00  0.00    +0.000 S 
ATOM     21  O   UNL     1       3.666   3.152  17.394  0.00  0.00    +0.000 OA
ATOM     22  O   UNL     1       3.355   2.889  19.879  0.00  0.00    +0.000 OA
BRANCH  20  23
ATOM     23  N   UNL     1       5.504   3.877  18.923  0.00  0.00    +0.000 N 
ATOM     24  H   UNL     1       5.989   3.012  19.166  0.00  0.00    +0.000 HD
BRANCH  23  28
ATOM     25  C   UNL     1       6.884   4.684  14.286  0.00  0.00    +0.000 C 
ATOM     26  C   UNL     1       6.819   5.024  15.744  0.00  0.00    +0.000 A 
ATOM     27  C   UNL     1       6.220   4.175  16.644  0.00  0.00    +0.000 A 
ATOM     28  C   UNL     1       6.160   4.632  17.939  0.00  0.00    +0.000 A 
ATOM     29  N   UNL     1       6.653   5.798  18.368  0.00  0.00    +0.000 NA
ATOM     30  C   UNL     1       7.248   6.547  17.422  0.00  0.00    +0.000 A 
ATOM     31  C   UNL     1       7.843   7.862  17.828  0.00  0.00    +0.000 C 
ATOM     32  N   UNL     1       7.343   6.208  16.121  0.00  0.00    +0.000 NA
ENDBRANCH  23  28
ENDBRANCH  20  23
ENDBRANCH   1  20
TORSDOF 6
ENDMDL
