MODEL 1
REMARK VINA RESULT:      -8.6      0.000      0.000
REMARK  Name = 
REMARK  8 active torsions:
REMARK  status: ('A' for Active; 'I' for Inactive)
REMARK    1  A    between atoms: C_1  and  C_2
REMARK    2  A    between atoms: C_2  and  N_3
REMARK    3  A    between atoms: C_2  and  C_10
REMARK    4  A    between atoms: N_8  and  C_9
REMARK    5  A    between atoms: C_14  and  N_15
REMARK    6  A    between atoms: C_16  and  C_18
REMARK    7  A    between atoms: C_20  and  C_21
REMARK    8  A    between atoms: C_21  and  C_22
REMARK                            x       y       z     vdW  Elec       q    Type
REMARK                         _______ _______ _______ _____ _____    ______ ____
ROOT
ATOM      1  C   UNL     1       0.062  10.382  19.981  0.00  0.00    +0.000 A 
ATOM      2  C   UNL     1      -0.257  10.442  21.352  0.00  0.00    +0.000 A 
ATOM      3  C   UNL     1       0.326   9.575  22.266  0.00  0.00    +0.000 A 
ATOM      4  C   UNL     1       1.199   8.591  21.819  0.00  0.00    +0.000 A 
ATOM      5  C   UNL     1       1.484   8.444  20.459  0.00  0.00    +0.000 A 
ATOM      6  C   UNL     1       0.951   9.377  19.545  0.00  0.00    +0.000 A 
ENDROOT
BRANCH   5   7
ATOM      7  N   UNL     1       2.278   7.377  19.977  0.00  0.00    +0.000 N 
ATOM      8  C   UNL     1       2.026   6.014  20.163  0.00  0.00    +0.000 C 
ATOM      9  O   UNL     1       1.109   5.518  20.813  0.00  0.00    +0.000 OA
ATOM     10  H   UNL     1       3.036   7.585  19.336  0.00  0.00    +0.000 HD
BRANCH   8  11
ATOM     11  C   UNL     1       2.960   5.102  19.433  0.00  0.00    +0.000 A 
ATOM     12  C   UNL     1       4.306   5.457  19.316  0.00  0.00    +0.000 A 
ATOM     13  C   UNL     1       5.182   4.591  18.651  0.00  0.00    +0.000 A 
ATOM     14  C   UNL     1       4.650   3.412  18.117  0.00  0.00    +0.000 A 
ATOM     15  C   UNL     1       3.295   3.142  18.284  0.00  0.00    +0.000 A 
ATOM     16  N   UNL     1       2.434   3.953  18.936  0.00  0.00    +0.000 NA
BRANCH  13  17
ATOM     17  C   UNL     1       6.634   4.948  18.458  0.00  0.00    +0.000 C 
BRANCH  17  18
ATOM     18  C   UNL     1       6.955   5.383  17.100  0.00  0.00    +0.000 C 
ATOM     19  N   UNL     1       7.089   6.474  16.446  0.00  0.00    +0.000 NA
ATOM     20  N   UNL     1       7.370   5.696  15.259  0.00  0.00    +0.000 NA
ATOM     21  C   UNL     1       7.215   4.620  15.915  0.00  0.00    +0.000 C 
ENDBRANCH  17  18
ENDBRANCH  13  17
ENDBRANCH   8  11
ENDBRANCH   5   7
BRANCH   1  23
ATOM     22  C   UNL     1       0.601  12.527  18.836  0.00  0.00    +0.000 C 
ATOM     23  C   UNL     1      -0.507  11.503  19.110  0.00  0.00    +0.000 C 
BRANCH  23  24
ATOM     24  N   UNL     1      -1.114  11.051  17.848  0.00  0.00    +0.000 N 
ATOM     25  C   UNL     1      -2.451  11.275  17.716  0.00  0.00    +0.000 A 
ATOM     26  N   UNL     1      -3.265  11.891  18.556  0.00  0.00    +0.000 NA
ATOM     27  N   UNL     1      -4.544  11.837  18.051  0.00  0.00    +0.000 NA
ATOM     28  C   UNL     1      -4.484  11.227  16.895  0.00  0.00    +0.000 A 
ATOM     29  N   UNL     1      -3.193  10.870  16.633  0.00  0.00    +0.000 N 
ATOM     30  C   UNL     1      -2.745  10.277  15.405  0.00  0.00    +0.000 C 
ATOM     31  H   UNL     1      -0.777  10.140  17.557  0.00  0.00    +0.000 HD
ENDBRANCH  23  24
ENDBRANCH   1  23
TORSDOF 6
ENDMDL
MODEL 2
REMARK VINA RESULT:      -8.6      0.900      1.082
REMARK  Name = 
REMARK  8 active torsions:
REMARK  status: ('A' for Active; 'I' for Inactive)
REMARK    1  A    between atoms: C_1  and  C_2
REMARK    2  A    between atoms: C_2  and  N_3
REMARK    3  A    between atoms: C_2  and  C_10
REMARK    4  A    between atoms: N_8  and  C_9
REMARK    5  A    between atoms: C_14  and  N_15
REMARK    6  A    between atoms: C_16  and  C_18
REMARK    7  A    between atoms: C_20  and  C_21
REMARK    8  A    between atoms: C_21  and  C_22
REMARK                            x       y       z     vdW  Elec       q    Type
REMARK                         _______ _______ _______ _____ _____    ______ ____
ROOT
ATOM      1  C   UNL     1       0.306  10.416  19.885  0.00  0.00    +0.000 A 
ATOM      2  C   UNL     1       0.124  10.474  21.282  0.00  0.00    +0.000 A 
ATOM      3  C   UNL     1       0.676   9.516  22.121  0.00  0.00    +0.000 A 
ATOM      4  C   UNL     1       1.374   8.446  21.575  0.00  0.00    +0.000 A 
ATOM      5  C   UNL     1       1.513   8.305  20.192  0.00  0.00    +0.000 A 
ATOM      6  C   UNL     1       1.019   9.323  19.349  0.00  0.00    +0.000 A 
ENDROOT
BRANCH   5   7
ATOM      7  N   UNL     1       2.119   7.163  19.618  0.00  0.00    +0.000 N 
ATOM      8  C   UNL     1       1.849   5.833  19.951  0.00  0.00    +0.000 C 
ATOM      9  O   UNL     1       1.084   5.434  20.825  0.00  0.00    +0.000 OA
ATOM     10  H   UNL     1       2.719   7.285  18.808  0.00  0.00    +0.000 HD
BRANCH   8  11
ATOM     11  C   UNL     1       2.543   4.822  19.093  0.00  0.00    +0.000 A 
ATOM     12  C   UNL     1       3.425   5.260  18.102  0.00  0.00    +0.000 A 
ATOM     13  C   UNL     1       4.089   4.312  17.316  0.00  0.00    +0.000 A 
ATOM     14  C   UNL     1       3.815   2.961  17.556  0.00  0.00    +0.000 A 
ATOM     15  C   UNL     1       2.920   2.619  18.566  0.00  0.00    +0.000 A 
ATOM     16  N   UNL     1       2.281   3.514  19.348  0.00  0.00    +0.000 NA
BRANCH  13  17
ATOM     17  C   UNL     1       5.016   4.732  16.204  0.00  0.00    +0.000 C 
BRANCH  17  18
ATOM     18  C   UNL     1       6.433   4.577  16.533  0.00  0.00    +0.000 C 
ATOM     19  N   UNL     1       7.544   4.381  15.931  0.00  0.00    +0.000 NA
ATOM     20  N   UNL     1       8.208   4.381  17.215  0.00  0.00    +0.000 NA
ATOM     21  C   UNL     1       7.097   4.556  17.803  0.00  0.00    +0.000 C 
ENDBRANCH  17  18
ENDBRANCH  13  17
ENDBRANCH   8  11
ENDBRANCH   5   7
BRANCH   1  23
ATOM     22  C   UNL     1       0.995  12.534  18.771  0.00  0.00    +0.000 C 
ATOM     23  C   UNL     1      -0.196  11.623  19.093  0.00  0.00    +0.000 C 
BRANCH  23  24
ATOM     24  N   UNL     1      -0.934  11.287  17.864  0.00  0.00    +0.000 N 
ATOM     25  C   UNL     1      -2.287  11.432  17.924  0.00  0.00    +0.000 A 
ATOM     26  N   UNL     1      -3.019  11.881  18.927  0.00  0.00    +0.000 NA
ATOM     27  N   UNL     1      -4.347  11.800  18.576  0.00  0.00    +0.000 NA
ATOM     28  C   UNL     1      -4.402  11.342  17.352  0.00  0.00    +0.000 A 
ATOM     29  N   UNL     1      -3.137  11.110  16.894  0.00  0.00    +0.000 N 
ATOM     30  C   UNL     1      -2.818  10.703  15.555  0.00  0.00    +0.000 C 
ATOM     31  H   UNL     1      -0.587  10.444  17.420  0.00  0.00    +0.000 HD
ENDBRANCH  23  24
ENDBRANCH   1  23
TORSDOF 6
ENDMDL
MODEL 3
REMARK VINA RESULT:      -8.5      1.734      3.381
REMARK  Name = 
REMARK  8 active torsions:
REMARK  status: ('A' for Active; 'I' for Inactive)
REMARK    1  A    between atoms: C_1  and  C_2
REMARK    2  A    between atoms: C_2  and  N_3
REMARK    3  A    between atoms: C_2  and  C_10
REMARK    4  A    between atoms: N_8  and  C_9
REMARK    5  A    between atoms: C_14  and  N_15
REMARK    6  A    between atoms: C_16  and  C_18
REMARK    7  A    between atoms: C_20  and  C_21
REMARK    8  A    between atoms: C_21  and  C_22
REMARK                            x       y       z     vdW  Elec       q    Type
REMARK                         _______ _______ _______ _____ _____    ______ ____
ROOT
ATOM      1  C   UNL     1      -0.127  10.941  19.711  0.00  0.00    +0.000 A 
ATOM      2  C   UNL     1      -0.233  11.062  21.111  0.00  0.00    +0.000 A 
ATOM      3  C   UNL     1       0.403  10.170  21.962  0.00  0.00    +0.000 A 
ATOM      4  C   UNL     1       1.116   9.102  21.430  0.00  0.00    +0.000 A 
ATOM      5  C   UNL     1       1.184   8.897  20.049  0.00  0.00    +0.000 A 
ATOM      6  C   UNL     1       0.602   9.851  19.188  0.00  0.00    +0.000 A 
ENDROOT
BRANCH   5   7
ATOM      7  N   UNL     1       1.806   7.753  19.497  0.00  0.00    +0.000 N 
ATOM      8  C   UNL     1       2.450   7.683  18.258  0.00  0.00    +0.000 C 
ATOM      9  O   UNL     1       2.540   8.580  17.424  0.00  0.00    +0.000 OA
ATOM     10  H   UNL     1       1.914   6.929  20.079  0.00  0.00    +0.000 HD
BRANCH   8  11
ATOM     11  C   UNL     1       3.133   6.380  17.983  0.00  0.00    +0.000 A 
ATOM     12  C   UNL     1       2.545   5.195  18.431  0.00  0.00    +0.000 A 
ATOM     13  C   UNL     1       3.175   3.977  18.154  0.00  0.00    +0.000 A 
ATOM     14  C   UNL     1       4.384   4.015  17.450  0.00  0.00    +0.000 A 
ATOM     15  C   UNL     1       4.894   5.245  17.044  0.00  0.00    +0.000 A 
ATOM     16  N   UNL     1       4.296   6.431  17.284  0.00  0.00    +0.000 NA
BRANCH  13  17
ATOM     17  C   UNL     1       2.606   2.673  18.653  0.00  0.00    +0.000 C 
BRANCH  17  18
ATOM     18  C   UNL     1       2.165   2.722  20.046  0.00  0.00    +0.000 C 
ATOM     19  N   UNL     1       1.078   2.861  20.707  0.00  0.00    +0.000 NA
ATOM     20  N   UNL     1       1.844   2.776  21.931  0.00  0.00    +0.000 NA
ATOM     21  C   UNL     1       2.918   2.658  21.264  0.00  0.00    +0.000 C 
ENDBRANCH  17  18
ENDBRANCH  13  17
ENDBRANCH   8  11
ENDBRANCH   5   7
BRANCH   1  23
ATOM     22  C   UNL     1       0.383  13.107  18.592  0.00  0.00    +0.000 C 
ATOM     23  C   UNL     1      -0.721  12.086  18.891  0.00  0.00    +0.000 C 
BRANCH  23  24
ATOM     24  N   UNL     1      -1.386  11.668  17.646  0.00  0.00    +0.000 N 
ATOM     25  C   UNL     1      -2.746  11.598  17.692  0.00  0.00    +0.000 A 
ATOM     26  N   UNL     1      -3.549  11.904  18.695  0.00  0.00    +0.000 NA
ATOM     27  N   UNL     1      -4.845  11.626  18.326  0.00  0.00    +0.000 NA
ATOM     28  C   UNL     1      -4.816  11.193  17.091  0.00  0.00    +0.000 A 
ATOM     29  N   UNL     1      -3.527  11.172  16.644  0.00  0.00    +0.000 N 
ATOM     30  C   UNL     1      -3.136  10.852  15.300  0.00  0.00    +0.000 C 
ATOM     31  H   UNL     1      -0.909  10.900  17.187  0.00  0.00    +0.000 HD
ENDBRANCH  23  24
ENDBRANCH   1  23
TORSDOF 6
ENDMDL
MODEL 4
REMARK VINA RESULT:      -8.3      2.050      9.655
REMARK  Name = 
REMARK  8 active torsions:
REMARK  status: ('A' for Active; 'I' for Inactive)
REMARK    1  A    between atoms: C_1  and  C_2
REMARK    2  A    between atoms: C_2  and  N_3
REMARK    3  A    between atoms: C_2  and  C_10
REMARK    4  A    between atoms: N_8  and  C_9
REMARK    5  A    between atoms: C_14  and  N_15
REMARK    6  A    between atoms: C_16  and  C_18
REMARK    7  A    between atoms: C_20  and  C_21
REMARK    8  A    between atoms: C_21  and  C_22
REMARK                            x       y       z     vdW  Elec       q    Type
REMARK                         _______ _______ _______ _____ _____    ______ ____
ROOT
ATOM      1  C   UNL     1       4.500   4.916  17.275  0.00  0.00    +0.000 A 
ATOM      2  C   UNL     1       3.781   3.705  17.202  0.00  0.00    +0.000 A 
ATOM      3  C   UNL     1       2.514   3.585  17.754  0.00  0.00    +0.000 A 
ATOM      4  C   UNL     1       1.959   4.658  18.441  0.00  0.00    +0.000 A 
ATOM      5  C   UNL     1       2.666   5.852  18.605  0.00  0.00    +0.000 A 
ATOM      6  C   UNL     1       3.920   5.995  17.975  0.00  0.00    +0.000 A 
ENDROOT
BRANCH   5   7
ATOM      7  N   UNL     1       2.164   6.910  19.399  0.00  0.00    +0.000 N 
ATOM      8  C   UNL     1       1.853   8.198  18.953  0.00  0.00    +0.000 C 
ATOM      9  O   UNL     1       2.008   8.641  17.818  0.00  0.00    +0.000 OA
ATOM     10  H   UNL     1       1.883   6.712  20.354  0.00  0.00    +0.000 HD
BRANCH   8  11
ATOM     11  C   UNL     1       1.216   9.077  19.983  0.00  0.00    +0.000 A 
ATOM     12  C   UNL     1       0.627  10.278  19.582  0.00  0.00    +0.000 A 
ATOM     13  C   UNL     1       0.013  11.088  20.545  0.00  0.00    +0.000 A 
ATOM     14  C   UNL     1       0.040  10.653  21.874  0.00  0.00    +0.000 A 
ATOM     15  C   UNL     1       0.650   9.439  22.178  0.00  0.00    +0.000 A 
ATOM     16  N   UNL     1       1.234   8.634  21.266  0.00  0.00    +0.000 NA
BRANCH  13  17
ATOM     17  C   UNL     1      -0.597  12.415  20.172  0.00  0.00    +0.000 C 
BRANCH  17  18
ATOM     18  C   UNL     1      -2.025  12.338  19.867  0.00  0.00    +0.000 C 
ATOM     19  N   UNL     1      -2.785  11.958  18.910  0.00  0.00    +0.000 NA
ATOM     20  N   UNL     1      -3.930  12.364  19.696  0.00  0.00    +0.000 NA
ATOM     21  C   UNL     1      -3.164  12.755  20.630  0.00  0.00    +0.000 C 
ENDBRANCH  17  18
ENDBRANCH  13  17
ENDBRANCH   8  11
ENDBRANCH   5   7
BRANCH   1  23
ATOM     22  C   UNL     1       6.933   4.387  17.329  0.00  0.00    +0.000 C 
ATOM     23  C   UNL     1       5.801   4.973  16.476  0.00  0.00    +0.000 C 
BRANCH  23  24
ATOM     24  N   UNL     1       5.746   4.304  15.165  0.00  0.00    +0.000 N 
ATOM     25  C   UNL     1       6.681   4.699  14.256  0.00  0.00    +0.000 A 
ATOM     26  N   UNL     1       7.661   5.569  14.414  0.00  0.00    +0.000 NA
ATOM     27  N   UNL     1       8.327   5.709  13.218  0.00  0.00    +0.000 NA
ATOM     28  C   UNL     1       7.768   4.892  12.362  0.00  0.00    +0.000 A 
ATOM     29  N   UNL     1       6.743   4.226  12.967  0.00  0.00    +0.000 N 
ATOM     30  C   UNL     1       5.979   3.176  12.355  0.00  0.00    +0.000 C 
ATOM     31  H   UNL     1       4.798   4.195  14.822  0.00  0.00    +0.000 HD
ENDBRANCH  23  24
ENDBRANCH   1  23
TORSDOF 6
ENDMDL
MODEL 5
REMARK VINA RESULT:      -8.2      1.396      1.587
REMARK  Name = 
REMARK  8 active torsions:
REMARK  status: ('A' for Active; 'I' for Inactive)
REMARK    1  A    between atoms: C_1  and  C_2
REMARK    2  A    between atoms: C_2  and  N_3
REMARK    3  A    between atoms: C_2  and  C_10
REMARK    4  A    between atoms: N_8  and  C_9
REMARK    5  A    between atoms: C_14  and  N_15
REMARK    6  A    between atoms: C_16  and  C_18
REMARK    7  A    between atoms: C_20  and  C_21
REMARK    8  A    between atoms: C_21  and  C_22
REMARK                            x       y       z     vdW  Elec       q    Type
REMARK                         _______ _______ _______ _____ _____    ______ ____
ROOT
ATOM      1  C   UNL     1      -0.644  10.988  20.660  0.00  0.00    +0.000 A 
ATOM      2  C   UNL     1      -0.910  11.184  22.030  0.00  0.00    +0.000 A 
ATOM      3  C   UNL     1      -0.457  10.288  22.988  0.00  0.00    +0.000 A 
ATOM      4  C   UNL     1       0.226   9.144  22.590  0.00  0.00    +0.000 A 
ATOM      5  C   UNL     1       0.446   8.870  21.238  0.00  0.00    +0.000 A 
ATOM      6  C   UNL     1       0.053   9.823  20.275  0.00  0.00    +0.000 A 
ENDROOT
BRANCH   5   7
ATOM      7  N   UNL     1       1.036   7.657  20.812  0.00  0.00    +0.000 N 
ATOM      8  C   UNL     1       1.922   7.503  19.742  0.00  0.00    +0.000 C 
ATOM      9  O   UNL     1       2.296   8.378  18.964  0.00  0.00    +0.000 OA
ATOM     10  H   UNL     1       0.918   6.829  21.388  0.00  0.00    +0.000 HD
BRANCH   8  11
ATOM     11  C   UNL     1       2.492   6.127  19.597  0.00  0.00    +0.000 A 
ATOM     12  C   UNL     1       3.234   5.814  18.456  0.00  0.00    +0.000 A 
ATOM     13  C   UNL     1       3.785   4.533  18.334  0.00  0.00    +0.000 A 
ATOM     14  C   UNL     1       3.543   3.620  19.366  0.00  0.00    +0.000 A 
ATOM     15  C   UNL     1       2.791   4.023  20.466  0.00  0.00    +0.000 A 
ATOM     16  N   UNL     1       2.264   5.257  20.614  0.00  0.00    +0.000 NA
BRANCH  13  17
ATOM     17  C   UNL     1       4.556   4.130  17.103  0.00  0.00    +0.000 C 
BRANCH  17  18
ATOM     18  C   UNL     1       6.003   4.297  17.237  0.00  0.00    +0.000 C 
ATOM     19  N   UNL     1       6.875   4.416  18.166  0.00  0.00    +0.000 NA
ATOM     20  N   UNL     1       7.898   4.534  17.150  0.00  0.00    +0.000 NA
ATOM     21  C   UNL     1       7.021   4.435  16.238  0.00  0.00    +0.000 C 
ENDBRANCH  17  18
ENDBRANCH  13  17
ENDBRANCH   8  11
ENDBRANCH   5   7
BRANCH   1  23
ATOM     22  C   UNL     1       0.134  13.116  19.627  0.00  0.00    +0.000 C 
ATOM     23  C   UNL     1      -1.039  12.134  19.729  0.00  0.00    +0.000 C 
BRANCH  23  24
ATOM     24  N   UNL     1      -1.476  11.712  18.388  0.00  0.00    +0.000 N 
ATOM     25  C   UNL     1      -2.823  11.656  18.191  0.00  0.00    +0.000 A 
ATOM     26  N   UNL     1      -3.788  11.977  19.033  0.00  0.00    +0.000 NA
ATOM     27  N   UNL     1      -5.000  11.708  18.440  0.00  0.00    +0.000 NA
ATOM     28  C   UNL     1      -4.756  11.265  17.233  0.00  0.00    +0.000 A 
ATOM     29  N   UNL     1      -3.408  11.228  17.024  0.00  0.00    +0.000 N 
ATOM     30  C   UNL     1      -2.787  10.894  15.773  0.00  0.00    +0.000 C 
ATOM     31  H   UNL     1      -0.932  10.936  18.027  0.00  0.00    +0.000 HD
ENDBRANCH  23  24
ENDBRANCH   1  23
TORSDOF 6
ENDMDL
MODEL 6
REMARK VINA RESULT:      -8.2      2.327      9.339
REMARK  Name = 
REMARK  8 active torsions:
REMARK  status: ('A' for Active; 'I' for Inactive)
REMARK    1  A    between atoms: C_1  and  C_2
REMARK    2  A    between atoms: C_2  and  N_3
REMARK    3  A    between atoms: C_2  and  C_10
REMARK    4  A    between atoms: N_8  and  C_9
REMARK    5  A    between atoms: C_14  and  N_15
REMARK    6  A    between atoms: C_16  and  C_18
REMARK    7  A    between atoms: C_20  and  C_21
REMARK    8  A    between atoms: C_21  and  C_22
REMARK                            x       y       z     vdW  Elec       q    Type
REMARK                         _______ _______ _______ _____ _____    ______ ____
ROOT
ATOM      1  C   UNL     1       4.527   4.863  17.474  0.00  0.00    +0.000 A 
ATOM      2  C   UNL     1       3.856   3.625  17.405  0.00  0.00    +0.000 A 
ATOM      3  C   UNL     1       2.608   3.448  17.985  0.00  0.00    +0.000 A 
ATOM      4  C   UNL     1       2.028   4.491  18.697  0.00  0.00    +0.000 A 
ATOM      5  C   UNL     1       2.691   5.711  18.859  0.00  0.00    +0.000 A 
ATOM      6  C   UNL     1       3.923   5.911  18.201  0.00  0.00    +0.000 A 
ENDROOT
BRANCH   5   7
ATOM      7  N   UNL     1       2.166   6.739  19.677  0.00  0.00    +0.000 N 
ATOM      8  C   UNL     1       1.841   8.034  19.263  0.00  0.00    +0.000 C 
ATOM      9  O   UNL     1       2.001   8.511  18.142  0.00  0.00    +0.000 OA
ATOM     10  H   UNL     1       1.879   6.510  20.622  0.00  0.00    +0.000 HD
BRANCH   8  11
ATOM     11  C   UNL     1       1.182   8.876  20.310  0.00  0.00    +0.000 A 
ATOM     12  C   UNL     1       0.324   9.905  19.917  0.00  0.00    +0.000 A 
ATOM     13  C   UNL     1      -0.308  10.676  20.899  0.00  0.00    +0.000 A 
ATOM     14  C   UNL     1      -0.027  10.381  22.238  0.00  0.00    +0.000 A 
ATOM     15  C   UNL     1       0.842   9.335  22.534  0.00  0.00    +0.000 A 
ATOM     16  N   UNL     1       1.450   8.567  21.605  0.00  0.00    +0.000 NA
BRANCH  13  17
ATOM     17  C   UNL     1      -1.208  11.827  20.528  0.00  0.00    +0.000 C 
BRANCH  17  18
ATOM     18  C   UNL     1      -0.595  12.773  19.596  0.00  0.00    +0.000 C 
ATOM     19  N   UNL     1      -0.683  13.102  18.363  0.00  0.00    +0.000 NA
ATOM     20  N   UNL     1       0.368  14.072  18.576  0.00  0.00    +0.000 NA
ATOM     21  C   UNL     1       0.459  13.723  19.793  0.00  0.00    +0.000 C 
ENDBRANCH  17  18
ENDBRANCH  13  17
ENDBRANCH   8  11
ENDBRANCH   5   7
BRANCH   1  23
ATOM     22  C   UNL     1       6.982   4.440  17.468  0.00  0.00    +0.000 C 
ATOM     23  C   UNL     1       5.806   4.980  16.645  0.00  0.00    +0.000 C 
BRANCH  23  24
ATOM     24  N   UNL     1       5.749   4.317  15.332  0.00  0.00    +0.000 N 
ATOM     25  C   UNL     1       6.681   4.715  14.423  0.00  0.00    +0.000 A 
ATOM     26  N   UNL     1       7.662   5.586  14.583  0.00  0.00    +0.000 NA
ATOM     27  N   UNL     1       8.326   5.730  13.386  0.00  0.00    +0.000 NA
ATOM     28  C   UNL     1       7.766   4.916  12.527  0.00  0.00    +0.000 A 
ATOM     29  N   UNL     1       6.741   4.248  13.132  0.00  0.00    +0.000 N 
ATOM     30  C   UNL     1       5.977   3.200  12.517  0.00  0.00    +0.000 C 
ATOM     31  H   UNL     1       4.800   4.209  14.990  0.00  0.00    +0.000 HD
ENDBRANCH  23  24
ENDBRANCH   1  23
TORSDOF 6
ENDMDL
MODEL 7
REMARK VINA RESULT:      -8.2      1.925      9.551
REMARK  Name = 
REMARK  8 active torsions:
REMARK  status: ('A' for Active; 'I' for Inactive)
REMARK    1  A    between atoms: C_1  and  C_2
REMARK    2  A    between atoms: C_2  and  N_3
REMARK    3  A    between atoms: C_2  and  C_10
REMARK    4  A    between atoms: N_8  and  C_9
REMARK    5  A    between atoms: C_14  and  N_15
REMARK    6  A    between atoms: C_16  and  C_18
REMARK    7  A    between atoms: C_20  and  C_21
REMARK    8  A    between atoms: C_21  and  C_22
REMARK                            x       y       z     vdW  Elec       q    Type
REMARK                         _______ _______ _______ _____ _____    ______ ____
ROOT
ATOM      1  C   UNL     1       4.825   5.722  17.570  0.00  0.00    +0.000 A 
ATOM      2  C   UNL     1       4.395   4.675  18.410  0.00  0.00    +0.000 A 
ATOM      3  C   UNL     1       3.182   4.740  19.079  0.00  0.00    +0.000 A 
ATOM      4  C   UNL     1       2.395   5.881  18.966  0.00  0.00    +0.000 A 
ATOM      5  C   UNL     1       2.817   6.975  18.207  0.00  0.00    +0.000 A 
ATOM      6  C   UNL     1       4.014   6.872  17.466  0.00  0.00    +0.000 A 
ENDROOT
BRANCH   5   7
ATOM      7  N   UNL     1       2.085   8.185  18.176  0.00  0.00    +0.000 N 
ATOM      8  C   UNL     1       1.525   8.837  19.280  0.00  0.00    +0.000 C 
ATOM      9  O   UNL     1       1.531   8.448  20.445  0.00  0.00    +0.000 OA
ATOM     10  H   UNL     1       2.048   8.711  17.309  0.00  0.00    +0.000 HD
BRANCH   8  11
ATOM     11  C   UNL     1       0.915  10.168  18.974  0.00  0.00    +0.000 A 
ATOM     12  C   UNL     1      -0.470  10.264  18.823  0.00  0.00    +0.000 A 
ATOM     13  C   UNL     1      -1.040  11.515  18.558  0.00  0.00    +0.000 A 
ATOM     14  C   UNL     1      -0.177  12.611  18.439  0.00  0.00    +0.000 A 
ATOM     15  C   UNL     1       1.191  12.418  18.606  0.00  0.00    +0.000 A 
ATOM     16  N   UNL     1       1.762  11.226  18.879  0.00  0.00    +0.000 NA
BRANCH  13  17
ATOM     17  C   UNL     1      -2.524  11.666  18.342  0.00  0.00    +0.000 C 
BRANCH  17  18
ATOM     18  C   UNL     1      -2.977  11.192  17.036  0.00  0.00    +0.000 C 
ATOM     19  N   UNL     1      -2.483  10.673  15.976  0.00  0.00    +0.000 NA
ATOM     20  N   UNL     1      -3.807  10.664  15.395  0.00  0.00    +0.000 NA
ATOM     21  C   UNL     1      -4.283  11.197  16.445  0.00  0.00    +0.000 C 
ENDBRANCH  17  18
ENDBRANCH  13  17
ENDBRANCH   8  11
ENDBRANCH   5   7
BRANCH   1  23
ATOM     22  C   UNL     1       7.100   4.712  17.637  0.00  0.00    +0.000 C 
ATOM     23  C   UNL     1       6.089   5.452  16.753  0.00  0.00    +0.000 C 
BRANCH  23  24
ATOM     24  N   UNL     1       5.863   4.713  15.500  0.00  0.00    +0.000 N 
ATOM     25  C   UNL     1       6.761   4.946  14.502  0.00  0.00    +0.000 A 
ATOM     26  N   UNL     1       7.837   5.711  14.530  0.00  0.00    +0.000 NA
ATOM     27  N   UNL     1       8.419   5.702  13.283  0.00  0.00    +0.000 NA
ATOM     28  C   UNL     1       7.713   4.900  12.527  0.00  0.00    +0.000 A 
ATOM     29  N   UNL     1       6.673   4.390  13.248  0.00  0.00    +0.000 N 
ATOM     30  C   UNL     1       5.758   3.395  12.766  0.00  0.00    +0.000 C 
ATOM     31  H   UNL     1       4.885   4.688  15.233  0.00  0.00    +0.000 HD
ENDBRANCH  23  24
ENDBRANCH   1  23
TORSDOF 6
ENDMDL
MODEL 8
REMARK VINA RESULT:      -8.1      2.625      3.909
REMARK  Name = 
REMARK  8 active torsions:
REMARK  status: ('A' for Active; 'I' for Inactive)
REMARK    1  A    between atoms: C_1  and  C_2
REMARK    2  A    between atoms: C_2  and  N_3
REMARK    3  A    between atoms: C_2  and  C_10
REMARK    4  A    between atoms: N_8  and  C_9
REMARK    5  A    between atoms: C_14  and  N_15
REMARK    6  A    between atoms: C_16  and  C_18
REMARK    7  A    between atoms: C_20  and  C_21
REMARK    8  A    between atoms: C_21  and  C_22
REMARK                            x       y       z     vdW  Elec       q    Type
REMARK                         _______ _______ _______ _____ _____    ______ ____
ROOT
ATOM      1  C   UNL     1       0.098   9.987  20.491  0.00  0.00    +0.000 A 
ATOM      2  C   UNL     1      -0.530  10.586  19.381  0.00  0.00    +0.000 A 
ATOM      3  C   UNL     1      -0.209  10.213  18.083  0.00  0.00    +0.000 A 
ATOM      4  C   UNL     1       0.788   9.270  17.866  0.00  0.00    +0.000 A 
ATOM      5  C   UNL     1       1.492   8.706  18.934  0.00  0.00    +0.000 A 
ATOM      6  C   UNL     1       1.108   9.030  20.252  0.00  0.00    +0.000 A 
ENDROOT
BRANCH   5   7
ATOM      7  N   UNL     1       2.586   7.834  18.725  0.00  0.00    +0.000 N 
ATOM      8  C   UNL     1       2.729   6.550  19.260  0.00  0.00    +0.000 C 
ATOM      9  O   UNL     1       1.962   5.986  20.036  0.00  0.00    +0.000 OA
ATOM     10  H   UNL     1       3.286   8.087  18.036  0.00  0.00    +0.000 HD
BRANCH   8  11
ATOM     11  C   UNL     1       3.927   5.801  18.768  0.00  0.00    +0.000 A 
ATOM     12  C   UNL     1       4.014   5.469  17.415  0.00  0.00    +0.000 A 
ATOM     13  C   UNL     1       5.146   4.787  16.953  0.00  0.00    +0.000 A 
ATOM     14  C   UNL     1       6.132   4.454  17.890  0.00  0.00    +0.000 A 
ATOM     15  C   UNL     1       5.957   4.827  19.219  0.00  0.00    +0.000 A 
ATOM     16  N   UNL     1       4.884   5.500  19.685  0.00  0.00    +0.000 NA
BRANCH  13  17
ATOM     17  C   UNL     1       5.269   4.366  15.511  0.00  0.00    +0.000 C 
BRANCH  17  18
ATOM     18  C   UNL     1       6.461   4.892  14.847  0.00  0.00    +0.000 C 
ATOM     19  N   UNL     1       7.453   5.656  15.113  0.00  0.00    +0.000 NA
ATOM     20  N   UNL     1       7.928   5.463  13.761  0.00  0.00    +0.000 NA
ATOM     21  C   UNL     1       6.930   4.723  13.504  0.00  0.00    +0.000 C 
ENDBRANCH  17  18
ENDBRANCH  13  17
ENDBRANCH   8  11
ENDBRANCH   5   7
BRANCH   1  23
ATOM     22  C   UNL     1       0.221   9.496  22.930  0.00  0.00    +0.000 C 
ATOM     23  C   UNL     1      -0.470  10.354  21.862  0.00  0.00    +0.000 C 
BRANCH  23  24
ATOM     24  N   UNL     1      -0.369  11.782  22.205  0.00  0.00    +0.000 N 
ATOM     25  C   UNL     1      -1.433  12.310  22.872  0.00  0.00    +0.000 A 
ATOM     26  N   UNL     1      -2.523  11.694  23.295  0.00  0.00    +0.000 NA
ATOM     27  N   UNL     1      -3.363  12.622  23.866  0.00  0.00    +0.000 NA
ATOM     28  C   UNL     1      -2.755  13.781  23.820  0.00  0.00    +0.000 A 
ATOM     29  N   UNL     1      -1.538  13.635  23.221  0.00  0.00    +0.000 N 
ATOM     30  C   UNL     1      -0.561  14.679  23.097  0.00  0.00    +0.000 C 
ATOM     31  H   UNL     1       0.013  12.339  21.449  0.00  0.00    +0.000 HD
ENDBRANCH  23  24
ENDBRANCH   1  23
TORSDOF 6
ENDMDL
MODEL 9
REMARK VINA RESULT:      -8.1      1.596      3.109
REMARK  Name = 
REMARK  8 active torsions:
REMARK  status: ('A' for Active; 'I' for Inactive)
REMARK    1  A    between atoms: C_1  and  C_2
REMARK    2  A    between atoms: C_2  and  N_3
REMARK    3  A    between atoms: C_2  and  C_10
REMARK    4  A    between atoms: N_8  and  C_9
REMARK    5  A    between atoms: C_14  and  N_15
REMARK    6  A    between atoms: C_16  and  C_18
REMARK    7  A    between atoms: C_20  and  C_21
REMARK    8  A    between atoms: C_21  and  C_22
REMARK                            x       y       z     vdW  Elec       q    Type
REMARK                         _______ _______ _______ _____ _____    ______ ____
ROOT
ATOM      1  C   UNL     1      -0.170  10.720  19.715  0.00  0.00    +0.000 A 
ATOM      2  C   UNL     1      -0.487  10.634  21.086  0.00  0.00    +0.000 A 
ATOM      3  C   UNL     1       0.123   9.698  21.909  0.00  0.00    +0.000 A 
ATOM      4  C   UNL     1       1.025   8.790  21.367  0.00  0.00    +0.000 A 
ATOM      5  C   UNL     1       1.311   8.788  19.999  0.00  0.00    +0.000 A 
ATOM      6  C   UNL     1       0.749   9.791  19.182  0.00  0.00    +0.000 A 
ENDROOT
BRANCH   5   7
ATOM      7  N   UNL     1       2.136   7.798  19.414  0.00  0.00    +0.000 N 
ATOM      8  C   UNL     1       2.681   7.837  18.128  0.00  0.00    +0.000 C 
ATOM      9  O   UNL     1       2.499   8.703  17.276  0.00  0.00    +0.000 OA
ATOM     10  H   UNL     1       2.475   7.040  19.997  0.00  0.00    +0.000 HD
BRANCH   8  11
ATOM     11  C   UNL     1       3.623   6.716  17.816  0.00  0.00    +0.000 A 
ATOM     12  C   UNL     1       3.475   5.497  18.482  0.00  0.00    +0.000 A 
ATOM     13  C   UNL     1       4.343   4.444  18.173  0.00  0.00    +0.000 A 
ATOM     14  C   UNL     1       5.335   4.678  17.215  0.00  0.00    +0.000 A 
ATOM     15  C   UNL     1       5.405   5.927  16.603  0.00  0.00    +0.000 A 
ATOM     16  N   UNL     1       4.569   6.952  16.872  0.00  0.00    +0.000 NA
BRANCH  13  17
ATOM     17  C   UNL     1       4.255   3.123  18.895  0.00  0.00    +0.000 C 
BRANCH  17  18
ATOM     18  C   UNL     1       2.883   2.677  19.135  0.00  0.00    +0.000 C 
ATOM     19  N   UNL     1       2.099   2.467  20.123  0.00  0.00    +0.000 NA
ATOM     20  N   UNL     1       1.077   2.049  19.188  0.00  0.00    +0.000 NA
ATOM     21  C   UNL     1       1.872   2.242  18.217  0.00  0.00    +0.000 C 
ENDBRANCH  17  18
ENDBRANCH  13  17
ENDBRANCH   8  11
ENDBRANCH   5   7
BRANCH   1  23
ATOM     22  C   UNL     1       0.322  12.951  18.723  0.00  0.00    +0.000 C 
ATOM     23  C   UNL     1      -0.773  11.904  18.960  0.00  0.00    +0.000 C 
BRANCH  23  24
ATOM     24  N   UNL     1      -1.431  11.551  17.691  0.00  0.00    +0.000 N 
ATOM     25  C   UNL     1      -2.793  11.541  17.709  0.00  0.00    +0.000 A 
ATOM     26  N   UNL     1      -3.602  11.854  18.705  0.00  0.00    +0.000 NA
ATOM     27  N   UNL     1      -4.901  11.643  18.304  0.00  0.00    +0.000 NA
ATOM     28  C   UNL     1      -4.866  11.245  17.058  0.00  0.00    +0.000 A 
ATOM     29  N   UNL     1      -3.570  11.179  16.635  0.00  0.00    +0.000 N 
ATOM     30  C   UNL     1      -3.167  10.881  15.290  0.00  0.00    +0.000 C 
ATOM     31  H   UNL     1      -0.978  10.776  17.219  0.00  0.00    +0.000 HD
ENDBRANCH  23  24
ENDBRANCH   1  23
TORSDOF 6
ENDMDL
