MODEL 1
REMARK VINA RESULT:      -8.8      0.000      0.000
REMARK  Name = 
REMARK  5 active torsions:
REMARK  status: ('A' for Active; 'I' for Inactive)
REMARK    1  A    between atoms: C_2  and  C_3
REMARK    2  A    between atoms: C_6  and  C_7
REMARK    3  A    between atoms: C_7  and  N_8
REMARK    4  A    between atoms: C_10  and  C_11
REMARK    5  A    between atoms: C_15  and  C_16
REMARK                            x       y       z     vdW  Elec       q    Type
REMARK                         _______ _______ _______ _____ _____    ______ ____
ROOT
ATOM      1  C   UNL     1       2.406   7.169  17.736  0.00  0.00    +0.000 C 
ENDROOT
BRANCH   1   2
ATOM      2  N   UNL     1       3.211   6.010  18.105  0.00  0.00    +0.000 N 
ATOM      3  N   UNL     1       4.545   6.234  18.414  0.00  0.00    +0.000 NA
ATOM      4  C   UNL     1       5.253   5.193  18.712  0.00  0.00    +0.000 A 
ATOM      5  C   UNL     1       4.756   3.813  18.738  0.00  0.00    +0.000 A 
ATOM      6  C   UNL     1       3.471   3.611  18.425  0.00  0.00    +0.000 A 
ATOM      7  C   UNL     1       2.609   4.761  18.079  0.00  0.00    +0.000 A 
ATOM      8  O   UNL     1       1.427   4.597  17.795  0.00  0.00    +0.000 OA
BRANCH   6   9
ATOM      9  C   UNL     1       2.857   2.262  18.403  0.00  0.00    +0.000 C 
ATOM     10  F   UNL     1       1.862   2.019  19.288  0.00  0.00    +0.000 F 
ATOM     11  F   UNL     1       2.341   1.996  17.170  0.00  0.00    +0.000 F 
ATOM     12  F   UNL     1       3.803   1.304  18.617  0.00  0.00    +0.000 F 
ENDBRANCH   6   9
BRANCH   4  13
ATOM     13  C   UNL     1       6.699   5.370  18.997  0.00  0.00    +0.000 C 
ATOM     14  C   UNL     1       7.544   6.312  18.167  0.00  0.00    +0.000 C 
ATOM     15  C   UNL     1       7.763   4.833  18.072  0.00  0.00    +0.000 C 
ENDBRANCH   4  13
ENDBRANCH   1   2
BRANCH   1  19
ATOM     16  C   UNL     1       0.826   9.381  21.104  0.00  0.00    +0.000 A 
ATOM     17  C   UNL     1       1.263   8.068  21.301  0.00  0.00    +0.000 A 
ATOM     18  C   UNL     1       1.799   7.340  20.226  0.00  0.00    +0.000 A 
ATOM     19  C   UNL     1       1.878   7.916  18.942  0.00  0.00    +0.000 A 
ATOM     20  C   UNL     1       1.469   9.238  18.766  0.00  0.00    +0.000 A 
ATOM     21  C   UNL     1       1.018   9.975  19.853  0.00  0.00    +0.000 A 
BRANCH  16  23
ATOM     22  O   UNL     1       0.445   9.862  23.371  0.00  0.00    +0.000 OA
ATOM     23  C   UNL     1       0.192  10.172  22.205  0.00  0.00    +0.000 C 
ATOM     24  N   UNL     1      -0.657  11.219  21.858  0.00  0.00    +0.000 N 
ATOM     25  C   UNL     1      -1.217  12.100  22.869  0.00  0.00    +0.000 C 
ATOM     26  C   UNL     1      -2.549  12.544  22.288  0.00  0.00    +0.000 C 
ATOM     27  C   UNL     1      -2.293  12.581  20.794  0.00  0.00    +0.000 C 
ATOM     28  C   UNL     1      -1.307  11.448  20.568  0.00  0.00    +0.000 C 
ENDBRANCH  16  23
ENDBRANCH   1  19
TORSDOF 5
ENDMDL
MODEL 2
REMARK VINA RESULT:      -8.7      3.056      3.793
REMARK  Name = 
REMARK  5 active torsions:
REMARK  status: ('A' for Active; 'I' for Inactive)
REMARK    1  A    between atoms: C_2  and  C_3
REMARK    2  A    between atoms: C_6  and  C_7
REMARK    3  A    between atoms: C_7  and  N_8
REMARK    4  A    between atoms: C_10  and  C_11
REMARK    5  A    between atoms: C_15  and  C_16
REMARK                            x       y       z     vdW  Elec       q    Type
REMARK                         _______ _______ _______ _____ _____    ______ ____
ROOT
ATOM      1  C   UNL     1       2.907   5.290  18.331  0.00  0.00    +0.000 C 
ENDROOT
BRANCH   1   2
ATOM      2  N   UNL     1       4.258   5.373  17.788  0.00  0.00    +0.000 N 
ATOM      3  N   UNL     1       4.397   5.281  16.410  0.00  0.00    +0.000 NA
ATOM      4  C   UNL     1       5.603   5.329  15.946  0.00  0.00    +0.000 A 
ATOM      5  C   UNL     1       6.817   5.463  16.758  0.00  0.00    +0.000 A 
ATOM      6  C   UNL     1       6.669   5.538  18.086  0.00  0.00    +0.000 A 
ATOM      7  C   UNL     1       5.315   5.492  18.679  0.00  0.00    +0.000 A 
ATOM      8  O   UNL     1       5.157   5.565  19.893  0.00  0.00    +0.000 OA
BRANCH   6   9
ATOM      9  C   UNL     1       7.819   5.661  19.013  0.00  0.00    +0.000 C 
ATOM     10  F   UNL     1       7.558   5.577  20.339  0.00  0.00    +0.000 F 
ATOM     11  F   UNL     1       8.747   4.700  18.748  0.00  0.00    +0.000 F 
ATOM     12  F   UNL     1       8.458   6.849  18.823  0.00  0.00    +0.000 F 
ENDBRANCH   6   9
BRANCH   4  13
ATOM     13  C   UNL     1       5.812   5.179  14.483  0.00  0.00    +0.000 C 
ATOM     14  C   UNL     1       6.058   3.818  13.870  0.00  0.00    +0.000 C 
ATOM     15  C   UNL     1       7.161   4.831  13.905  0.00  0.00    +0.000 C 
ENDBRANCH   4  13
ENDBRANCH   1   2
BRANCH   1  19
ATOM     16  C   UNL     1       1.360   9.159  19.498  0.00  0.00    +0.000 A 
ATOM     17  C   UNL     1       1.434   8.143  20.454  0.00  0.00    +0.000 A 
ATOM     18  C   UNL     1       1.952   6.886  20.101  0.00  0.00    +0.000 A 
ATOM     19  C   UNL     1       2.379   6.634  18.782  0.00  0.00    +0.000 A 
ATOM     20  C   UNL     1       2.331   7.667  17.846  0.00  0.00    +0.000 A 
ATOM     21  C   UNL     1       1.895   8.929  18.226  0.00  0.00    +0.000 A 
BRANCH  16  23
ATOM     22  O   UNL     1       1.283  11.181  20.691  0.00  0.00    +0.000 OA
ATOM     23  C   UNL     1       0.759  10.493  19.813  0.00  0.00    +0.000 C 
ATOM     24  N   UNL     1      -0.368  10.892  19.099  0.00  0.00    +0.000 N 
ATOM     25  C   UNL     1      -0.937  12.218  19.271  0.00  0.00    +0.000 C 
ATOM     26  C   UNL     1      -2.419  12.033  18.989  0.00  0.00    +0.000 C 
ATOM     27  C   UNL     1      -2.450  10.932  17.947  0.00  0.00    +0.000 C 
ATOM     28  C   UNL     1      -1.273  10.047  18.321  0.00  0.00    +0.000 C 
ENDBRANCH  16  23
ENDBRANCH   1  19
TORSDOF 5
ENDMDL
MODEL 3
REMARK VINA RESULT:      -8.7      2.952      3.744
REMARK  Name = 
REMARK  5 active torsions:
REMARK  status: ('A' for Active; 'I' for Inactive)
REMARK    1  A    between atoms: C_2  and  C_3
REMARK    2  A    between atoms: C_6  and  C_7
REMARK    3  A    between atoms: C_7  and  N_8
REMARK    4  A    between atoms: C_10  and  C_11
REMARK    5  A    between atoms: C_15  and  C_16
REMARK                            x       y       z     vdW  Elec       q    Type
REMARK                         _______ _______ _______ _____ _____    ______ ____
ROOT
ATOM      1  C   UNL     1       2.960   5.086  18.500  0.00  0.00    +0.000 C 
ENDROOT
BRANCH   1   2
ATOM      2  N   UNL     1       4.290   5.239  17.921  0.00  0.00    +0.000 N 
ATOM      3  N   UNL     1       4.392   5.181  16.537  0.00  0.00    +0.000 NA
ATOM      4  C   UNL     1       5.581   5.290  16.040  0.00  0.00    +0.000 A 
ATOM      5  C   UNL     1       6.812   5.458  16.821  0.00  0.00    +0.000 A 
ATOM      6  C   UNL     1       6.699   5.499  18.154  0.00  0.00    +0.000 A 
ATOM      7  C   UNL     1       5.366   5.384  18.783  0.00  0.00    +0.000 A 
ATOM      8  O   UNL     1       5.241   5.425  20.003  0.00  0.00    +0.000 OA
BRANCH   6   9
ATOM      9  C   UNL     1       7.870   5.652  19.050  0.00  0.00    +0.000 C 
ATOM     10  F   UNL     1       7.640   5.600  20.383  0.00  0.00    +0.000 F 
ATOM     11  F   UNL     1       8.797   4.689  18.788  0.00  0.00    +0.000 F 
ATOM     12  F   UNL     1       8.498   6.838  18.814  0.00  0.00    +0.000 F 
ENDBRANCH   6   9
BRANCH   4  13
ATOM     13  C   UNL     1       5.753   5.180  14.570  0.00  0.00    +0.000 C 
ATOM     14  C   UNL     1       6.041   3.845  13.920  0.00  0.00    +0.000 C 
ATOM     15  C   UNL     1       7.099   4.906  13.945  0.00  0.00    +0.000 C 
ENDBRANCH   4  13
ENDBRANCH   1   2
BRANCH   1  19
ATOM     16  C   UNL     1       1.332   8.811  19.986  0.00  0.00    +0.000 A 
ATOM     17  C   UNL     1       1.817   8.758  18.677  0.00  0.00    +0.000 A 
ATOM     18  C   UNL     1       2.330   7.554  18.168  0.00  0.00    +0.000 A 
ATOM     19  C   UNL     1       2.381   6.401  18.977  0.00  0.00    +0.000 A 
ATOM     20  C   UNL     1       1.863   6.458  20.270  0.00  0.00    +0.000 A 
ATOM     21  C   UNL     1       1.283   7.630  20.735  0.00  0.00    +0.000 A 
BRANCH  16  23
ATOM     22  O   UNL     1       1.325  10.462  21.656  0.00  0.00    +0.000 OA
ATOM     23  C   UNL     1       0.833  10.085  20.590  0.00  0.00    +0.000 C 
ATOM     24  N   UNL     1      -0.166  10.785  19.920  0.00  0.00    +0.000 N 
ATOM     25  C   UNL     1      -0.618  12.085  20.387  0.00  0.00    +0.000 C 
ATOM     26  C   UNL     1      -2.073  12.158  19.952  0.00  0.00    +0.000 C 
ATOM     27  C   UNL     1      -2.100  11.366  18.659  0.00  0.00    +0.000 C 
ATOM     28  C   UNL     1      -1.062  10.279  18.879  0.00  0.00    +0.000 C 
ENDBRANCH  16  23
ENDBRANCH   1  19
TORSDOF 5
ENDMDL
MODEL 4
REMARK VINA RESULT:      -8.7      4.750      9.239
REMARK  Name = 
REMARK  5 active torsions:
REMARK  status: ('A' for Active; 'I' for Inactive)
REMARK    1  A    between atoms: C_2  and  C_3
REMARK    2  A    between atoms: C_6  and  C_7
REMARK    3  A    between atoms: C_7  and  N_8
REMARK    4  A    between atoms: C_10  and  C_11
REMARK    5  A    between atoms: C_15  and  C_16
REMARK                            x       y       z     vdW  Elec       q    Type
REMARK                         _______ _______ _______ _____ _____    ______ ____
ROOT
ATOM      1  C   UNL     1       0.790   9.514  20.666  0.00  0.00    +0.000 C 
ENDROOT
BRANCH   1   2
ATOM      2  N   UNL     1       0.104  10.509  19.849  0.00  0.00    +0.000 N 
ATOM      3  N   UNL     1      -0.994  10.082  19.114  0.00  0.00    +0.000 NA
ATOM      4  C   UNL     1      -1.574  10.969  18.374  0.00  0.00    +0.000 A 
ATOM      5  C   UNL     1      -1.158  12.370  18.249  0.00  0.00    +0.000 A 
ATOM      6  C   UNL     1      -0.090  12.764  18.954  0.00  0.00    +0.000 A 
ATOM      7  C   UNL     1       0.615  11.798  19.823  0.00  0.00    +0.000 A 
ATOM      8  O   UNL     1       1.592  12.140  20.481  0.00  0.00    +0.000 OA
BRANCH   6   9
ATOM      9  C   UNL     1       0.435  14.149  18.902  0.00  0.00    +0.000 C 
ATOM     10  F   UNL     1       0.629  14.784  20.082  0.00  0.00    +0.000 F 
ATOM     11  F   UNL     1       1.633  14.178  18.255  0.00  0.00    +0.000 F 
ATOM     12  F   UNL     1      -0.395  14.945  18.170  0.00  0.00    +0.000 F 
ENDBRANCH   6   9
BRANCH   4  13
ATOM     13  C   UNL     1      -2.719  10.553  17.525  0.00  0.00    +0.000 C 
ATOM     14  C   UNL     1      -2.500   9.723  16.279  0.00  0.00    +0.000 C 
ATOM     15  C   UNL     1      -2.952  11.146  16.157  0.00  0.00    +0.000 C 
ENDBRANCH   4  13
ENDBRANCH   1   2
BRANCH   1  19
ATOM     16  C   UNL     1       2.888   6.515  18.356  0.00  0.00    +0.000 A 
ATOM     17  C   UNL     1       2.601   7.748  17.764  0.00  0.00    +0.000 A 
ATOM     18  C   UNL     1       1.940   8.742  18.503  0.00  0.00    +0.000 A 
ATOM     19  C   UNL     1       1.542   8.498  19.832  0.00  0.00    +0.000 A 
ATOM     20  C   UNL     1       1.863   7.276  20.422  0.00  0.00    +0.000 A 
ATOM     21  C   UNL     1       2.590   6.331  19.711  0.00  0.00    +0.000 A 
BRANCH  16  23
ATOM     22  O   UNL     1       2.886   4.378  17.382  0.00  0.00    +0.000 OA
ATOM     23  C   UNL     1       3.535   5.405  17.589  0.00  0.00    +0.000 C 
ATOM     24  N   UNL     1       4.843   5.585  17.148  0.00  0.00    +0.000 N 
ATOM     25  C   UNL     1       5.495   4.600  16.302  0.00  0.00    +0.000 C 
ATOM     26  C   UNL     1       6.970   4.718  16.650  0.00  0.00    +0.000 C 
ATOM     27  C   UNL     1       7.141   6.187  16.986  0.00  0.00    +0.000 C 
ATOM     28  C   UNL     1       5.817   6.567  17.626  0.00  0.00    +0.000 C 
ENDBRANCH  16  23
ENDBRANCH   1  19
TORSDOF 5
ENDMDL
MODEL 5
REMARK VINA RESULT:      -8.4      2.995      3.762
REMARK  Name = 
REMARK  5 active torsions:
REMARK  status: ('A' for Active; 'I' for Inactive)
REMARK    1  A    between atoms: C_2  and  C_3
REMARK    2  A    between atoms: C_6  and  C_7
REMARK    3  A    between atoms: C_7  and  N_8
REMARK    4  A    between atoms: C_10  and  C_11
REMARK    5  A    between atoms: C_15  and  C_16
REMARK                            x       y       z     vdW  Elec       q    Type
REMARK                         _______ _______ _______ _____ _____    ______ ____
ROOT
ATOM      1  C   UNL     1       2.943   5.274  18.290  0.00  0.00    +0.000 C 
ENDROOT
BRANCH   1   2
ATOM      2  N   UNL     1       4.296   5.365  17.752  0.00  0.00    +0.000 N 
ATOM      3  N   UNL     1       4.440   5.277  16.374  0.00  0.00    +0.000 NA
ATOM      4  C   UNL     1       5.648   5.331  15.915  0.00  0.00    +0.000 A 
ATOM      5  C   UNL     1       6.858   5.469  16.733  0.00  0.00    +0.000 A 
ATOM      6  C   UNL     1       6.704   5.540  18.060  0.00  0.00    +0.000 A 
ATOM      7  C   UNL     1       5.348   5.487  18.647  0.00  0.00    +0.000 A 
ATOM      8  O   UNL     1       5.186   5.557  19.861  0.00  0.00    +0.000 OA
BRANCH   6   9
ATOM      9  C   UNL     1       7.850   5.666  18.992  0.00  0.00    +0.000 C 
ATOM     10  F   UNL     1       7.584   5.584  20.317  0.00  0.00    +0.000 F 
ATOM     11  F   UNL     1       8.781   4.706  18.732  0.00  0.00    +0.000 F 
ATOM     12  F   UNL     1       8.489   6.856  18.802  0.00  0.00    +0.000 F 
ENDBRANCH   6   9
BRANCH   4  13
ATOM     13  C   UNL     1       5.863   5.186  14.453  0.00  0.00    +0.000 C 
ATOM     14  C   UNL     1       6.083   3.824  13.833  0.00  0.00    +0.000 C 
ATOM     15  C   UNL     1       7.209   4.812  13.881  0.00  0.00    +0.000 C 
ENDBRANCH   4  13
ENDBRANCH   1   2
BRANCH   1  19
ATOM     16  C   UNL     1       1.365   9.129  19.465  0.00  0.00    +0.000 A 
ATOM     17  C   UNL     1       1.541   8.143  20.440  0.00  0.00    +0.000 A 
ATOM     18  C   UNL     1       2.072   6.893  20.083  0.00  0.00    +0.000 A 
ATOM     19  C   UNL     1       2.407   6.616  18.743  0.00  0.00    +0.000 A 
ATOM     20  C   UNL     1       2.258   7.619  17.785  0.00  0.00    +0.000 A 
ATOM     21  C   UNL     1       1.811   8.878  18.163  0.00  0.00    +0.000 A 
BRANCH  16  23
ATOM     22  O   UNL     1       0.976  11.406  19.039  0.00  0.00    +0.000 OA
ATOM     23  C   UNL     1       0.747  10.453  19.787  0.00  0.00    +0.000 C 
ATOM     24  N   UNL     1      -0.056  10.546  20.920  0.00  0.00    +0.000 N 
ATOM     25  C   UNL     1      -0.779  11.767  21.232  0.00  0.00    +0.000 C 
ATOM     26  C   UNL     1      -0.876  11.773  22.749  0.00  0.00    +0.000 C 
ATOM     27  C   UNL     1      -0.965  10.302  23.107  0.00  0.00    +0.000 C 
ATOM     28  C   UNL     1      -0.108   9.622  22.052  0.00  0.00    +0.000 C 
ENDBRANCH  16  23
ENDBRANCH   1  19
TORSDOF 5
ENDMDL
MODEL 6
REMARK VINA RESULT:      -8.4      0.552      1.128
REMARK  Name = 
REMARK  5 active torsions:
REMARK  status: ('A' for Active; 'I' for Inactive)
REMARK    1  A    between atoms: C_2  and  C_3
REMARK    2  A    between atoms: C_6  and  C_7
REMARK    3  A    between atoms: C_7  and  N_8
REMARK    4  A    between atoms: C_10  and  C_11
REMARK    5  A    between atoms: C_15  and  C_16
REMARK                            x       y       z     vdW  Elec       q    Type
REMARK                         _______ _______ _______ _____ _____    ______ ____
ROOT
ATOM      1  C   UNL     1       2.839   7.142  17.239  0.00  0.00    +0.000 C 
ENDROOT
BRANCH   1   2
ATOM      2  N   UNL     1       3.579   5.975  17.705  0.00  0.00    +0.000 N 
ATOM      3  N   UNL     1       4.947   6.122  17.893  0.00  0.00    +0.000 NA
ATOM      4  C   UNL     1       5.594   5.071  18.280  0.00  0.00    +0.000 A 
ATOM      5  C   UNL     1       4.998   3.753  18.522  0.00  0.00    +0.000 A 
ATOM      6  C   UNL     1       3.681   3.623  18.325  0.00  0.00    +0.000 A 
ATOM      7  C   UNL     1       2.884   4.788  17.886  0.00  0.00    +0.000 A 
ATOM      8  O   UNL     1       1.675   4.691  17.705  0.00  0.00    +0.000 OA
BRANCH   6   9
ATOM      9  C   UNL     1       2.966   2.339  18.523  0.00  0.00    +0.000 C 
ATOM     10  F   UNL     1       1.969   2.320  19.438  0.00  0.00    +0.000 F 
ATOM     11  F   UNL     1       2.413   1.919  17.351  0.00  0.00    +0.000 F 
ATOM     12  F   UNL     1       3.841   1.359  18.887  0.00  0.00    +0.000 F 
ENDBRANCH   6   9
BRANCH   4  13
ATOM     13  C   UNL     1       7.067   5.160  18.443  0.00  0.00    +0.000 C 
ATOM     14  C   UNL     1       7.676   5.677  19.727  0.00  0.00    +0.000 C 
ATOM     15  C   UNL     1       7.786   6.486  18.471  0.00  0.00    +0.000 C 
ENDBRANCH   4  13
ENDBRANCH   1   2
BRANCH   1  19
ATOM     16  C   UNL     1       1.083   9.284  20.565  0.00  0.00    +0.000 A 
ATOM     17  C   UNL     1       1.066   9.870  19.296  0.00  0.00    +0.000 A 
ATOM     18  C   UNL     1       1.611   9.182  18.200  0.00  0.00    +0.000 A 
ATOM     19  C   UNL     1       2.198   7.913  18.373  0.00  0.00    +0.000 A 
ATOM     20  C   UNL     1       2.180   7.325  19.637  0.00  0.00    +0.000 A 
ATOM     21  C   UNL     1       1.564   7.977  20.698  0.00  0.00    +0.000 A 
BRANCH  16  23
ATOM     22  O   UNL     1       0.988   9.665  22.880  0.00  0.00    +0.000 OA
ATOM     23  C   UNL     1       0.570  10.005  21.772  0.00  0.00    +0.000 C 
ATOM     24  N   UNL     1      -0.359  11.024  21.584  0.00  0.00    +0.000 N 
ATOM     25  C   UNL     1      -0.815  11.841  22.696  0.00  0.00    +0.000 C 
ATOM     26  C   UNL     1      -2.230  12.244  22.314  0.00  0.00    +0.000 C 
ATOM     27  C   UNL     1      -2.176  12.348  20.802  0.00  0.00    +0.000 C 
ATOM     28  C   UNL     1      -1.184  11.270  20.401  0.00  0.00    +0.000 C 
ENDBRANCH  16  23
ENDBRANCH   1  19
TORSDOF 5
ENDMDL
MODEL 7
REMARK VINA RESULT:      -8.4      2.383      2.958
REMARK  Name = 
REMARK  5 active torsions:
REMARK  status: ('A' for Active; 'I' for Inactive)
REMARK    1  A    between atoms: C_2  and  C_3
REMARK    2  A    between atoms: C_6  and  C_7
REMARK    3  A    between atoms: C_7  and  N_8
REMARK    4  A    between atoms: C_10  and  C_11
REMARK    5  A    between atoms: C_15  and  C_16
REMARK                            x       y       z     vdW  Elec       q    Type
REMARK                         _______ _______ _______ _____ _____    ______ ____
ROOT
ATOM      1  C   UNL     1       2.126   6.911  20.658  0.00  0.00    +0.000 C 
ENDROOT
BRANCH   1   2
ATOM      2  N   UNL     1       2.513   5.959  19.623  0.00  0.00    +0.000 N 
ATOM      3  N   UNL     1       3.450   6.381  18.689  0.00  0.00    +0.000 NA
ATOM      4  C   UNL     1       3.762   5.535  17.762  0.00  0.00    +0.000 A 
ATOM      5  C   UNL     1       3.201   4.187  17.622  0.00  0.00    +0.000 A 
ATOM      6  C   UNL     1       2.289   3.800  18.522  0.00  0.00    +0.000 A 
ATOM      7  C   UNL     1       1.892   4.719  19.610  0.00  0.00    +0.000 A 
ATOM      8  O   UNL     1       1.063   4.381  20.448  0.00  0.00    +0.000 OA
BRANCH   6   9
ATOM      9  C   UNL     1       1.640   2.468  18.479  0.00  0.00    +0.000 C 
ATOM     10  F   UNL     1       0.288   2.439  18.424  0.00  0.00    +0.000 F 
ATOM     11  F   UNL     1       2.078   1.761  17.400  0.00  0.00    +0.000 F 
ATOM     12  F   UNL     1       1.996   1.730  19.569  0.00  0.00    +0.000 F 
ENDBRANCH   6   9
BRANCH   4  13
ATOM     13  C   UNL     1       4.718   5.955  16.706  0.00  0.00    +0.000 C 
ATOM     14  C   UNL     1       6.153   5.475  16.724  0.00  0.00    +0.000 C 
ATOM     15  C   UNL     1       5.845   6.917  16.991  0.00  0.00    +0.000 C 
ENDBRANCH   4  13
ENDBRANCH   1   2
BRANCH   1  19
ATOM     16  C   UNL     1       0.333  10.549  19.146  0.00  0.00    +0.000 A 
ATOM     17  C   UNL     1       1.163   9.803  18.305  0.00  0.00    +0.000 A 
ATOM     18  C   UNL     1       1.738   8.608  18.770  0.00  0.00    +0.000 A 
ATOM     19  C   UNL     1       1.502   8.167  20.087  0.00  0.00    +0.000 A 
ATOM     20  C   UNL     1       0.645   8.903  20.904  0.00  0.00    +0.000 A 
ATOM     21  C   UNL     1       0.016  10.037  20.409  0.00  0.00    +0.000 A 
BRANCH  16  23
ATOM     22  O   UNL     1      -1.232  11.846  17.969  0.00  0.00    +0.000 OA
ATOM     23  C   UNL     1      -0.251  11.858  18.716  0.00  0.00    +0.000 C 
ATOM     24  N   UNL     1       0.345  13.028  19.177  0.00  0.00    +0.000 N 
ATOM     25  C   UNL     1      -0.234  14.330  18.893  0.00  0.00    +0.000 C 
ATOM     26  C   UNL     1       0.956  15.274  18.856  0.00  0.00    +0.000 C 
ATOM     27  C   UNL     1       1.917  14.677  19.866  0.00  0.00    +0.000 C 
ATOM     28  C   UNL     1       1.684  13.181  19.746  0.00  0.00    +0.000 C 
ENDBRANCH  16  23
ENDBRANCH   1  19
TORSDOF 5
ENDMDL
MODEL 8
REMARK VINA RESULT:      -8.3      4.847      9.270
REMARK  Name = 
REMARK  5 active torsions:
REMARK  status: ('A' for Active; 'I' for Inactive)
REMARK    1  A    between atoms: C_2  and  C_3
REMARK    2  A    between atoms: C_6  and  C_7
REMARK    3  A    between atoms: C_7  and  N_8
REMARK    4  A    between atoms: C_10  and  C_11
REMARK    5  A    between atoms: C_15  and  C_16
REMARK                            x       y       z     vdW  Elec       q    Type
REMARK                         _______ _______ _______ _____ _____    ______ ____
ROOT
ATOM      1  C   UNL     1       0.509   9.907  20.774  0.00  0.00    +0.000 C 
ENDROOT
BRANCH   1   2
ATOM      2  N   UNL     1       0.002  10.963  19.906  0.00  0.00    +0.000 N 
ATOM      3  N   UNL     1      -0.986  10.618  18.993  0.00  0.00    +0.000 NA
ATOM      4  C   UNL     1      -1.405  11.559  18.211  0.00  0.00    +0.000 A 
ATOM      5  C   UNL     1      -0.914  12.941  18.213  0.00  0.00    +0.000 A 
ATOM      6  C   UNL     1       0.047  13.256  19.089  0.00  0.00    +0.000 A 
ATOM      7  C   UNL     1       0.567  12.226  20.013  0.00  0.00    +0.000 A 
ATOM      8  O   UNL     1       1.444  12.496  20.827  0.00  0.00    +0.000 OA
BRANCH   6   9
ATOM      9  C   UNL     1       0.634  14.615  19.177  0.00  0.00    +0.000 C 
ATOM     10  F   UNL     1       0.717  15.176  20.406  0.00  0.00    +0.000 F 
ATOM     11  F   UNL     1       1.900  14.618  18.673  0.00  0.00    +0.000 F 
ATOM     12  F   UNL     1      -0.070  15.488  18.403  0.00  0.00    +0.000 F 
ENDBRANCH   6   9
BRANCH   4  13
ATOM     13  C   UNL     1      -2.422  11.231  17.180  0.00  0.00    +0.000 C 
ATOM     14  C   UNL     1      -3.897  11.413  17.460  0.00  0.00    +0.000 C 
ATOM     15  C   UNL     1      -3.331  10.034  17.313  0.00  0.00    +0.000 C 
ENDBRANCH   4  13
ENDBRANCH   1   2
BRANCH   1  19
ATOM     16  C   UNL     1       2.662   6.794  18.675  0.00  0.00    +0.000 A 
ATOM     17  C   UNL     1       2.362   7.982  18.002  0.00  0.00    +0.000 A 
ATOM     18  C   UNL     1       1.682   9.013  18.672  0.00  0.00    +0.000 A 
ATOM     19  C   UNL     1       1.280   8.850  20.012  0.00  0.00    +0.000 A 
ATOM     20  C   UNL     1       1.615   7.674  20.682  0.00  0.00    +0.000 A 
ATOM     21  C   UNL     1       2.359   6.695  20.037  0.00  0.00    +0.000 A 
BRANCH  16  23
ATOM     22  O   UNL     1       4.242   5.888  17.193  0.00  0.00    +0.000 OA
ATOM     23  C   UNL     1       3.329   5.646  17.985  0.00  0.00    +0.000 C 
ATOM     24  N   UNL     1       2.884   4.359  18.269  0.00  0.00    +0.000 N 
ATOM     25  C   UNL     1       3.557   3.192  17.725  0.00  0.00    +0.000 C 
ATOM     26  C   UNL     1       2.461   2.147  17.596  0.00  0.00    +0.000 C 
ATOM     27  C   UNL     1       1.532   2.460  18.753  0.00  0.00    +0.000 C 
ATOM     28  C   UNL     1       1.614   3.971  18.884  0.00  0.00    +0.000 C 
ENDBRANCH  16  23
ENDBRANCH   1  19
TORSDOF 5
ENDMDL
MODEL 9
REMARK VINA RESULT:      -8.3      4.757      8.955
REMARK  Name = 
REMARK  5 active torsions:
REMARK  status: ('A' for Active; 'I' for Inactive)
REMARK    1  A    between atoms: C_2  and  C_3
REMARK    2  A    between atoms: C_6  and  C_7
REMARK    3  A    between atoms: C_7  and  N_8
REMARK    4  A    between atoms: C_10  and  C_11
REMARK    5  A    between atoms: C_15  and  C_16
REMARK                            x       y       z     vdW  Elec       q    Type
REMARK                         _______ _______ _______ _____ _____    ______ ____
ROOT
ATOM      1  C   UNL     1       1.392  10.387  18.543  0.00  0.00    +0.000 C 
ENDROOT
BRANCH   1   2
ATOM      2  N   UNL     1      -0.035  10.690  18.550  0.00  0.00    +0.000 N 
ATOM      3  N   UNL     1      -0.816  10.098  17.567  0.00  0.00    +0.000 NA
ATOM      4  C   UNL     1      -2.074  10.398  17.569  0.00  0.00    +0.000 A 
ATOM      5  C   UNL     1      -2.723  11.311  18.515  0.00  0.00    +0.000 A 
ATOM      6  C   UNL     1      -1.956  11.884  19.450  0.00  0.00    +0.000 A 
ATOM      7  C   UNL     1      -0.510  11.579  19.503  0.00  0.00    +0.000 A 
ATOM      8  O   UNL     1       0.210  12.089  20.355  0.00  0.00    +0.000 OA
BRANCH   6   9
ATOM      9  C   UNL     1      -2.493  12.834  20.453  0.00  0.00    +0.000 C 
ATOM     10  F   UNL     1      -1.940  14.070  20.494  0.00  0.00    +0.000 F 
ATOM     11  F   UNL     1      -3.828  13.023  20.260  0.00  0.00    +0.000 F 
ATOM     12  F   UNL     1      -2.374  12.318  21.709  0.00  0.00    +0.000 F 
ENDBRANCH   6   9
BRANCH   4  13
ATOM     13  C   UNL     1      -2.944   9.836  16.505  0.00  0.00    +0.000 C 
ATOM     14  C   UNL     1      -2.808  10.293  15.069  0.00  0.00    +0.000 C 
ATOM     15  C   UNL     1      -4.032  10.653  15.854  0.00  0.00    +0.000 C 
ENDBRANCH   4  13
ENDBRANCH   1   2
BRANCH   1  19
ATOM     16  C   UNL     1       2.125   6.314  19.810  0.00  0.00    +0.000 A 
ATOM     17  C   UNL     1       2.573   6.723  18.551  0.00  0.00    +0.000 A 
ATOM     18  C   UNL     1       2.364   8.046  18.129  0.00  0.00    +0.000 A 
ATOM     19  C   UNL     1       1.684   8.961  18.958  0.00  0.00    +0.000 A 
ATOM     20  C   UNL     1       1.272   8.550  20.226  0.00  0.00    +0.000 A 
ATOM     21  C   UNL     1       1.557   7.264  20.665  0.00  0.00    +0.000 A 
BRANCH  16  23
ATOM     22  O   UNL     1       2.395   4.689  21.484  0.00  0.00    +0.000 OA
ATOM     23  C   UNL     1       2.271   4.900  20.276  0.00  0.00    +0.000 C 
ATOM     24  N   UNL     1       2.264   3.888  19.320  0.00  0.00    +0.000 N 
ATOM     25  C   UNL     1       2.287   2.487  19.706  0.00  0.00    +0.000 C 
ATOM     26  C   UNL     1       3.000   1.790  18.559  0.00  0.00    +0.000 C 
ATOM     27  C   UNL     1       2.603   2.605  17.343  0.00  0.00    +0.000 C 
ATOM     28  C   UNL     1       2.488   4.021  17.881  0.00  0.00    +0.000 C 
ENDBRANCH  16  23
ENDBRANCH   1  19
TORSDOF 5
ENDMDL
