MODEL 1
REMARK VINA RESULT:      -8.0      0.000      0.000
REMARK  Name = 
REMARK  6 active torsions:
REMARK  status: ('A' for Active; 'I' for Inactive)
REMARK    1  A    between atoms: C_2  and  C_16
REMARK    2  A    between atoms: N_3  and  C_4
REMARK    3  A    between atoms: C_10  and  O_11
REMARK    4  A    between atoms: O_11  and  C_12
REMARK    5  A    between atoms: C_12  and  C_13
REMARK    6  A    between atoms: C_20  and  N_21
REMARK                            x       y       z     vdW  Elec       q    Type
REMARK                         _______ _______ _______ _____ _____    ______ ____
ROOT
ATOM      1  O   UNL     1       2.388   9.510  17.251  0.00  0.00    +0.000 OA
ATOM      2  C   UNL     1       2.045   8.816  18.202  0.00  0.00    +0.000 C 
ATOM      3  N   UNL     1       1.076   9.161  19.135  0.00  0.00    +0.000 N 
ATOM      4  H   UNL     1       1.112   8.676  20.010  0.00  0.00    +0.000 HD
ENDROOT
BRANCH   3   5
ATOM      5  C   UNL     1       0.489  10.450  19.188  0.00  0.00    +0.000 A 
ATOM      6  C   UNL     1       1.010  11.302  20.172  0.00  0.00    +0.000 A 
ATOM      7  C   UNL     1       0.520  12.594  20.309  0.00  0.00    +0.000 A 
ATOM      8  F   UNL     1       1.038  13.398  21.240  0.00  0.00    +0.000 F 
ATOM      9  C   UNL     1      -0.494  13.061  19.486  0.00  0.00    +0.000 A 
ATOM     10  C   UNL     1      -1.038  12.213  18.523  0.00  0.00    +0.000 A 
ATOM     11  C   UNL     1      -0.587  10.887  18.387  0.00  0.00    +0.000 A 
BRANCH  11  12
ATOM     12  O   UNL     1      -1.220   9.967  17.578  0.00  0.00    +0.000 OA
BRANCH  12  13
ATOM     13  C   UNL     1      -2.622   9.791  17.818  0.00  0.00    +0.000 C 
BRANCH  13  14
ATOM     14  C   UNL     1      -3.375   9.923  16.531  0.00  0.00    +0.000 C 
ATOM     15  C   UNL     1      -2.907  10.873  15.462  0.00  0.00    +0.000 C 
ATOM     16  C   UNL     1      -4.166  11.174  16.231  0.00  0.00    +0.000 C 
ENDBRANCH  13  14
ENDBRANCH  12  13
ENDBRANCH  11  12
ENDBRANCH   3   5
BRANCH   2  17
ATOM     17  C   UNL     1       2.784   7.523  18.453  0.00  0.00    +0.000 A 
ATOM     18  C   UNL     1       2.291   6.702  19.473  0.00  0.00    +0.000 A 
ATOM     19  C   UNL     1       2.891   5.476  19.745  0.00  0.00    +0.000 A 
ATOM     20  C   UNL     1       3.974   5.040  18.980  0.00  0.00    +0.000 A 
ATOM     21  C   UNL     1       4.478   5.814  17.926  0.00  0.00    +0.000 A 
ATOM     22  C   UNL     1       3.883   7.073  17.686  0.00  0.00    +0.000 A 
BRANCH  21  23
ATOM     23  N   UNL     1       5.546   5.330  17.120  0.00  0.00    +0.000 N 
ATOM     24  C   UNL     1       5.413   4.966  15.744  0.00  0.00    +0.000 C 
ATOM     25  C   UNL     1       6.840   4.732  15.312  0.00  0.00    +0.000 C 
ATOM     26  O   UNL     1       7.548   4.464  16.519  0.00  0.00    +0.000 OA
ATOM     27  C   UNL     1       6.807   4.948  17.568  0.00  0.00    +0.000 C 
ATOM     28  O   UNL     1       7.251   4.967  18.705  0.00  0.00    +0.000 OA
ENDBRANCH  21  23
ENDBRANCH   2  17
TORSDOF 6
ENDMDL
MODEL 2
REMARK VINA RESULT:      -8.0      3.568      8.868
REMARK  Name = 
REMARK  6 active torsions:
REMARK  status: ('A' for Active; 'I' for Inactive)
REMARK    1  A    between atoms: C_2  and  C_16
REMARK    2  A    between atoms: N_3  and  C_4
REMARK    3  A    between atoms: C_10  and  O_11
REMARK    4  A    between atoms: O_11  and  C_12
REMARK    5  A    between atoms: C_12  and  C_13
REMARK    6  A    between atoms: C_20  and  N_21
REMARK                            x       y       z     vdW  Elec       q    Type
REMARK                         _______ _______ _______ _____ _____    ______ ____
ROOT
ATOM      1  O   UNL     1       2.094   6.542  17.865  0.00  0.00    +0.000 OA
ATOM      2  C   UNL     1       2.287   7.102  18.940  0.00  0.00    +0.000 C 
ATOM      3  N   UNL     1       2.832   6.502  20.068  0.00  0.00    +0.000 N 
ATOM      4  H   UNL     1       2.649   6.954  20.942  0.00  0.00    +0.000 HD
ENDROOT
BRANCH   3   5
ATOM      5  C   UNL     1       3.069   5.107  20.153  0.00  0.00    +0.000 A 
ATOM      6  C   UNL     1       2.104   4.381  20.865  0.00  0.00    +0.000 A 
ATOM      7  C   UNL     1       2.226   3.005  21.005  0.00  0.00    +0.000 A 
ATOM      8  F   UNL     1       1.290   2.326  21.671  0.00  0.00    +0.000 F 
ATOM      9  C   UNL     1       3.303   2.327  20.453  0.00  0.00    +0.000 A 
ATOM     10  C   UNL     1       4.283   3.043  19.767  0.00  0.00    +0.000 A 
ATOM     11  C   UNL     1       4.204   4.443  19.642  0.00  0.00    +0.000 A 
BRANCH  11  12
ATOM     12  O   UNL     1       5.238   5.203  19.136  0.00  0.00    +0.000 OA
BRANCH  12  13
ATOM     13  C   UNL     1       5.808   4.735  17.907  0.00  0.00    +0.000 C 
BRANCH  13  14
ATOM     14  C   UNL     1       7.193   5.281  17.754  0.00  0.00    +0.000 C 
ATOM     15  C   UNL     1       7.781   6.190  18.800  0.00  0.00    +0.000 C 
ATOM     16  C   UNL     1       7.411   6.745  17.450  0.00  0.00    +0.000 C 
ENDBRANCH  13  14
ENDBRANCH  12  13
ENDBRANCH  11  12
ENDBRANCH   3   5
BRANCH   2  17
ATOM     17  C   UNL     1       1.819   8.529  19.102  0.00  0.00    +0.000 A 
ATOM     18  C   UNL     1       2.120   9.413  18.060  0.00  0.00    +0.000 A 
ATOM     19  C   UNL     1       1.693  10.738  18.114  0.00  0.00    +0.000 A 
ATOM     20  C   UNL     1       0.933  11.186  19.194  0.00  0.00    +0.000 A 
ATOM     21  C   UNL     1       0.578  10.326  20.241  0.00  0.00    +0.000 A 
ATOM     22  C   UNL     1       1.050   8.996  20.193  0.00  0.00    +0.000 A 
BRANCH  21  23
ATOM     23  N   UNL     1      -0.245  10.785  21.307  0.00  0.00    +0.000 N 
ATOM     24  C   UNL     1      -1.222  11.820  21.180  0.00  0.00    +0.000 C 
ATOM     25  C   UNL     1      -1.944  11.774  22.504  0.00  0.00    +0.000 C 
ATOM     26  O   UNL     1      -1.029  11.149  23.399  0.00  0.00    +0.000 OA
ATOM     27  C   UNL     1      -0.103  10.462  22.654  0.00  0.00    +0.000 C 
ATOM     28  O   UNL     1       0.717   9.726  23.180  0.00  0.00    +0.000 OA
ENDBRANCH  21  23
ENDBRANCH   2  17
TORSDOF 6
ENDMDL
MODEL 3
REMARK VINA RESULT:      -7.9      3.421      8.393
REMARK  Name = 
REMARK  6 active torsions:
REMARK  status: ('A' for Active; 'I' for Inactive)
REMARK    1  A    between atoms: C_2  and  C_16
REMARK    2  A    between atoms: N_3  and  C_4
REMARK    3  A    between atoms: C_10  and  O_11
REMARK    4  A    between atoms: O_11  and  C_12
REMARK    5  A    between atoms: C_12  and  C_13
REMARK    6  A    between atoms: C_20  and  N_21
REMARK                            x       y       z     vdW  Elec       q    Type
REMARK                         _______ _______ _______ _____ _____    ______ ____
ROOT
ATOM      1  O   UNL     1       2.403   8.392  17.331  0.00  0.00    +0.000 OA
ATOM      2  C   UNL     1       2.415   8.013  18.498  0.00  0.00    +0.000 C 
ATOM      3  N   UNL     1       3.085   6.890  18.966  0.00  0.00    +0.000 N 
ATOM      4  H   UNL     1       2.769   6.519  19.840  0.00  0.00    +0.000 HD
ENDROOT
BRANCH   3   5
ATOM      5  C   UNL     1       3.696   5.947  18.101  0.00  0.00    +0.000 A 
ATOM      6  C   UNL     1       4.976   6.296  17.649  0.00  0.00    +0.000 A 
ATOM      7  C   UNL     1       5.676   5.443  16.805  0.00  0.00    +0.000 A 
ATOM      8  F   UNL     1       6.902   5.782  16.398  0.00  0.00    +0.000 F 
ATOM      9  C   UNL     1       5.122   4.243  16.388  0.00  0.00    +0.000 A 
ATOM     10  C   UNL     1       3.838   3.900  16.809  0.00  0.00    +0.000 A 
ATOM     11  C   UNL     1       3.091   4.761  17.633  0.00  0.00    +0.000 A 
BRANCH  11  12
ATOM     12  O   UNL     1       1.758   4.547  17.918  0.00  0.00    +0.000 OA
BRANCH  12  13
ATOM     13  C   UNL     1       1.468   3.365  18.675  0.00  0.00    +0.000 C 
BRANCH  13  14
ATOM     14  C   UNL     1       0.966   3.746  20.032  0.00  0.00    +0.000 C 
ATOM     15  C   UNL     1       1.911   4.259  21.085  0.00  0.00    +0.000 C 
ATOM     16  C   UNL     1       1.292   2.894  21.237  0.00  0.00    +0.000 C 
ENDBRANCH  13  14
ENDBRANCH  12  13
ENDBRANCH  11  12
ENDBRANCH   3   5
BRANCH   2  17
ATOM     17  C   UNL     1       1.569   8.755  19.504  0.00  0.00    +0.000 A 
ATOM     18  C   UNL     1       1.323   8.108  20.721  0.00  0.00    +0.000 A 
ATOM     19  C   UNL     1       0.584   8.738  21.718  0.00  0.00    +0.000 A 
ATOM     20  C   UNL     1       0.107  10.035  21.524  0.00  0.00    +0.000 A 
ATOM     21  C   UNL     1       0.360  10.733  20.336  0.00  0.00    +0.000 A 
ATOM     22  C   UNL     1       1.079  10.068  19.318  0.00  0.00    +0.000 A 
BRANCH  21  23
ATOM     23  N   UNL     1      -0.086  12.075  20.177  0.00  0.00    +0.000 N 
ATOM     24  C   UNL     1       0.585  13.214  20.721  0.00  0.00    +0.000 C 
ATOM     25  C   UNL     1      -0.153  14.375  20.100  0.00  0.00    +0.000 C 
ATOM     26  O   UNL     1      -1.423  13.845  19.730  0.00  0.00    +0.000 OA
ATOM     27  C   UNL     1      -1.313  12.478  19.660  0.00  0.00    +0.000 C 
ATOM     28  O   UNL     1      -2.225  11.789  19.231  0.00  0.00    +0.000 OA
ENDBRANCH  21  23
ENDBRANCH   2  17
TORSDOF 6
ENDMDL
MODEL 4
REMARK VINA RESULT:      -7.9      3.435      8.266
REMARK  Name = 
REMARK  6 active torsions:
REMARK  status: ('A' for Active; 'I' for Inactive)
REMARK    1  A    between atoms: C_2  and  C_16
REMARK    2  A    between atoms: N_3  and  C_4
REMARK    3  A    between atoms: C_10  and  O_11
REMARK    4  A    between atoms: O_11  and  C_12
REMARK    5  A    between atoms: C_12  and  C_13
REMARK    6  A    between atoms: C_20  and  N_21
REMARK                            x       y       z     vdW  Elec       q    Type
REMARK                         _______ _______ _______ _____ _____    ______ ____
ROOT
ATOM      1  O   UNL     1       2.487   8.310  17.273  0.00  0.00    +0.000 OA
ATOM      2  C   UNL     1       2.505   7.935  18.442  0.00  0.00    +0.000 C 
ATOM      3  N   UNL     1       3.193   6.825  18.915  0.00  0.00    +0.000 N 
ATOM      4  H   UNL     1       2.883   6.453  19.790  0.00  0.00    +0.000 HD
ENDROOT
BRANCH   3   5
ATOM      5  C   UNL     1       3.821   5.891  18.053  0.00  0.00    +0.000 A 
ATOM      6  C   UNL     1       5.101   6.253  17.613  0.00  0.00    +0.000 A 
ATOM      7  C   UNL     1       5.818   5.409  16.774  0.00  0.00    +0.000 A 
ATOM      8  F   UNL     1       7.043   5.760  16.378  0.00  0.00    +0.000 F 
ATOM      9  C   UNL     1       5.279   4.203  16.351  0.00  0.00    +0.000 A 
ATOM     10  C   UNL     1       3.994   3.847  16.759  0.00  0.00    +0.000 A 
ATOM     11  C   UNL     1       3.232   4.699  17.579  0.00  0.00    +0.000 A 
BRANCH  11  12
ATOM     12  O   UNL     1       1.900   4.471  17.852  0.00  0.00    +0.000 OA
BRANCH  12  13
ATOM     13  C   UNL     1       1.597   3.207  18.454  0.00  0.00    +0.000 C 
BRANCH  13  14
ATOM     14  C   UNL     1       0.864   3.423  19.741  0.00  0.00    +0.000 C 
ATOM     15  C   UNL     1       1.435   4.316  20.809  0.00  0.00    +0.000 C 
ATOM     16  C   UNL     1       1.384   2.827  21.028  0.00  0.00    +0.000 C 
ENDBRANCH  13  14
ENDBRANCH  12  13
ENDBRANCH  11  12
ENDBRANCH   3   5
BRANCH   2  17
ATOM     17  C   UNL     1       1.646   8.667  19.445  0.00  0.00    +0.000 A 
ATOM     18  C   UNL     1       1.345   7.988  20.631  0.00  0.00    +0.000 A 
ATOM     19  C   UNL     1       0.589   8.604  21.625  0.00  0.00    +0.000 A 
ATOM     20  C   UNL     1       0.151   9.919  21.459  0.00  0.00    +0.000 A 
ATOM     21  C   UNL     1       0.460  10.647  20.303  0.00  0.00    +0.000 A 
ATOM     22  C   UNL     1       1.194   9.997  19.287  0.00  0.00    +0.000 A 
BRANCH  21  23
ATOM     23  N   UNL     1       0.053  12.005  20.174  0.00  0.00    +0.000 N 
ATOM     24  C   UNL     1      -0.956  12.458  19.269  0.00  0.00    +0.000 C 
ATOM     25  C   UNL     1      -1.151  13.901  19.668  0.00  0.00    +0.000 C 
ATOM     26  O   UNL     1       0.055  14.262  20.334  0.00  0.00    +0.000 OA
ATOM     27  C   UNL     1       0.685  13.110  20.736  0.00  0.00    +0.000 C 
ATOM     28  O   UNL     1       1.675  13.143  21.449  0.00  0.00    +0.000 OA
ENDBRANCH  21  23
ENDBRANCH   2  17
TORSDOF 6
ENDMDL
MODEL 5
REMARK VINA RESULT:      -7.8      3.506      8.771
REMARK  Name = 
REMARK  6 active torsions:
REMARK  status: ('A' for Active; 'I' for Inactive)
REMARK    1  A    between atoms: C_2  and  C_16
REMARK    2  A    between atoms: N_3  and  C_4
REMARK    3  A    between atoms: C_10  and  O_11
REMARK    4  A    between atoms: O_11  and  C_12
REMARK    5  A    between atoms: C_12  and  C_13
REMARK    6  A    between atoms: C_20  and  N_21
REMARK                            x       y       z     vdW  Elec       q    Type
REMARK                         _______ _______ _______ _____ _____    ______ ____
ROOT
ATOM      1  O   UNL     1       1.948   6.567  17.886  0.00  0.00    +0.000 OA
ATOM      2  C   UNL     1       2.215   7.134  18.941  0.00  0.00    +0.000 C 
ATOM      3  N   UNL     1       2.821   6.537  20.038  0.00  0.00    +0.000 N 
ATOM      4  H   UNL     1       2.699   7.000  20.917  0.00  0.00    +0.000 HD
ENDROOT
BRANCH   3   5
ATOM      5  C   UNL     1       3.044   5.140  20.123  0.00  0.00    +0.000 A 
ATOM      6  C   UNL     1       2.191   4.452  20.996  0.00  0.00    +0.000 A 
ATOM      7  C   UNL     1       2.309   3.077  21.152  0.00  0.00    +0.000 A 
ATOM      8  F   UNL     1       1.477   2.434  21.974  0.00  0.00    +0.000 F 
ATOM      9  C   UNL     1       3.274   2.364  20.456  0.00  0.00    +0.000 A 
ATOM     10  C   UNL     1       4.147   3.042  19.607  0.00  0.00    +0.000 A 
ATOM     11  C   UNL     1       4.074   4.439  19.459  0.00  0.00    +0.000 A 
BRANCH  11  12
ATOM     12  O   UNL     1       5.028   5.165  18.777  0.00  0.00    +0.000 OA
BRANCH  12  13
ATOM     13  C   UNL     1       4.928   5.134  17.348  0.00  0.00    +0.000 C 
BRANCH  13  14
ATOM     14  C   UNL     1       6.092   4.386  16.777  0.00  0.00    +0.000 C 
ATOM     15  C   UNL     1       6.942   4.997  15.696  0.00  0.00    +0.000 C 
ATOM     16  C   UNL     1       6.036   3.840  15.369  0.00  0.00    +0.000 C 
ENDBRANCH  13  14
ENDBRANCH  12  13
ENDBRANCH  11  12
ENDBRANCH   3   5
BRANCH   2  17
ATOM     17  C   UNL     1       1.777   8.569  19.117  0.00  0.00    +0.000 A 
ATOM     18  C   UNL     1       2.114   9.462  18.093  0.00  0.00    +0.000 A 
ATOM     19  C   UNL     1       1.717  10.794  18.160  0.00  0.00    +0.000 A 
ATOM     20  C   UNL     1       0.951  11.245  19.236  0.00  0.00    +0.000 A 
ATOM     21  C   UNL     1       0.561  10.377  20.264  0.00  0.00    +0.000 A 
ATOM     22  C   UNL     1       1.003   9.037  20.203  0.00  0.00    +0.000 A 
BRANCH  21  23
ATOM     23  N   UNL     1      -0.267  10.839  21.325  0.00  0.00    +0.000 N 
ATOM     24  C   UNL     1      -1.237  11.881  21.192  0.00  0.00    +0.000 C 
ATOM     25  C   UNL     1      -1.969  11.838  22.511  0.00  0.00    +0.000 C 
ATOM     26  O   UNL     1      -1.065  11.204  23.411  0.00  0.00    +0.000 OA
ATOM     27  C   UNL     1      -0.138  10.512  22.672  0.00  0.00    +0.000 C 
ATOM     28  O   UNL     1       0.672   9.770  23.203  0.00  0.00    +0.000 OA
ENDBRANCH  21  23
ENDBRANCH   2  17
TORSDOF 6
ENDMDL
MODEL 6
REMARK VINA RESULT:      -7.8      3.321      8.784
REMARK  Name = 
REMARK  6 active torsions:
REMARK  status: ('A' for Active; 'I' for Inactive)
REMARK    1  A    between atoms: C_2  and  C_16
REMARK    2  A    between atoms: N_3  and  C_4
REMARK    3  A    between atoms: C_10  and  O_11
REMARK    4  A    between atoms: O_11  and  C_12
REMARK    5  A    between atoms: C_12  and  C_13
REMARK    6  A    between atoms: C_20  and  N_21
REMARK                            x       y       z     vdW  Elec       q    Type
REMARK                         _______ _______ _______ _____ _____    ______ ____
ROOT
ATOM      1  O   UNL     1       2.340   7.490  17.870  0.00  0.00    +0.000 OA
ATOM      2  C   UNL     1       2.133   7.362  19.072  0.00  0.00    +0.000 C 
ATOM      3  N   UNL     1       2.326   6.192  19.796  0.00  0.00    +0.000 N 
ATOM      4  H   UNL     1       1.838   6.125  20.667  0.00  0.00    +0.000 HD
ENDROOT
BRANCH   3   5
ATOM      5  C   UNL     1       2.624   4.951  19.178  0.00  0.00    +0.000 A 
ATOM      6  C   UNL     1       1.563   4.035  19.139  0.00  0.00    +0.000 A 
ATOM      7  C   UNL     1       1.735   2.790  18.548  0.00  0.00    +0.000 A 
ATOM      8  F   UNL     1       0.710   1.937  18.503  0.00  0.00    +0.000 F 
ATOM      9  C   UNL     1       2.955   2.428  17.997  0.00  0.00    +0.000 A 
ATOM     10  C   UNL     1       4.024   3.320  18.056  0.00  0.00    +0.000 A 
ATOM     11  C   UNL     1       3.889   4.573  18.682  0.00  0.00    +0.000 A 
BRANCH  11  12
ATOM     12  O   UNL     1       4.964   5.402  18.923  0.00  0.00    +0.000 OA
BRANCH  12  13
ATOM     13  C   UNL     1       5.557   6.004  17.765  0.00  0.00    +0.000 C 
BRANCH  13  14
ATOM     14  C   UNL     1       7.046   5.866  17.831  0.00  0.00    +0.000 C 
ATOM     15  C   UNL     1       7.758   5.855  19.157  0.00  0.00    +0.000 C 
ATOM     16  C   UNL     1       7.906   7.039  18.239  0.00  0.00    +0.000 C 
ENDBRANCH  13  14
ENDBRANCH  12  13
ENDBRANCH  11  12
ENDBRANCH   3   5
BRANCH   2  17
ATOM     17  C   UNL     1       1.536   8.524  19.828  0.00  0.00    +0.000 A 
ATOM     18  C   UNL     1       1.296   8.333  21.194  0.00  0.00    +0.000 A 
ATOM     19  C   UNL     1       0.781   9.366  21.972  0.00  0.00    +0.000 A 
ATOM     20  C   UNL     1       0.528  10.614  21.401  0.00  0.00    +0.000 A 
ATOM     21  C   UNL     1       0.787  10.861  20.047  0.00  0.00    +0.000 A 
ATOM     22  C   UNL     1       1.273   9.792  19.261  0.00  0.00    +0.000 A 
BRANCH  21  23
ATOM     23  N   UNL     1       0.576  12.155  19.493  0.00  0.00    +0.000 N 
ATOM     24  C   UNL     1       1.315  13.319  19.869  0.00  0.00    +0.000 C 
ATOM     25  C   UNL     1       0.864  14.350  18.864  0.00  0.00    +0.000 C 
ATOM     26  O   UNL     1      -0.397  13.879  18.397  0.00  0.00    +0.000 OA
ATOM     27  C   UNL     1      -0.483  12.537  18.674  0.00  0.00    +0.000 C 
ATOM     28  O   UNL     1      -1.408  11.859  18.258  0.00  0.00    +0.000 OA
ENDBRANCH  21  23
ENDBRANCH   2  17
TORSDOF 6
ENDMDL
MODEL 7
REMARK VINA RESULT:      -7.8      3.501      8.701
REMARK  Name = 
REMARK  6 active torsions:
REMARK  status: ('A' for Active; 'I' for Inactive)
REMARK    1  A    between atoms: C_2  and  C_16
REMARK    2  A    between atoms: N_3  and  C_4
REMARK    3  A    between atoms: C_10  and  O_11
REMARK    4  A    between atoms: O_11  and  C_12
REMARK    5  A    between atoms: C_12  and  C_13
REMARK    6  A    between atoms: C_20  and  N_21
REMARK                            x       y       z     vdW  Elec       q    Type
REMARK                         _______ _______ _______ _____ _____    ______ ____
ROOT
ATOM      1  O   UNL     1       2.417   7.511  18.425  0.00  0.00    +0.000 OA
ATOM      2  C   UNL     1       2.094   7.351  19.598  0.00  0.00    +0.000 C 
ATOM      3  N   UNL     1       2.232   6.167  20.311  0.00  0.00    +0.000 N 
ATOM      4  H   UNL     1       1.660   6.073  21.127  0.00  0.00    +0.000 HD
ENDROOT
BRANCH   3   5
ATOM      5  C   UNL     1       2.609   4.945  19.700  0.00  0.00    +0.000 A 
ATOM      6  C   UNL     1       1.564   4.036  19.491  0.00  0.00    +0.000 A 
ATOM      7  C   UNL     1       1.813   2.809  18.889  0.00  0.00    +0.000 A 
ATOM      8  F   UNL     1       0.803   1.962  18.681  0.00  0.00    +0.000 F 
ATOM      9  C   UNL     1       3.095   2.460  18.493  0.00  0.00    +0.000 A 
ATOM     10  C   UNL     1       4.146   3.345  18.722  0.00  0.00    +0.000 A 
ATOM     11  C   UNL     1       3.929   4.578  19.363  0.00  0.00    +0.000 A 
BRANCH  11  12
ATOM     12  O   UNL     1       4.963   5.396  19.771  0.00  0.00    +0.000 OA
BRANCH  12  13
ATOM     13  C   UNL     1       6.192   5.250  19.049  0.00  0.00    +0.000 C 
BRANCH  13  14
ATOM     14  C   UNL     1       6.213   6.198  17.892  0.00  0.00    +0.000 C 
ATOM     15  C   UNL     1       7.050   5.907  16.675  0.00  0.00    +0.000 C 
ATOM     16  C   UNL     1       7.442   7.027  17.602  0.00  0.00    +0.000 C 
ENDBRANCH  13  14
ENDBRANCH  12  13
ENDBRANCH  11  12
ENDBRANCH   3   5
BRANCH   2  17
ATOM     17  C   UNL     1       1.406   8.488  20.316  0.00  0.00    +0.000 A 
ATOM     18  C   UNL     1       1.012   8.253  21.638  0.00  0.00    +0.000 A 
ATOM     19  C   UNL     1       0.404   9.259  22.383  0.00  0.00    +0.000 A 
ATOM     20  C   UNL     1       0.210  10.524  21.826  0.00  0.00    +0.000 A 
ATOM     21  C   UNL     1       0.621  10.813  20.519  0.00  0.00    +0.000 A 
ATOM     22  C   UNL     1       1.201   9.772  19.762  0.00  0.00    +0.000 A 
BRANCH  21  23
ATOM     23  N   UNL     1       0.466  12.124  19.985  0.00  0.00    +0.000 N 
ATOM     24  C   UNL     1      -0.224  12.419  18.769  0.00  0.00    +0.000 C 
ATOM     25  C   UNL     1      -0.285  13.927  18.768  0.00  0.00    +0.000 C 
ATOM     26  O   UNL     1       0.773  14.337  19.629  0.00  0.00    +0.000 OA
ATOM     27  C   UNL     1       1.110  13.274  20.430  0.00  0.00    +0.000 C 
ATOM     28  O   UNL     1       1.900  13.399  21.352  0.00  0.00    +0.000 OA
ENDBRANCH  21  23
ENDBRANCH   2  17
TORSDOF 6
ENDMDL
MODEL 8
REMARK VINA RESULT:      -7.7      3.865      8.580
REMARK  Name = 
REMARK  6 active torsions:
REMARK  status: ('A' for Active; 'I' for Inactive)
REMARK    1  A    between atoms: C_2  and  C_16
REMARK    2  A    between atoms: N_3  and  C_4
REMARK    3  A    between atoms: C_10  and  O_11
REMARK    4  A    between atoms: O_11  and  C_12
REMARK    5  A    between atoms: C_12  and  C_13
REMARK    6  A    between atoms: C_20  and  N_21
REMARK                            x       y       z     vdW  Elec       q    Type
REMARK                         _______ _______ _______ _____ _____    ______ ____
ROOT
ATOM      1  O   UNL     1       2.482   6.652  20.226  0.00  0.00    +0.000 OA
ATOM      2  C   UNL     1       2.205   7.256  19.194  0.00  0.00    +0.000 C 
ATOM      3  N   UNL     1       2.416   6.777  17.907  0.00  0.00    +0.000 N 
ATOM      4  H   UNL     1       2.446   7.463  17.179  0.00  0.00    +0.000 HD
ENDROOT
BRANCH   3   5
ATOM      5  C   UNL     1       3.144   5.590  17.643  0.00  0.00    +0.000 A 
ATOM      6  C   UNL     1       4.432   5.784  17.123  0.00  0.00    +0.000 A 
ATOM      7  C   UNL     1       5.242   4.694  16.835  0.00  0.00    +0.000 A 
ATOM      8  F   UNL     1       6.472   4.897  16.358  0.00  0.00    +0.000 F 
ATOM      9  C   UNL     1       4.793   3.399  17.047  0.00  0.00    +0.000 A 
ATOM     10  C   UNL     1       3.504   3.194  17.536  0.00  0.00    +0.000 A 
ATOM     11  C   UNL     1       2.648   4.279  17.801  0.00  0.00    +0.000 A 
BRANCH  11  12
ATOM     12  O   UNL     1       1.313   4.114  18.108  0.00  0.00    +0.000 OA
BRANCH  12  13
ATOM     13  C   UNL     1       1.018   3.086  19.061  0.00  0.00    +0.000 C 
BRANCH  13  14
ATOM     14  C   UNL     1       1.313   3.579  20.443  0.00  0.00    +0.000 C 
ATOM     15  C   UNL     1       2.554   3.135  21.168  0.00  0.00    +0.000 C 
ATOM     16  C   UNL     1       1.206   2.648  21.628  0.00  0.00    +0.000 C 
ENDBRANCH  13  14
ENDBRANCH  12  13
ENDBRANCH  11  12
ENDBRANCH   3   5
BRANCH   2  17
ATOM     17  C   UNL     1       1.679   8.667  19.304  0.00  0.00    +0.000 A 
ATOM     18  C   UNL     1       1.948   9.526  18.233  0.00  0.00    +0.000 A 
ATOM     19  C   UNL     1       1.468  10.832  18.238  0.00  0.00    +0.000 A 
ATOM     20  C   UNL     1       0.686  11.288  19.301  0.00  0.00    +0.000 A 
ATOM     21  C   UNL     1       0.363  10.451  20.376  0.00  0.00    +0.000 A 
ATOM     22  C   UNL     1       0.889   9.140  20.377  0.00  0.00    +0.000 A 
BRANCH  21  23
ATOM     23  N   UNL     1      -0.481  10.914  21.425  0.00  0.00    +0.000 N 
ATOM     24  C   UNL     1      -1.460  11.945  21.272  0.00  0.00    +0.000 C 
ATOM     25  C   UNL     1      -2.207  11.905  22.583  0.00  0.00    +0.000 C 
ATOM     26  O   UNL     1      -1.306  11.288  23.498  0.00  0.00    +0.000 OA
ATOM     27  C   UNL     1      -0.364  10.600  22.775  0.00  0.00    +0.000 C 
ATOM     28  O   UNL     1       0.449   9.870  23.321  0.00  0.00    +0.000 OA
ENDBRANCH  21  23
ENDBRANCH   2  17
TORSDOF 6
ENDMDL
MODEL 9
REMARK VINA RESULT:      -7.7      3.224      8.126
REMARK  Name = 
REMARK  6 active torsions:
REMARK  status: ('A' for Active; 'I' for Inactive)
REMARK    1  A    between atoms: C_2  and  C_16
REMARK    2  A    between atoms: N_3  and  C_4
REMARK    3  A    between atoms: C_10  and  O_11
REMARK    4  A    between atoms: O_11  and  C_12
REMARK    5  A    between atoms: C_12  and  C_13
REMARK    6  A    between atoms: C_20  and  N_21
REMARK                            x       y       z     vdW  Elec       q    Type
REMARK                         _______ _______ _______ _____ _____    ______ ____
ROOT
ATOM      1  O   UNL     1       2.965   5.948  20.393  0.00  0.00    +0.000 OA
ATOM      2  C   UNL     1       2.512   6.740  19.572  0.00  0.00    +0.000 C 
ATOM      3  N   UNL     1       2.792   6.728  18.212  0.00  0.00    +0.000 N 
ATOM      4  H   UNL     1       2.625   7.583  17.718  0.00  0.00    +0.000 HD
ENDROOT
BRANCH   3   5
ATOM      5  C   UNL     1       3.784   5.892  17.642  0.00  0.00    +0.000 A 
ATOM      6  C   UNL     1       4.997   6.527  17.339  0.00  0.00    +0.000 A 
ATOM      7  C   UNL     1       6.047   5.804  16.787  0.00  0.00    +0.000 A 
ATOM      8  F   UNL     1       7.200   6.420  16.521  0.00  0.00    +0.000 F 
ATOM      9  C   UNL     1       5.913   4.450  16.519  0.00  0.00    +0.000 A 
ATOM     10  C   UNL     1       4.702   3.815  16.789  0.00  0.00    +0.000 A 
ATOM     11  C   UNL     1       3.610   4.531  17.314  0.00  0.00    +0.000 A 
BRANCH  11  12
ATOM     12  O   UNL     1       2.348   3.985  17.422  0.00  0.00    +0.000 OA
BRANCH  12  13
ATOM     13  C   UNL     1       2.299   2.602  17.794  0.00  0.00    +0.000 C 
BRANCH  13  14
ATOM     14  C   UNL     1       1.254   2.399  18.846  0.00  0.00    +0.000 C 
ATOM     15  C   UNL     1       0.808   3.543  19.716  0.00  0.00    +0.000 C 
ATOM     16  C   UNL     1       1.626   2.428  20.310  0.00  0.00    +0.000 C 
ENDBRANCH  13  14
ENDBRANCH  12  13
ENDBRANCH  11  12
ENDBRANCH   3   5
BRANCH   2  17
ATOM     17  C   UNL     1       1.654   7.879  20.068  0.00  0.00    +0.000 A 
ATOM     18  C   UNL     1       1.056   7.718  21.323  0.00  0.00    +0.000 A 
ATOM     19  C   UNL     1       0.280   8.736  21.871  0.00  0.00    +0.000 A 
ATOM     20  C   UNL     1       0.117   9.940  21.185  0.00  0.00    +0.000 A 
ATOM     21  C   UNL     1       0.727  10.157  19.942  0.00  0.00    +0.000 A 
ATOM     22  C   UNL     1       1.480   9.102  19.381  0.00  0.00    +0.000 A 
BRANCH  21  23
ATOM     23  N   UNL     1       0.596  11.411  19.282  0.00  0.00    +0.000 N 
ATOM     24  C   UNL     1       1.494  12.509  19.458  0.00  0.00    +0.000 C 
ATOM     25  C   UNL     1       1.047  13.490  18.402  0.00  0.00    +0.000 C 
ATOM     26  O   UNL     1      -0.301  13.130  18.115  0.00  0.00    +0.000 OA
ATOM     27  C   UNL     1      -0.499  11.839  18.537  0.00  0.00    +0.000 C 
ATOM     28  O   UNL     1      -1.533  11.240  18.288  0.00  0.00    +0.000 OA
ENDBRANCH  21  23
ENDBRANCH   2  17
TORSDOF 6
ENDMDL
