MODEL 1
REMARK VINA RESULT:      -8.9      0.000      0.000
REMARK  Name = 
REMARK  6 active torsions:
REMARK  status: ('A' for Active; 'I' for Inactive)
REMARK    1  A    between atoms: C_1  and  C_2
REMARK    2  A    between atoms: C_6  and  C_7
REMARK    3  A    between atoms: N_9  and  C_10
REMARK    4  A    between atoms: C_10  and  C_11
REMARK    5  A    between atoms: N_13  and  C_14
REMARK    6  A    between atoms: C_17  and  N_18
REMARK                            x       y       z     vdW  Elec       q    Type
REMARK                         _______ _______ _______ _____ _____    ______ ____
ROOT
ATOM      1  C   UNL     1       2.931   5.027  17.899  0.00  0.00    +0.000 C 
ATOM      2  O   UNL     1       1.753   4.674  17.861  0.00  0.00    +0.000 OA
ATOM      3  N   UNL     1       3.406   6.306  18.184  0.00  0.00    +0.000 N 
ATOM      4  H   UNL     1       4.411   6.443  18.168  0.00  0.00    +0.000 HD
ENDROOT
BRANCH   3   5
ATOM      5  C   UNL     1       2.614   7.412  18.569  0.00  0.00    +0.000 A 
ATOM      6  C   UNL     1       2.279   8.416  17.662  0.00  0.00    +0.000 A 
ATOM      7  C   UNL     1       1.444   9.454  18.030  0.00  0.00    +0.000 A 
ATOM      8  C   UNL     1       0.935   9.528  19.331  0.00  0.00    +0.000 A 
ATOM      9  C   UNL     1       1.290   8.579  20.284  0.00  0.00    +0.000 A 
ATOM     10  C   UNL     1       2.113   7.505  19.882  0.00  0.00    +0.000 A 
BRANCH   8  11
ATOM     11  N   UNL     1       0.047  10.607  19.579  0.00  0.00    +0.000 N 
ATOM     12  C   UNL     1      -1.210  10.653  19.000  0.00  0.00    +0.000 A 
ATOM     13  N   UNL     1      -1.529  11.851  18.573  0.00  0.00    +0.000 NA
ATOM     14  C   UNL     1      -0.472  12.636  18.947  0.00  0.00    +0.000 A 
ATOM     15  C   UNL     1      -0.211  13.968  18.605  0.00  0.00    +0.000 A 
ATOM     16  C   UNL     1       0.939  14.579  19.119  0.00  0.00    +0.000 A 
ATOM     17  C   UNL     1       1.776  13.892  20.001  0.00  0.00    +0.000 A 
ATOM     18  C   UNL     1       1.555  12.546  20.322  0.00  0.00    +0.000 A 
ATOM     19  C   UNL     1       0.443  11.930  19.734  0.00  0.00    +0.000 A 
ENDBRANCH   8  11
ENDBRANCH   3   5
BRANCH   1  20
ATOM     20  C   UNL     1       4.018   3.976  17.715  0.00  0.00    +0.000 C 
BRANCH  20  23
ATOM     21  C   UNL     1       5.810   4.401  16.098  0.00  0.00    +0.000 C 
ATOM     22  O   UNL     1       6.569   4.728  17.001  0.00  0.00    +0.000 OA
ATOM     23  N   UNL     1       4.507   4.034  16.349  0.00  0.00    +0.000 N 
ATOM     24  H   UNL     1       3.961   3.551  15.656  0.00  0.00    +0.000 HD
BRANCH  21  30
ATOM     25  C   UNL     1       5.324   2.507  11.502  0.00  0.00    +0.000 C 
ATOM     26  C   UNL     1       6.035   3.443  12.435  0.00  0.00    +0.000 A 
ATOM     27  C   UNL     1       7.099   4.234  11.988  0.00  0.00    +0.000 A 
ATOM     28  C   UNL     1       7.754   5.092  12.869  0.00  0.00    +0.000 A 
ATOM     29  C   UNL     1       7.357   5.169  14.209  0.00  0.00    +0.000 A 
ATOM     30  C   UNL     1       6.289   4.390  14.674  0.00  0.00    +0.000 A 
ATOM     31  C   UNL     1       5.634   3.532  13.775  0.00  0.00    +0.000 A 
ENDBRANCH  21  30
ENDBRANCH  20  23
ENDBRANCH   1  20
TORSDOF 5
ENDMDL
MODEL 2
REMARK VINA RESULT:      -8.7      4.232     11.107
REMARK  Name = 
REMARK  6 active torsions:
REMARK  status: ('A' for Active; 'I' for Inactive)
REMARK    1  A    between atoms: C_1  and  C_2
REMARK    2  A    between atoms: C_6  and  C_7
REMARK    3  A    between atoms: N_9  and  C_10
REMARK    4  A    between atoms: C_10  and  C_11
REMARK    5  A    between atoms: N_13  and  C_14
REMARK    6  A    between atoms: C_17  and  N_18
REMARK                            x       y       z     vdW  Elec       q    Type
REMARK                         _______ _______ _______ _____ _____    ______ ____
ROOT
ATOM      1  C   UNL     1      -1.048  10.599  18.070  0.00  0.00    +0.000 C 
ATOM      2  O   UNL     1      -1.547   9.664  17.446  0.00  0.00    +0.000 OA
ATOM      3  N   UNL     1       0.086  10.546  18.879  0.00  0.00    +0.000 N 
ATOM      4  H   UNL     1       0.370  11.404  19.339  0.00  0.00    +0.000 HD
ENDROOT
BRANCH   3   5
ATOM      5  C   UNL     1       0.920   9.417  19.055  0.00  0.00    +0.000 A 
ATOM      6  C   UNL     1       1.053   8.797  20.296  0.00  0.00    +0.000 A 
ATOM      7  C   UNL     1       1.813   7.653  20.440  0.00  0.00    +0.000 A 
ATOM      8  C   UNL     1       2.484   7.105  19.341  0.00  0.00    +0.000 A 
ATOM      9  C   UNL     1       2.427   7.724  18.097  0.00  0.00    +0.000 A 
ATOM     10  C   UNL     1       1.616   8.871  17.958  0.00  0.00    +0.000 A 
BRANCH   8  11
ATOM     11  N   UNL     1       3.190   5.900  19.596  0.00  0.00    +0.000 N 
ATOM     12  C   UNL     1       4.428   5.655  19.024  0.00  0.00    +0.000 A 
ATOM     13  N   UNL     1       4.558   4.421  18.601  0.00  0.00    +0.000 NA
ATOM     14  C   UNL     1       3.388   3.814  18.969  0.00  0.00    +0.000 A 
ATOM     15  C   UNL     1       2.923   2.538  18.627  0.00  0.00    +0.000 A 
ATOM     16  C   UNL     1       1.688   2.116  19.134  0.00  0.00    +0.000 A 
ATOM     17  C   UNL     1       0.964   2.928  20.010  0.00  0.00    +0.000 A 
ATOM     18  C   UNL     1       1.392   4.224  20.331  0.00  0.00    +0.000 A 
ATOM     19  C   UNL     1       2.590   4.656  19.750  0.00  0.00    +0.000 A 
ENDBRANCH   8  11
ENDBRANCH   3   5
BRANCH   1  20
ATOM     20  C   UNL     1      -1.638  11.992  17.901  0.00  0.00    +0.000 C 
BRANCH  20  23
ATOM     21  C   UNL     1      -4.058  11.878  18.271  0.00  0.00    +0.000 C 
ATOM     22  O   UNL     1      -4.239  11.591  17.095  0.00  0.00    +0.000 OA
ATOM     23  N   UNL     1      -2.797  12.124  18.766  0.00  0.00    +0.000 N 
ATOM     24  H   UNL     1      -2.621  12.130  19.757  0.00  0.00    +0.000 HD
BRANCH  21  30
ATOM     25  C   UNL     1      -5.751  13.305  22.748  0.00  0.00    +0.000 C 
ATOM     26  C   UNL     1      -6.025  12.671  21.415  0.00  0.00    +0.000 A 
ATOM     27  C   UNL     1      -7.295  12.176  21.101  0.00  0.00    +0.000 A 
ATOM     28  C   UNL     1      -7.530  11.583  19.863  0.00  0.00    +0.000 A 
ATOM     29  C   UNL     1      -6.499  11.473  18.923  0.00  0.00    +0.000 A 
ATOM     30  C   UNL     1      -5.222  11.970  19.216  0.00  0.00    +0.000 A 
ATOM     31  C   UNL     1      -4.998  12.569  20.467  0.00  0.00    +0.000 A 
ENDBRANCH  21  30
ENDBRANCH  20  23
ENDBRANCH   1  20
TORSDOF 5
ENDMDL
MODEL 3
REMARK VINA RESULT:      -8.6      4.269     10.690
REMARK  Name = 
REMARK  6 active torsions:
REMARK  status: ('A' for Active; 'I' for Inactive)
REMARK    1  A    between atoms: C_1  and  C_2
REMARK    2  A    between atoms: C_6  and  C_7
REMARK    3  A    between atoms: N_9  and  C_10
REMARK    4  A    between atoms: C_10  and  C_11
REMARK    5  A    between atoms: N_13  and  C_14
REMARK    6  A    between atoms: C_17  and  N_18
REMARK                            x       y       z     vdW  Elec       q    Type
REMARK                         _______ _______ _______ _____ _____    ______ ____
ROOT
ATOM      1  C   UNL     1      -0.075  11.666  19.354  0.00  0.00    +0.000 C 
ATOM      2  O   UNL     1      -0.151  11.519  20.573  0.00  0.00    +0.000 OA
ATOM      3  N   UNL     1       0.540  10.803  18.449  0.00  0.00    +0.000 N 
ATOM      4  H   UNL     1       0.528  11.068  17.471  0.00  0.00    +0.000 HD
ENDROOT
BRANCH   3   5
ATOM      5  C   UNL     1       1.114   9.550  18.767  0.00  0.00    +0.000 A 
ATOM      6  C   UNL     1       1.766   8.784  17.803  0.00  0.00    +0.000 A 
ATOM      7  C   UNL     1       2.386   7.596  18.140  0.00  0.00    +0.000 A 
ATOM      8  C   UNL     1       2.350   7.128  19.459  0.00  0.00    +0.000 A 
ATOM      9  C   UNL     1       1.661   7.831  20.440  0.00  0.00    +0.000 A 
ATOM     10  C   UNL     1       1.065   9.061  20.087  0.00  0.00    +0.000 A 
BRANCH   8  11
ATOM     11  N   UNL     1       3.065   5.925  19.698  0.00  0.00    +0.000 N 
ATOM     12  C   UNL     1       4.320   5.711  19.150  0.00  0.00    +0.000 A 
ATOM     13  N   UNL     1       4.475   4.490  18.697  0.00  0.00    +0.000 NA
ATOM     14  C   UNL     1       3.304   3.859  19.021  0.00  0.00    +0.000 A 
ATOM     15  C   UNL     1       2.864   2.587  18.634  0.00  0.00    +0.000 A 
ATOM     16  C   UNL     1       1.623   2.137  19.101  0.00  0.00    +0.000 A 
ATOM     17  C   UNL     1       0.868   2.916  19.980  0.00  0.00    +0.000 A 
ATOM     18  C   UNL     1       1.272   4.208  20.345  0.00  0.00    +0.000 A 
ATOM     19  C   UNL     1       2.478   4.670  19.805  0.00  0.00    +0.000 A 
ENDBRANCH   8  11
ENDBRANCH   3   5
BRANCH   1  20
ATOM     20  C   UNL     1      -0.790  12.848  18.712  0.00  0.00    +0.000 C 
BRANCH  20  23
ATOM     21  C   UNL     1      -2.985  11.834  18.308  0.00  0.00    +0.000 C 
ATOM     22  O   UNL     1      -2.512  11.121  17.433  0.00  0.00    +0.000 OA
ATOM     23  N   UNL     1      -2.212  12.749  18.989  0.00  0.00    +0.000 N 
ATOM     24  H   UNL     1      -2.533  13.161  19.849  0.00  0.00    +0.000 HD
BRANCH  21  30
ATOM     25  C   UNL     1      -6.621  12.953  21.545  0.00  0.00    +0.000 C 
ATOM     26  C   UNL     1      -6.200  12.281  20.271  0.00  0.00    +0.000 A 
ATOM     27  C   UNL     1      -7.122  11.575  19.490  0.00  0.00    +0.000 A 
ATOM     28  C   UNL     1      -6.713  10.950  18.315  0.00  0.00    +0.000 A 
ATOM     29  C   UNL     1      -5.377  11.018  17.905  0.00  0.00    +0.000 A 
ATOM     30  C   UNL     1      -4.439  11.725  18.669  0.00  0.00    +0.000 A 
ATOM     31  C   UNL     1      -4.865  12.355  19.850  0.00  0.00    +0.000 A 
ENDBRANCH  21  30
ENDBRANCH  20  23
ENDBRANCH   1  20
TORSDOF 5
ENDMDL
MODEL 4
REMARK VINA RESULT:      -8.6      0.453      1.004
REMARK  Name = 
REMARK  6 active torsions:
REMARK  status: ('A' for Active; 'I' for Inactive)
REMARK    1  A    between atoms: C_1  and  C_2
REMARK    2  A    between atoms: C_6  and  C_7
REMARK    3  A    between atoms: N_9  and  C_10
REMARK    4  A    between atoms: C_10  and  C_11
REMARK    5  A    between atoms: N_13  and  C_14
REMARK    6  A    between atoms: C_17  and  N_18
REMARK                            x       y       z     vdW  Elec       q    Type
REMARK                         _______ _______ _______ _____ _____    ______ ____
ROOT
ATOM      1  C   UNL     1       3.494   4.973  18.021  0.00  0.00    +0.000 C 
ATOM      2  O   UNL     1       2.382   4.494  17.808  0.00  0.00    +0.000 OA
ATOM      3  N   UNL     1       3.778   6.293  18.366  0.00  0.00    +0.000 N 
ATOM      4  H   UNL     1       4.753   6.540  18.500  0.00  0.00    +0.000 HD
ENDROOT
BRANCH   3   5
ATOM      5  C   UNL     1       2.820   7.302  18.621  0.00  0.00    +0.000 A 
ATOM      6  C   UNL     1       2.187   7.406  19.858  0.00  0.00    +0.000 A 
ATOM      7  C   UNL     1       1.307   8.439  20.119  0.00  0.00    +0.000 A 
ATOM      8  C   UNL     1       1.017   9.390  19.134  0.00  0.00    +0.000 A 
ATOM      9  C   UNL     1       1.581   9.290  17.868  0.00  0.00    +0.000 A 
ATOM     10  C   UNL     1       2.507   8.251  17.628  0.00  0.00    +0.000 A 
BRANCH   8  11
ATOM     11  N   UNL     1       0.142  10.434  19.532  0.00  0.00    +0.000 N 
ATOM     12  C   UNL     1      -1.196  10.430  19.171  0.00  0.00    +0.000 A 
ATOM     13  N   UNL     1      -1.628  11.614  18.809  0.00  0.00    +0.000 NA
ATOM     14  C   UNL     1      -0.554  12.440  19.006  0.00  0.00    +0.000 A 
ATOM     15  C   UNL     1      -0.407  13.781  18.632  0.00  0.00    +0.000 A 
ATOM     16  C   UNL     1       0.788  14.437  18.951  0.00  0.00    +0.000 A 
ATOM     17  C   UNL     1       1.787  13.785  19.677  0.00  0.00    +0.000 A 
ATOM     18  C   UNL     1       1.675  12.432  20.024  0.00  0.00    +0.000 A 
ATOM     19  C   UNL     1       0.506  11.772  19.626  0.00  0.00    +0.000 A 
ENDBRANCH   8  11
ENDBRANCH   3   5
BRANCH   1  20
ATOM     20  C   UNL     1       4.705   4.050  18.008  0.00  0.00    +0.000 C 
BRANCH  20  23
ATOM     21  C   UNL     1       5.777   4.897  15.973  0.00  0.00    +0.000 C 
ATOM     22  O   UNL     1       5.938   5.992  16.495  0.00  0.00    +0.000 OA
ATOM     23  N   UNL     1       5.148   3.868  16.637  0.00  0.00    +0.000 N 
ATOM     24  H   UNL     1       5.221   2.919  16.310  0.00  0.00    +0.000 HD
BRANCH  21  30
ATOM     25  C   UNL     1       5.091   2.547  11.619  0.00  0.00    +0.000 C 
ATOM     26  C   UNL     1       5.917   3.479  12.458  0.00  0.00    +0.000 A 
ATOM     27  C   UNL     1       7.092   4.049  11.957  0.00  0.00    +0.000 A 
ATOM     28  C   UNL     1       7.851   4.905  12.751  0.00  0.00    +0.000 A 
ATOM     29  C   UNL     1       7.448   5.201  14.058  0.00  0.00    +0.000 A 
ATOM     30  C   UNL     1       6.271   4.645  14.577  0.00  0.00    +0.000 A 
ATOM     31  C   UNL     1       5.512   3.786  13.764  0.00  0.00    +0.000 A 
ENDBRANCH  21  30
ENDBRANCH  20  23
ENDBRANCH   1  20
TORSDOF 5
ENDMDL
MODEL 5
REMARK VINA RESULT:      -8.5      4.264     11.167
REMARK  Name = 
REMARK  6 active torsions:
REMARK  status: ('A' for Active; 'I' for Inactive)
REMARK    1  A    between atoms: C_1  and  C_2
REMARK    2  A    between atoms: C_6  and  C_7
REMARK    3  A    between atoms: N_9  and  C_10
REMARK    4  A    between atoms: C_10  and  C_11
REMARK    5  A    between atoms: N_13  and  C_14
REMARK    6  A    between atoms: C_17  and  N_18
REMARK                            x       y       z     vdW  Elec       q    Type
REMARK                         _______ _______ _______ _____ _____    ______ ____
ROOT
ATOM      1  C   UNL     1      -1.005  10.763  18.368  0.00  0.00    +0.000 C 
ATOM      2  O   UNL     1      -1.725   9.809  18.080  0.00  0.00    +0.000 OA
ATOM      3  N   UNL     1       0.292  10.701  18.876  0.00  0.00    +0.000 N 
ATOM      4  H   UNL     1       0.756  11.580  19.074  0.00  0.00    +0.000 HD
ENDROOT
BRANCH   3   5
ATOM      5  C   UNL     1       1.046   9.520  19.066  0.00  0.00    +0.000 A 
ATOM      6  C   UNL     1       1.133   8.907  20.314  0.00  0.00    +0.000 A 
ATOM      7  C   UNL     1       1.812   7.714  20.473  0.00  0.00    +0.000 A 
ATOM      8  C   UNL     1       2.446   7.109  19.382  0.00  0.00    +0.000 A 
ATOM      9  C   UNL     1       2.434   7.716  18.132  0.00  0.00    +0.000 A 
ATOM     10  C   UNL     1       1.704   8.915  17.977  0.00  0.00    +0.000 A 
BRANCH   8  11
ATOM     11  N   UNL     1       3.067   5.861  19.652  0.00  0.00    +0.000 N 
ATOM     12  C   UNL     1       4.336   5.570  19.179  0.00  0.00    +0.000 A 
ATOM     13  N   UNL     1       4.441   4.345  18.724  0.00  0.00    +0.000 NA
ATOM     14  C   UNL     1       3.214   3.788  18.970  0.00  0.00    +0.000 A 
ATOM     15  C   UNL     1       2.718   2.550  18.544  0.00  0.00    +0.000 A 
ATOM     16  C   UNL     1       1.425   2.178  18.929  0.00  0.00    +0.000 A 
ATOM     17  C   UNL     1       0.669   2.998  19.769  0.00  0.00    +0.000 A 
ATOM     18  C   UNL     1       1.131   4.259  20.172  0.00  0.00    +0.000 A 
ATOM     19  C   UNL     1       2.395   4.646  19.710  0.00  0.00    +0.000 A 
ENDBRANCH   8  11
ENDBRANCH   3   5
BRANCH   1  20
ATOM     20  C   UNL     1      -1.500  12.172  18.073  0.00  0.00    +0.000 C 
BRANCH  20  23
ATOM     21  C   UNL     1      -2.102  13.122  20.251  0.00  0.00    +0.000 C 
ATOM     22  O   UNL     1      -0.921  13.296  20.519  0.00  0.00    +0.000 OA
ATOM     23  N   UNL     1      -2.494  12.543  19.065  0.00  0.00    +0.000 N 
ATOM     24  H   UNL     1      -3.446  12.610  18.744  0.00  0.00    +0.000 HD
BRANCH  21  30
ATOM     25  C   UNL     1      -4.351  12.341  24.642  0.00  0.00    +0.000 C 
ATOM     26  C   UNL     1      -4.257  13.136  23.372  0.00  0.00    +0.000 A 
ATOM     27  C   UNL     1      -5.140  14.190  23.116  0.00  0.00    +0.000 A 
ATOM     28  C   UNL     1      -5.044  14.913  21.929  0.00  0.00    +0.000 A 
ATOM     29  C   UNL     1      -4.067  14.590  20.981  0.00  0.00    +0.000 A 
ATOM     30  C   UNL     1      -3.169  13.542  21.222  0.00  0.00    +0.000 A 
ATOM     31  C   UNL     1      -3.273  12.824  22.425  0.00  0.00    +0.000 A 
ENDBRANCH  21  30
ENDBRANCH  20  23
ENDBRANCH   1  20
TORSDOF 5
ENDMDL
MODEL 6
REMARK VINA RESULT:      -8.5      5.459      9.391
REMARK  Name = 
REMARK  6 active torsions:
REMARK  status: ('A' for Active; 'I' for Inactive)
REMARK    1  A    between atoms: C_1  and  C_2
REMARK    2  A    between atoms: C_6  and  C_7
REMARK    3  A    between atoms: N_9  and  C_10
REMARK    4  A    between atoms: C_10  and  C_11
REMARK    5  A    between atoms: N_13  and  C_14
REMARK    6  A    between atoms: C_17  and  N_18
REMARK                            x       y       z     vdW  Elec       q    Type
REMARK                         _______ _______ _______ _____ _____    ______ ____
ROOT
ATOM      1  C   UNL     1       8.066   8.243  17.884  0.00  0.00    +0.000 C 
ATOM      2  O   UNL     1       8.507   7.631  18.855  0.00  0.00    +0.000 OA
ATOM      3  N   UNL     1       6.971   7.882  17.101  0.00  0.00    +0.000 N 
ATOM      4  H   UNL     1       6.734   8.488  16.323  0.00  0.00    +0.000 HD
ENDROOT
BRANCH   3   5
ATOM      5  C   UNL     1       6.112   6.784  17.344  0.00  0.00    +0.000 A 
ATOM      6  C   UNL     1       4.827   6.965  17.850  0.00  0.00    +0.000 A 
ATOM      7  C   UNL     1       3.972   5.892  18.015  0.00  0.00    +0.000 A 
ATOM      8  C   UNL     1       4.391   4.596  17.694  0.00  0.00    +0.000 A 
ATOM      9  C   UNL     1       5.684   4.363  17.241  0.00  0.00    +0.000 A 
ATOM     10  C   UNL     1       6.533   5.474  17.043  0.00  0.00    +0.000 A 
BRANCH   8  11
ATOM     11  N   UNL     1       3.411   3.582  17.853  0.00  0.00    +0.000 N 
ATOM     12  C   UNL     1       2.335   3.476  16.987  0.00  0.00    +0.000 A 
ATOM     13  N   UNL     1       1.209   3.211  17.604  0.00  0.00    +0.000 NA
ATOM     14  C   UNL     1       1.569   3.069  18.917  0.00  0.00    +0.000 A 
ATOM     15  C   UNL     1       0.742   2.939  20.039  0.00  0.00    +0.000 A 
ATOM     16  C   UNL     1       1.337   2.792  21.297  0.00  0.00    +0.000 A 
ATOM     17  C   UNL     1       2.726   2.718  21.423  0.00  0.00    +0.000 A 
ATOM     18  C   UNL     1       3.572   2.888  20.319  0.00  0.00    +0.000 A 
ATOM     19  C   UNL     1       2.957   3.113  19.080  0.00  0.00    +0.000 A 
ENDBRANCH   8  11
ENDBRANCH   3   5
BRANCH   1  20
ATOM     20  C   UNL     1       8.689   9.583  17.516  0.00  0.00    +0.000 C 
BRANCH  20  23
ATOM     21  C   UNL     1       9.751  11.283  18.927  0.00  0.00    +0.000 C 
ATOM     22  O   UNL     1      10.735  11.294  18.200  0.00  0.00    +0.000 OA
ATOM     23  N   UNL     1       8.686  10.444  18.686  0.00  0.00    +0.000 N 
ATOM     24  H   UNL     1       7.797  10.593  19.132  0.00  0.00    +0.000 HD
BRANCH  21  30
ATOM     25  C   UNL     1       8.272  11.945  23.652  0.00  0.00    +0.000 C 
ATOM     26  C   UNL     1       8.939  12.499  22.427  0.00  0.00    +0.000 A 
ATOM     27  C   UNL     1       9.436  13.807  22.407  0.00  0.00    +0.000 A 
ATOM     28  C   UNL     1      10.045  14.309  21.259  0.00  0.00    +0.000 A 
ATOM     29  C   UNL     1      10.163  13.512  20.115  0.00  0.00    +0.000 A 
ATOM     30  C   UNL     1       9.679  12.198  20.117  0.00  0.00    +0.000 A 
ATOM     31  C   UNL     1       9.070  11.702  21.282  0.00  0.00    +0.000 A 
ENDBRANCH  21  30
ENDBRANCH  20  23
ENDBRANCH   1  20
TORSDOF 5
ENDMDL
MODEL 7
REMARK VINA RESULT:      -8.5      4.134      9.783
REMARK  Name = 
REMARK  6 active torsions:
REMARK  status: ('A' for Active; 'I' for Inactive)
REMARK    1  A    between atoms: C_1  and  C_2
REMARK    2  A    between atoms: C_6  and  C_7
REMARK    3  A    between atoms: N_9  and  C_10
REMARK    4  A    between atoms: C_10  and  C_11
REMARK    5  A    between atoms: N_13  and  C_14
REMARK    6  A    between atoms: C_17  and  N_18
REMARK                            x       y       z     vdW  Elec       q    Type
REMARK                         _______ _______ _______ _____ _____    ______ ____
ROOT
ATOM      1  C   UNL     1      -0.941  10.795  18.487  0.00  0.00    +0.000 C 
ATOM      2  O   UNL     1      -1.727   9.856  18.378  0.00  0.00    +0.000 OA
ATOM      3  N   UNL     1       0.408  10.715  18.831  0.00  0.00    +0.000 N 
ATOM      4  H   UNL     1       0.925  11.585  18.890  0.00  0.00    +0.000 HD
ENDROOT
BRANCH   3   5
ATOM      5  C   UNL     1       1.137   9.520  19.030  0.00  0.00    +0.000 A 
ATOM      6  C   UNL     1       1.215   8.916  20.283  0.00  0.00    +0.000 A 
ATOM      7  C   UNL     1       1.869   7.711  20.451  0.00  0.00    +0.000 A 
ATOM      8  C   UNL     1       2.486   7.083  19.364  0.00  0.00    +0.000 A 
ATOM      9  C   UNL     1       2.483   7.678  18.108  0.00  0.00    +0.000 A 
ATOM     10  C   UNL     1       1.779   8.891  17.945  0.00  0.00    +0.000 A 
BRANCH   8  11
ATOM     11  N   UNL     1       3.081   5.824  19.643  0.00  0.00    +0.000 N 
ATOM     12  C   UNL     1       4.356   5.515  19.198  0.00  0.00    +0.000 A 
ATOM     13  N   UNL     1       4.452   4.290  18.741  0.00  0.00    +0.000 NA
ATOM     14  C   UNL     1       3.212   3.751  18.957  0.00  0.00    +0.000 A 
ATOM     15  C   UNL     1       2.706   2.522  18.515  0.00  0.00    +0.000 A 
ATOM     16  C   UNL     1       1.399   2.170  18.869  0.00  0.00    +0.000 A 
ATOM     17  C   UNL     1       0.637   2.999  19.694  0.00  0.00    +0.000 A 
ATOM     18  C   UNL     1       1.109   4.251  20.112  0.00  0.00    +0.000 A 
ATOM     19  C   UNL     1       2.389   4.620  19.681  0.00  0.00    +0.000 A 
ENDBRANCH   8  11
ENDBRANCH   3   5
BRANCH   1  20
ATOM     20  C   UNL     1      -1.419  12.197  18.132  0.00  0.00    +0.000 C 
BRANCH  20  23
ATOM     21  C   UNL     1      -0.206  14.177  18.916  0.00  0.00    +0.000 C 
ATOM     22  O   UNL     1      -1.115  14.447  19.689  0.00  0.00    +0.000 OA
ATOM     23  N   UNL     1      -0.274  13.088  18.076  0.00  0.00    +0.000 N 
ATOM     24  H   UNL     1       0.549  12.734  17.617  0.00  0.00    +0.000 HD
BRANCH  21  30
ATOM     25  C   UNL     1       4.692  14.479  17.985  0.00  0.00    +0.000 C 
ATOM     26  C   UNL     1       3.422  15.159  18.408  0.00  0.00    +0.000 A 
ATOM     27  C   UNL     1       3.413  16.514  18.755  0.00  0.00    +0.000 A 
ATOM     28  C   UNL     1       2.227  17.127  19.153  0.00  0.00    +0.000 A 
ATOM     29  C   UNL     1       1.036  16.395  19.214  0.00  0.00    +0.000 A 
ATOM     30  C   UNL     1       1.024  15.038  18.863  0.00  0.00    +0.000 A 
ATOM     31  C   UNL     1       2.225  14.432  18.459  0.00  0.00    +0.000 A 
ENDBRANCH  21  30
ENDBRANCH  20  23
ENDBRANCH   1  20
TORSDOF 5
ENDMDL
MODEL 8
REMARK VINA RESULT:      -8.4      1.821      3.173
REMARK  Name = 
REMARK  6 active torsions:
REMARK  status: ('A' for Active; 'I' for Inactive)
REMARK    1  A    between atoms: C_1  and  C_2
REMARK    2  A    between atoms: C_6  and  C_7
REMARK    3  A    between atoms: N_9  and  C_10
REMARK    4  A    between atoms: C_10  and  C_11
REMARK    5  A    between atoms: N_13  and  C_14
REMARK    6  A    between atoms: C_17  and  N_18
REMARK                            x       y       z     vdW  Elec       q    Type
REMARK                         _______ _______ _______ _____ _____    ______ ____
ROOT
ATOM      1  C   UNL     1       2.021   5.172  20.312  0.00  0.00    +0.000 C 
ATOM      2  O   UNL     1       0.817   4.938  20.408  0.00  0.00    +0.000 OA
ATOM      3  N   UNL     1       2.608   6.404  20.026  0.00  0.00    +0.000 N 
ATOM      4  H   UNL     1       3.620   6.435  19.971  0.00  0.00    +0.000 HD
ENDROOT
BRANCH   3   5
ATOM      5  C   UNL     1       1.919   7.630  19.880  0.00  0.00    +0.000 A 
ATOM      6  C   UNL     1       1.924   8.328  18.674  0.00  0.00    +0.000 A 
ATOM      7  C   UNL     1       1.188   9.487  18.522  0.00  0.00    +0.000 A 
ATOM      8  C   UNL     1       0.439   9.996  19.589  0.00  0.00    +0.000 A 
ATOM      9  C   UNL     1       0.452   9.364  20.827  0.00  0.00    +0.000 A 
ATOM     10  C   UNL     1       1.178   8.160  20.955  0.00  0.00    +0.000 A 
BRANCH   8  11
ATOM     11  N   UNL     1      -0.319  11.162  19.301  0.00  0.00    +0.000 N 
ATOM     12  C   UNL     1      -0.434  12.191  20.221  0.00  0.00    +0.000 A 
ATOM     13  N   UNL     1      -1.649  12.680  20.287  0.00  0.00    +0.000 NA
ATOM     14  C   UNL     1      -2.342  11.993  19.327  0.00  0.00    +0.000 A 
ATOM     15  C   UNL     1      -3.719  11.998  19.074  0.00  0.00    +0.000 A 
ATOM     16  C   UNL     1      -4.210  11.218  18.020  0.00  0.00    +0.000 A 
ATOM     17  C   UNL     1      -3.338  10.497  17.203  0.00  0.00    +0.000 A 
ATOM     18  C   UNL     1      -1.962  10.446  17.465  0.00  0.00    +0.000 A 
ATOM     19  C   UNL     1      -1.501  11.170  18.571  0.00  0.00    +0.000 A 
ENDBRANCH   8  11
ENDBRANCH   3   5
BRANCH   1  20
ATOM     20  C   UNL     1       3.012   4.058  20.620  0.00  0.00    +0.000 C 
BRANCH  20  23
ATOM     21  C   UNL     1       3.952   4.064  18.357  0.00  0.00    +0.000 C 
ATOM     22  O   UNL     1       2.847   3.838  17.881  0.00  0.00    +0.000 OA
ATOM     23  N   UNL     1       4.143   4.166  19.716  0.00  0.00    +0.000 N 
ATOM     24  H   UNL     1       4.982   4.575  20.093  0.00  0.00    +0.000 HD
BRANCH  21  30
ATOM     25  C   UNL     1       5.788   3.910  13.714  0.00  0.00    +0.000 C 
ATOM     26  C   UNL     1       6.018   4.153  15.177  0.00  0.00    +0.000 A 
ATOM     27  C   UNL     1       7.285   4.499  15.658  0.00  0.00    +0.000 A 
ATOM     28  C   UNL     1       7.484   4.713  17.020  0.00  0.00    +0.000 A 
ATOM     29  C   UNL     1       6.420   4.581  17.920  0.00  0.00    +0.000 A 
ATOM     30  C   UNL     1       5.142   4.242  17.457  0.00  0.00    +0.000 A 
ATOM     31  C   UNL     1       4.954   4.032  16.081  0.00  0.00    +0.000 A 
ENDBRANCH  21  30
ENDBRANCH  20  23
ENDBRANCH   1  20
TORSDOF 5
ENDMDL
MODEL 9
REMARK VINA RESULT:      -8.4      4.053     11.392
REMARK  Name = 
REMARK  6 active torsions:
REMARK  status: ('A' for Active; 'I' for Inactive)
REMARK    1  A    between atoms: C_1  and  C_2
REMARK    2  A    between atoms: C_6  and  C_7
REMARK    3  A    between atoms: N_9  and  C_10
REMARK    4  A    between atoms: C_10  and  C_11
REMARK    5  A    between atoms: N_13  and  C_14
REMARK    6  A    between atoms: C_17  and  N_18
REMARK                            x       y       z     vdW  Elec       q    Type
REMARK                         _______ _______ _______ _____ _____    ______ ____
ROOT
ATOM      1  C   UNL     1      -0.998  10.895  18.701  0.00  0.00    +0.000 C 
ATOM      2  O   UNL     1      -1.594  10.078  18.001  0.00  0.00    +0.000 OA
ATOM      3  N   UNL     1       0.202  10.689  19.380  0.00  0.00    +0.000 N 
ATOM      4  H   UNL     1       0.565  11.461  19.928  0.00  0.00    +0.000 HD
ENDROOT
BRANCH   3   5
ATOM      5  C   UNL     1       0.998   9.521  19.309  0.00  0.00    +0.000 A 
ATOM      6  C   UNL     1       1.180   8.698  20.418  0.00  0.00    +0.000 A 
ATOM      7  C   UNL     1       1.899   7.523  20.319  0.00  0.00    +0.000 A 
ATOM      8  C   UNL     1       2.479   7.147  19.102  0.00  0.00    +0.000 A 
ATOM      9  C   UNL     1       2.371   7.967  17.985  0.00  0.00    +0.000 A 
ATOM     10  C   UNL     1       1.601   9.146  18.093  0.00  0.00    +0.000 A 
BRANCH   8  11
ATOM     11  N   UNL     1       3.148   5.896  19.106  0.00  0.00    +0.000 N 
ATOM     12  C   UNL     1       4.212   5.645  18.254  0.00  0.00    +0.000 A 
ATOM     13  N   UNL     1       4.169   4.445  17.726  0.00  0.00    +0.000 NA
ATOM     14  C   UNL     1       3.074   3.861  18.304  0.00  0.00    +0.000 A 
ATOM     15  C   UNL     1       2.467   2.640  17.986  0.00  0.00    +0.000 A 
ATOM     16  C   UNL     1       1.352   2.233  18.727  0.00  0.00    +0.000 A 
ATOM     17  C   UNL     1       0.890   3.000  19.798  0.00  0.00    +0.000 A 
ATOM     18  C   UNL     1       1.457   4.245  20.106  0.00  0.00    +0.000 A 
ATOM     19  C   UNL     1       2.522   4.670  19.302  0.00  0.00    +0.000 A 
ENDBRANCH   8  11
ENDBRANCH   3   5
BRANCH   1  20
ATOM     20  C   UNL     1      -1.538  12.315  18.793  0.00  0.00    +0.000 C 
BRANCH  20  23
ATOM     21  C   UNL     1      -3.417  12.781  20.296  0.00  0.00    +0.000 C 
ATOM     22  O   UNL     1      -2.654  13.250  21.130  0.00  0.00    +0.000 OA
ATOM     23  N   UNL     1      -2.956  12.265  19.107  0.00  0.00    +0.000 N 
ATOM     24  H   UNL     1      -3.581  12.097  18.336  0.00  0.00    +0.000 HD
BRANCH  21  30
ATOM     25  C   UNL     1      -7.114  12.739  23.655  0.00  0.00    +0.000 C 
ATOM     26  C   UNL     1      -6.689  12.733  22.215  0.00  0.00    +0.000 A 
ATOM     27  C   UNL     1      -7.634  12.684  21.186  0.00  0.00    +0.000 A 
ATOM     28  C   UNL     1      -7.222  12.671  19.855  0.00  0.00    +0.000 A 
ATOM     29  C   UNL     1      -5.860  12.704  19.536  0.00  0.00    +0.000 A 
ATOM     30  C   UNL     1      -4.897  12.760  20.553  0.00  0.00    +0.000 A 
ATOM     31  C   UNL     1      -5.326  12.777  21.891  0.00  0.00    +0.000 A 
ENDBRANCH  21  30
ENDBRANCH  20  23
ENDBRANCH   1  20
TORSDOF 5
ENDMDL
