MODEL 1
REMARK VINA RESULT:      -8.3      0.000      0.000
REMARK  Name = 
REMARK  7 active torsions:
REMARK  status: ('A' for Active; 'I' for Inactive)
REMARK    1  A    between atoms: C_1  and  C_2
REMARK    2  A    between atoms: C_2  and  C_3
REMARK    3  A    between atoms: N_7  and  C_8
REMARK    4  A    between atoms: C_8  and  C_9
REMARK    5  A    between atoms: C_13  and  N_14
REMARK    6  A    between atoms: C_19  and  C_20
REMARK    7  A    between atoms: C_23  and  C_24
REMARK                            x       y       z     vdW  Elec       q    Type
REMARK                         _______ _______ _______ _____ _____    ______ ____
ROOT
ATOM      1  C   UNL     1      -4.001  11.546  17.766  0.00  0.00    +0.000 A 
ATOM      2  C   UNL     1      -3.978  10.934  16.506  0.00  0.00    +0.000 A 
ATOM      3  C   UNL     1      -3.017   9.972  16.230  0.00  0.00    +0.000 A 
ATOM      4  C   UNL     1      -2.002   9.736  17.147  0.00  0.00    +0.000 A 
ATOM      5  C   UNL     1      -1.812  10.651  18.194  0.00  0.00    +0.000 A 
ATOM      6  C   UNL     1      -2.902  11.408  18.622  0.00  0.00    +0.000 A 
ENDROOT
BRANCH   5   7
ATOM      7  N   UNL     1      -0.480  11.228  18.363  0.00  0.00    +0.000 N 
ATOM      8  C   UNL     1       0.299  10.441  19.355  0.00  0.00    +0.000 C 
ATOM      9  C   UNL     1      -0.031  11.137  20.645  0.00  0.00    +0.000 A 
ATOM     10  C   UNL     1      -0.361  12.459  20.331  0.00  0.00    +0.000 A 
ATOM     11  C   UNL     1      -0.912  13.338  21.249  0.00  0.00    +0.000 A 
ATOM     12  C   UNL     1      -1.140  12.855  22.540  0.00  0.00    +0.000 A 
ATOM     13  C   UNL     1      -0.803  11.522  22.873  0.00  0.00    +0.000 A 
ATOM     14  C   UNL     1      -0.239  10.636  21.927  0.00  0.00    +0.000 A 
ATOM     15  C   UNL     1      -0.468  12.560  18.857  0.00  0.00    +0.000 C 
ATOM     16  O   UNL     1      -0.732  13.591  18.265  0.00  0.00    +0.000 OA
BRANCH  14  17
ATOM     17  C   UNL     1      -0.003   9.195  22.312  0.00  0.00    +0.000 C 
ATOM     18  F   UNL     1       1.239   8.735  22.003  0.00  0.00    +0.000 F 
ATOM     19  F   UNL     1      -0.152   8.990  23.648  0.00  0.00    +0.000 F 
ATOM     20  F   UNL     1      -0.875   8.348  21.699  0.00  0.00    +0.000 F 
ENDBRANCH  14  17
BRANCH  12  21
ATOM     21  C   UNL     1      -1.807  13.682  23.502  0.00  0.00    +0.000 C 
ATOM     22  N   UNL     1      -2.369  14.355  24.268  0.00  0.00    +0.000 NA
ENDBRANCH  12  21
ENDBRANCH   5   7
BRANCH   1  23
ATOM     23  C   UNL     1      -5.252  12.251  18.214  0.00  0.00    +0.000 C 
BRANCH  23  28
ATOM     24  C   UNL     1      -6.493  11.727  20.374  0.00  0.00    +0.000 A 
ATOM     25  N   UNL     1      -7.214  10.713  20.812  0.00  0.00    +0.000 NA
ATOM     26  N   UNL     1      -7.222   9.729  19.869  0.00  0.00    +0.000 NA
ATOM     27  C   UNL     1      -6.509  10.157  18.861  0.00  0.00    +0.000 A 
ATOM     28  N   UNL     1      -6.040  11.416  19.108  0.00  0.00    +0.000 N 
BRANCH  24  30
ATOM     29  C   UNL     1      -6.889  14.209  20.694  0.00  0.00    +0.000 C 
ATOM     30  C   UNL     1      -6.247  12.953  21.262  0.00  0.00    +0.000 C 
ATOM     31  C   UNL     1      -6.530  12.671  22.759  0.00  0.00    +0.000 C 
ATOM     32  O   UNL     1      -5.115  12.479  23.025  0.00  0.00    +0.000 OA
ATOM     33  C   UNL     1      -4.804  13.151  21.778  0.00  0.00    +0.000 C 
ENDBRANCH  24  30
ENDBRANCH  23  28
ENDBRANCH   1  23
TORSDOF 6
ENDMDL
MODEL 2
REMARK VINA RESULT:      -7.7      5.312      8.720
REMARK  Name = 
REMARK  7 active torsions:
REMARK  status: ('A' for Active; 'I' for Inactive)
REMARK    1  A    between atoms: C_1  and  C_2
REMARK    2  A    between atoms: C_2  and  C_3
REMARK    3  A    between atoms: N_7  and  C_8
REMARK    4  A    between atoms: C_8  and  C_9
REMARK    5  A    between atoms: C_13  and  N_14
REMARK    6  A    between atoms: C_19  and  C_20
REMARK    7  A    between atoms: C_23  and  C_24
REMARK                            x       y       z     vdW  Elec       q    Type
REMARK                         _______ _______ _______ _____ _____    ______ ____
ROOT
ATOM      1  C   UNL     1       2.317   6.983  19.484  0.00  0.00    +0.000 A 
ATOM      2  C   UNL     1       2.135   7.441  18.173  0.00  0.00    +0.000 A 
ATOM      3  C   UNL     1       1.772   8.762  17.953  0.00  0.00    +0.000 A 
ATOM      4  C   UNL     1       1.447   9.572  19.032  0.00  0.00    +0.000 A 
ATOM      5  C   UNL     1       1.230   8.973  20.283  0.00  0.00    +0.000 A 
ATOM      6  C   UNL     1       1.855   7.757  20.557  0.00  0.00    +0.000 A 
ENDROOT
BRANCH   5   7
ATOM      7  N   UNL     1      -0.033   9.253  20.964  0.00  0.00    +0.000 N 
ATOM      8  C   UNL     1      -1.161   9.206  19.995  0.00  0.00    +0.000 C 
ATOM      9  C   UNL     1      -1.239  10.632  19.528  0.00  0.00    +0.000 A 
ATOM     10  C   UNL     1      -0.722  11.434  20.552  0.00  0.00    +0.000 A 
ATOM     11  C   UNL     1      -0.454  12.783  20.392  0.00  0.00    +0.000 A 
ATOM     12  C   UNL     1      -0.716  13.344  19.139  0.00  0.00    +0.000 A 
ATOM     13  C   UNL     1      -1.246  12.546  18.097  0.00  0.00    +0.000 A 
ATOM     14  C   UNL     1      -1.518  11.170  18.275  0.00  0.00    +0.000 A 
ATOM     15  C   UNL     1      -0.113  10.539  21.563  0.00  0.00    +0.000 C 
ATOM     16  O   UNL     1       0.414  10.933  22.588  0.00  0.00    +0.000 OA
BRANCH  14  17
ATOM     17  C   UNL     1      -1.979  10.349  17.095  0.00  0.00    +0.000 C 
ATOM     18  F   UNL     1      -1.093   9.395  16.702  0.00  0.00    +0.000 F 
ATOM     19  F   UNL     1      -3.141   9.692  17.350  0.00  0.00    +0.000 F 
ATOM     20  F   UNL     1      -2.211  11.116  15.994  0.00  0.00    +0.000 F 
ENDBRANCH  14  17
BRANCH  12  21
ATOM     21  C   UNL     1      -0.357  14.706  18.879  0.00  0.00    +0.000 C 
ATOM     22  N   UNL     1      -0.081  15.821  18.688  0.00  0.00    +0.000 NA
ENDBRANCH  12  21
ENDBRANCH   5   7
BRANCH   1  23
ATOM     23  C   UNL     1       3.100   5.720  19.718  0.00  0.00    +0.000 C 
BRANCH  23  28
ATOM     24  C   UNL     1       4.022   4.663  17.595  0.00  0.00    +0.000 A 
ATOM     25  N   UNL     1       3.598   3.741  16.752  0.00  0.00    +0.000 NA
ATOM     26  N   UNL     1       2.354   3.330  17.127  0.00  0.00    +0.000 NA
ATOM     27  C   UNL     1       2.034   4.004  18.200  0.00  0.00    +0.000 A 
ATOM     28  N   UNL     1       3.051   4.844  18.558  0.00  0.00    +0.000 N 
BRANCH  24  30
ATOM     29  C   UNL     1       5.227   6.627  16.541  0.00  0.00    +0.000 C 
ATOM     30  C   UNL     1       5.369   5.363  17.375  0.00  0.00    +0.000 C 
ATOM     31  C   UNL     1       6.186   5.509  18.683  0.00  0.00    +0.000 C 
ATOM     32  O   UNL     1       6.994   4.349  18.347  0.00  0.00    +0.000 OA
ATOM     33  C   UNL     1       6.556   4.462  16.969  0.00  0.00    +0.000 C 
ENDBRANCH  24  30
ENDBRANCH  23  28
ENDBRANCH   1  23
TORSDOF 6
ENDMDL
MODEL 3
REMARK VINA RESULT:      -7.7      5.167      8.670
REMARK  Name = 
REMARK  7 active torsions:
REMARK  status: ('A' for Active; 'I' for Inactive)
REMARK    1  A    between atoms: C_1  and  C_2
REMARK    2  A    between atoms: C_2  and  C_3
REMARK    3  A    between atoms: N_7  and  C_8
REMARK    4  A    between atoms: C_8  and  C_9
REMARK    5  A    between atoms: C_13  and  N_14
REMARK    6  A    between atoms: C_19  and  C_20
REMARK    7  A    between atoms: C_23  and  C_24
REMARK                            x       y       z     vdW  Elec       q    Type
REMARK                         _______ _______ _______ _____ _____    ______ ____
ROOT
ATOM      1  C   UNL     1       2.328   7.044  19.424  0.00  0.00    +0.000 A 
ATOM      2  C   UNL     1       2.141   7.521  18.120  0.00  0.00    +0.000 A 
ATOM      3  C   UNL     1       1.772   8.844  17.922  0.00  0.00    +0.000 A 
ATOM      4  C   UNL     1       1.447   9.635  19.015  0.00  0.00    +0.000 A 
ATOM      5  C   UNL     1       1.236   9.016  20.257  0.00  0.00    +0.000 A 
ATOM      6  C   UNL     1       1.866   7.798  20.509  0.00  0.00    +0.000 A 
ENDROOT
BRANCH   5   7
ATOM      7  N   UNL     1      -0.027   9.280  20.945  0.00  0.00    +0.000 N 
ATOM      8  C   UNL     1      -1.158   9.228  19.981  0.00  0.00    +0.000 C 
ATOM      9  C   UNL     1      -1.253  10.655  19.523  0.00  0.00    +0.000 A 
ATOM     10  C   UNL     1      -0.739  11.456  20.548  0.00  0.00    +0.000 A 
ATOM     11  C   UNL     1      -0.484  12.809  20.394  0.00  0.00    +0.000 A 
ATOM     12  C   UNL     1      -0.758  13.374  19.146  0.00  0.00    +0.000 A 
ATOM     13  C   UNL     1      -1.285  12.576  18.102  0.00  0.00    +0.000 A 
ATOM     14  C   UNL     1      -1.543  11.197  18.274  0.00  0.00    +0.000 A 
ATOM     15  C   UNL     1      -0.116  10.562  21.551  0.00  0.00    +0.000 C 
ATOM     16  O   UNL     1       0.412  10.955  22.576  0.00  0.00    +0.000 OA
BRANCH  14  17
ATOM     17  C   UNL     1      -2.002  10.378  17.091  0.00  0.00    +0.000 C 
ATOM     18  F   UNL     1      -1.111   9.431  16.693  0.00  0.00    +0.000 F 
ATOM     19  F   UNL     1      -3.160   9.713  17.346  0.00  0.00    +0.000 F 
ATOM     20  F   UNL     1      -2.241  11.148  15.994  0.00  0.00    +0.000 F 
ENDBRANCH  14  17
BRANCH  12  21
ATOM     21  C   UNL     1      -0.414  14.741  18.892  0.00  0.00    +0.000 C 
ATOM     22  N   UNL     1      -0.115  15.850  18.703  0.00  0.00    +0.000 NA
ENDBRANCH  12  21
ENDBRANCH   5   7
BRANCH   1  23
ATOM     23  C   UNL     1       3.117   5.781  19.635  0.00  0.00    +0.000 C 
BRANCH  23  28
ATOM     24  C   UNL     1       3.895   4.584  17.528  0.00  0.00    +0.000 A 
ATOM     25  N   UNL     1       3.381   3.665  16.734  0.00  0.00    +0.000 NA
ATOM     26  N   UNL     1       2.123   3.359  17.159  0.00  0.00    +0.000 NA
ATOM     27  C   UNL     1       1.885   4.092  18.215  0.00  0.00    +0.000 A 
ATOM     28  N   UNL     1       2.970   4.869  18.511  0.00  0.00    +0.000 N 
BRANCH  24  30
ATOM     29  C   UNL     1       6.297   4.792  18.308  0.00  0.00    +0.000 C 
ATOM     30  C   UNL     1       5.281   5.177  17.243  0.00  0.00    +0.000 C 
ATOM     31  C   UNL     1       5.731   4.963  15.776  0.00  0.00    +0.000 C 
ATOM     32  O   UNL     1       5.333   6.314  15.422  0.00  0.00    +0.000 OA
ATOM     33  C   UNL     1       5.323   6.664  16.830  0.00  0.00    +0.000 C 
ENDBRANCH  24  30
ENDBRANCH  23  28
ENDBRANCH   1  23
TORSDOF 6
ENDMDL
MODEL 4
REMARK VINA RESULT:      -7.6      5.385      8.517
REMARK  Name = 
REMARK  7 active torsions:
REMARK  status: ('A' for Active; 'I' for Inactive)
REMARK    1  A    between atoms: C_1  and  C_2
REMARK    2  A    between atoms: C_2  and  C_3
REMARK    3  A    between atoms: N_7  and  C_8
REMARK    4  A    between atoms: C_8  and  C_9
REMARK    5  A    between atoms: C_13  and  N_14
REMARK    6  A    between atoms: C_19  and  C_20
REMARK    7  A    between atoms: C_23  and  C_24
REMARK                            x       y       z     vdW  Elec       q    Type
REMARK                         _______ _______ _______ _____ _____    ______ ____
ROOT
ATOM      1  C   UNL     1       2.211   6.612  18.345  0.00  0.00    +0.000 A 
ATOM      2  C   UNL     1       2.151   7.682  17.442  0.00  0.00    +0.000 A 
ATOM      3  C   UNL     1       2.214   8.984  17.918  0.00  0.00    +0.000 A 
ATOM      4  C   UNL     1       2.183   9.215  19.287  0.00  0.00    +0.000 A 
ATOM      5  C   UNL     1       1.820   8.161  20.140  0.00  0.00    +0.000 A 
ATOM      6  C   UNL     1       2.039   6.852  19.713  0.00  0.00    +0.000 A 
ENDROOT
BRANCH   5   7
ATOM      7  N   UNL     1       0.723   8.392  21.080  0.00  0.00    +0.000 N 
ATOM      8  C   UNL     1      -0.546   8.624  20.341  0.00  0.00    +0.000 C 
ATOM      9  C   UNL     1      -0.546  10.116  20.168  0.00  0.00    +0.000 A 
ATOM     10  C   UNL     1       0.215  10.655  21.210  0.00  0.00    +0.000 A 
ATOM     11  C   UNL     1       0.598  11.986  21.255  0.00  0.00    +0.000 A 
ATOM     12  C   UNL     1       0.196  12.804  20.196  0.00  0.00    +0.000 A 
ATOM     13  C   UNL     1      -0.581  12.273  19.140  0.00  0.00    +0.000 A 
ATOM     14  C   UNL     1      -0.967  10.914  19.107  0.00  0.00    +0.000 A 
ATOM     15  C   UNL     1       0.883   9.533  21.910  0.00  0.00    +0.000 C 
ATOM     16  O   UNL     1       1.610   9.674  22.876  0.00  0.00    +0.000 OA
BRANCH  14  17
ATOM     17  C   UNL     1      -1.702  10.382  17.900  0.00  0.00    +0.000 C 
ATOM     18  F   UNL     1      -2.840   9.701  18.198  0.00  0.00    +0.000 F 
ATOM     19  F   UNL     1      -2.077  11.374  17.049  0.00  0.00    +0.000 F 
ATOM     20  F   UNL     1      -0.938   9.525  17.168  0.00  0.00    +0.000 F 
ENDBRANCH  14  17
BRANCH  12  21
ATOM     21  C   UNL     1       0.652  14.161  20.132  0.00  0.00    +0.000 C 
ATOM     22  N   UNL     1       1.047  15.255  20.080  0.00  0.00    +0.000 NA
ENDBRANCH  12  21
ENDBRANCH   5   7
BRANCH   1  23
ATOM     23  C   UNL     1       2.566   5.242  17.834  0.00  0.00    +0.000 C 
BRANCH  23  28
ATOM     24  C   UNL     1       3.679   3.655  19.483  0.00  0.00    +0.000 A 
ATOM     25  N   UNL     1       4.921   3.422  19.860  0.00  0.00    +0.000 NA
ATOM     26  N   UNL     1       5.752   4.295  19.225  0.00  0.00    +0.000 NA
ATOM     27  C   UNL     1       5.007   5.048  18.460  0.00  0.00    +0.000 A 
ATOM     28  N   UNL     1       3.694   4.682  18.562  0.00  0.00    +0.000 N 
BRANCH  24  30
ATOM     29  C   UNL     1       1.878   1.914  19.098  0.00  0.00    +0.000 C 
ATOM     30  C   UNL     1       2.515   2.867  20.098  0.00  0.00    +0.000 C 
ATOM     31  C   UNL     1       2.871   2.255  21.476  0.00  0.00    +0.000 C 
ATOM     32  O   UNL     1       2.201   3.342  22.168  0.00  0.00    +0.000 OA
ATOM     33  C   UNL     1       1.504   3.675  20.941  0.00  0.00    +0.000 C 
ENDBRANCH  24  30
ENDBRANCH  23  28
ENDBRANCH   1  23
TORSDOF 6
ENDMDL
MODEL 5
REMARK VINA RESULT:      -7.5      0.679      1.018
REMARK  Name = 
REMARK  7 active torsions:
REMARK  status: ('A' for Active; 'I' for Inactive)
REMARK    1  A    between atoms: C_1  and  C_2
REMARK    2  A    between atoms: C_2  and  C_3
REMARK    3  A    between atoms: N_7  and  C_8
REMARK    4  A    between atoms: C_8  and  C_9
REMARK    5  A    between atoms: C_13  and  N_14
REMARK    6  A    between atoms: C_19  and  C_20
REMARK    7  A    between atoms: C_23  and  C_24
REMARK                            x       y       z     vdW  Elec       q    Type
REMARK                         _______ _______ _______ _____ _____    ______ ____
ROOT
ATOM      1  C   UNL     1      -4.035  11.698  17.890  0.00  0.00    +0.000 A 
ATOM      2  C   UNL     1      -4.056  11.111  16.618  0.00  0.00    +0.000 A 
ATOM      3  C   UNL     1      -3.133  10.123  16.304  0.00  0.00    +0.000 A 
ATOM      4  C   UNL     1      -2.109   9.835  17.196  0.00  0.00    +0.000 A 
ATOM      5  C   UNL     1      -1.869  10.721  18.257  0.00  0.00    +0.000 A 
ATOM      6  C   UNL     1      -2.925  11.505  18.722  0.00  0.00    +0.000 A 
ENDROOT
BRANCH   5   7
ATOM      7  N   UNL     1      -0.515  11.250  18.411  0.00  0.00    +0.000 N 
ATOM      8  C   UNL     1       0.242  10.442  19.405  0.00  0.00    +0.000 C 
ATOM      9  C   UNL     1      -0.052  11.161  20.691  0.00  0.00    +0.000 A 
ATOM     10  C   UNL     1      -0.336  12.492  20.367  0.00  0.00    +0.000 A 
ATOM     11  C   UNL     1      -0.847  13.399  21.281  0.00  0.00    +0.000 A 
ATOM     12  C   UNL     1      -1.083  12.936  22.578  0.00  0.00    +0.000 A 
ATOM     13  C   UNL     1      -0.793  11.594  22.921  0.00  0.00    +0.000 A 
ATOM     14  C   UNL     1      -0.270  10.680  21.979  0.00  0.00    +0.000 A 
ATOM     15  C   UNL     1      -0.450  12.585  18.893  0.00  0.00    +0.000 C 
ATOM     16  O   UNL     1      -0.680  13.620  18.294  0.00  0.00    +0.000 OA
BRANCH  14  17
ATOM     17  C   UNL     1      -0.084   9.235  22.375  0.00  0.00    +0.000 C 
ATOM     18  F   UNL     1       1.133   8.722  22.051  0.00  0.00    +0.000 F 
ATOM     19  F   UNL     1      -0.219   9.049  23.715  0.00  0.00    +0.000 F 
ATOM     20  F   UNL     1      -1.000   8.417  21.785  0.00  0.00    +0.000 F 
ENDBRANCH  14  17
BRANCH  12  21
ATOM     21  C   UNL     1      -1.711  13.796  23.538  0.00  0.00    +0.000 C 
ATOM     22  N   UNL     1      -2.244  14.487  24.307  0.00  0.00    +0.000 NA
ENDBRANCH  12  21
ENDBRANCH   5   7
BRANCH   1  23
ATOM     23  C   UNL     1      -5.252  12.435  18.378  0.00  0.00    +0.000 C 
BRANCH  23  28
ATOM     24  C   UNL     1      -6.363  11.946  20.615  0.00  0.00    +0.000 A 
ATOM     25  N   UNL     1      -7.105  10.966  21.094  0.00  0.00    +0.000 NA
ATOM     26  N   UNL     1      -7.232   9.997  20.144  0.00  0.00    +0.000 NA
ATOM     27  C   UNL     1      -6.571  10.401  19.091  0.00  0.00    +0.000 A 
ATOM     28  N   UNL     1      -6.018  11.630  19.317  0.00  0.00    +0.000 N 
BRANCH  24  30
ATOM     29  C   UNL     1      -6.193  12.853  22.975  0.00  0.00    +0.000 C 
ATOM     30  C   UNL     1      -5.988  13.144  21.496  0.00  0.00    +0.000 C 
ATOM     31  C   UNL     1      -4.617  13.758  21.116  0.00  0.00    +0.000 C 
ATOM     32  O   UNL     1      -5.264  14.813  20.355  0.00  0.00    +0.000 OA
ATOM     33  C   UNL     1      -6.509  14.525  21.041  0.00  0.00    +0.000 C 
ENDBRANCH  24  30
ENDBRANCH  23  28
ENDBRANCH   1  23
TORSDOF 6
ENDMDL
MODEL 6
REMARK VINA RESULT:      -7.5      5.683      9.134
REMARK  Name = 
REMARK  7 active torsions:
REMARK  status: ('A' for Active; 'I' for Inactive)
REMARK    1  A    between atoms: C_1  and  C_2
REMARK    2  A    between atoms: C_2  and  C_3
REMARK    3  A    between atoms: N_7  and  C_8
REMARK    4  A    between atoms: C_8  and  C_9
REMARK    5  A    between atoms: C_13  and  N_14
REMARK    6  A    between atoms: C_19  and  C_20
REMARK    7  A    between atoms: C_23  and  C_24
REMARK                            x       y       z     vdW  Elec       q    Type
REMARK                         _______ _______ _______ _____ _____    ______ ____
ROOT
ATOM      1  C   UNL     1       2.199   6.279  18.361  0.00  0.00    +0.000 A 
ATOM      2  C   UNL     1       2.144   7.304  17.407  0.00  0.00    +0.000 A 
ATOM      3  C   UNL     1       2.273   8.625  17.814  0.00  0.00    +0.000 A 
ATOM      4  C   UNL     1       2.304   8.924  19.169  0.00  0.00    +0.000 A 
ATOM      5  C   UNL     1       1.934   7.929  20.088  0.00  0.00    +0.000 A 
ATOM      6  C   UNL     1       2.089   6.593  19.721  0.00  0.00    +0.000 A 
ENDROOT
BRANCH   5   7
ATOM      7  N   UNL     1       0.884   8.249  21.054  0.00  0.00    +0.000 N 
ATOM      8  C   UNL     1      -0.397   8.520  20.349  0.00  0.00    +0.000 C 
ATOM      9  C   UNL     1      -0.328  10.003  20.120  0.00  0.00    +0.000 A 
ATOM     10  C   UNL     1       0.495  10.539  21.116  0.00  0.00    +0.000 A 
ATOM     11  C   UNL     1       0.946  11.849  21.098  0.00  0.00    +0.000 A 
ATOM     12  C   UNL     1       0.547  12.649  20.024  0.00  0.00    +0.000 A 
ATOM     13  C   UNL     1      -0.291  12.120  19.014  0.00  0.00    +0.000 A 
ATOM     14  C   UNL     1      -0.746  10.782  19.045  0.00  0.00    +0.000 A 
ATOM     15  C   UNL     1       1.130   9.410  21.834  0.00  0.00    +0.000 C 
ATOM     16  O   UNL     1       1.896   9.547  22.771  0.00  0.00    +0.000 OA
BRANCH  14  17
ATOM     17  C   UNL     1      -1.548  10.246  17.883  0.00  0.00    +0.000 C 
ATOM     18  F   UNL     1      -0.878   9.349  17.113  0.00  0.00    +0.000 F 
ATOM     19  F   UNL     1      -2.679   9.613  18.290  0.00  0.00    +0.000 F 
ATOM     20  F   UNL     1      -1.951  11.234  17.037  0.00  0.00    +0.000 F 
ENDBRANCH  14  17
BRANCH  12  21
ATOM     21  C   UNL     1       1.068  13.977  19.893  0.00  0.00    +0.000 C 
ATOM     22  N   UNL     1       1.472  15.062  19.771  0.00  0.00    +0.000 NA
ENDBRANCH  12  21
ENDBRANCH   5   7
BRANCH   1  23
ATOM     23  C   UNL     1       2.482   4.872  17.908  0.00  0.00    +0.000 C 
BRANCH  23  28
ATOM     24  C   UNL     1       4.982   4.524  18.240  0.00  0.00    +0.000 A 
ATOM     25  N   UNL     1       5.726   3.899  19.132  0.00  0.00    +0.000 NA
ATOM     26  N   UNL     1       4.915   3.273  20.031  0.00  0.00    +0.000 NA
ATOM     27  C   UNL     1       3.683   3.530  19.681  0.00  0.00    +0.000 A 
ATOM     28  N   UNL     1       3.657   4.329  18.573  0.00  0.00    +0.000 N 
BRANCH  24  30
ATOM     29  C   UNL     1       5.646   6.763  17.258  0.00  0.00    +0.000 C 
ATOM     30  C   UNL     1       5.628   5.255  17.057  0.00  0.00    +0.000 C 
ATOM     31  C   UNL     1       6.974   4.620  16.626  0.00  0.00    +0.000 C 
ATOM     32  O   UNL     1       6.327   3.909  15.537  0.00  0.00    +0.000 OA
ATOM     33  C   UNL     1       5.192   4.805  15.645  0.00  0.00    +0.000 C 
ENDBRANCH  24  30
ENDBRANCH  23  28
ENDBRANCH   1  23
TORSDOF 6
ENDMDL
MODEL 7
REMARK VINA RESULT:      -7.5      2.114      2.713
REMARK  Name = 
REMARK  7 active torsions:
REMARK  status: ('A' for Active; 'I' for Inactive)
REMARK    1  A    between atoms: C_1  and  C_2
REMARK    2  A    between atoms: C_2  and  C_3
REMARK    3  A    between atoms: N_7  and  C_8
REMARK    4  A    between atoms: C_8  and  C_9
REMARK    5  A    between atoms: C_13  and  N_14
REMARK    6  A    between atoms: C_19  and  C_20
REMARK    7  A    between atoms: C_23  and  C_24
REMARK                            x       y       z     vdW  Elec       q    Type
REMARK                         _______ _______ _______ _____ _____    ______ ____
ROOT
ATOM      1  C   UNL     1      -5.506  12.116  18.361  0.00  0.00    +0.000 A 
ATOM      2  C   UNL     1      -5.412  11.749  17.013  0.00  0.00    +0.000 A 
ATOM      3  C   UNL     1      -4.233  11.195  16.534  0.00  0.00    +0.000 A 
ATOM      4  C   UNL     1      -3.115  11.150  17.356  0.00  0.00    +0.000 A 
ATOM      5  C   UNL     1      -3.119  11.901  18.542  0.00  0.00    +0.000 A 
ATOM      6  C   UNL     1      -4.344  12.198  19.138  0.00  0.00    +0.000 A 
ENDROOT
BRANCH   5   7
ATOM      7  N   UNL     1      -2.016  12.835  18.762  0.00  0.00    +0.000 N 
ATOM      8  C   UNL     1      -0.750  12.272  18.220  0.00  0.00    +0.000 C 
ATOM      9  C   UNL     1      -0.198  11.532  19.405  0.00  0.00    +0.000 A 
ATOM     10  C   UNL     1      -0.705  12.149  20.554  0.00  0.00    +0.000 A 
ATOM     11  C   UNL     1      -0.567  11.611  21.823  0.00  0.00    +0.000 A 
ATOM     12  C   UNL     1       0.111  10.394  21.932  0.00  0.00    +0.000 A 
ATOM     13  C   UNL     1       0.636   9.764  20.779  0.00  0.00    +0.000 A 
ATOM     14  C   UNL     1       0.490  10.325  19.490  0.00  0.00    +0.000 A 
ATOM     15  C   UNL     1      -1.741  13.118  20.126  0.00  0.00    +0.000 C 
ATOM     16  O   UNL     1      -2.364  13.827  20.895  0.00  0.00    +0.000 OA
BRANCH  14  17
ATOM     17  C   UNL     1       0.976   9.551  18.288  0.00  0.00    +0.000 C 
ATOM     18  F   UNL     1       1.501   8.333  18.586  0.00  0.00    +0.000 F 
ATOM     19  F   UNL     1      -0.020   9.315  17.393  0.00  0.00    +0.000 F 
ATOM     20  F   UNL     1       1.948  10.218  17.605  0.00  0.00    +0.000 F 
ENDBRANCH  14  17
BRANCH  12  21
ATOM     21  C   UNL     1       0.190   9.735  23.202  0.00  0.00    +0.000 C 
ATOM     22  N   UNL     1       0.259   9.177  24.221  0.00  0.00    +0.000 NA
ENDBRANCH  12  21
ENDBRANCH   5   7
BRANCH   1  23
ATOM     23  C   UNL     1      -6.866  12.310  18.974  0.00  0.00    +0.000 C 
BRANCH  23  28
ATOM     24  C   UNL     1      -7.310  11.520  21.353  0.00  0.00    +0.000 A 
ATOM     25  N   UNL     1      -7.583  10.358  21.914  0.00  0.00    +0.000 NA
ATOM     26  N   UNL     1      -7.563   9.385  20.960  0.00  0.00    +0.000 NA
ATOM     27  C   UNL     1      -7.283   9.967  19.823  0.00  0.00    +0.000 A 
ATOM     28  N   UNL     1      -7.132  11.313  20.000  0.00  0.00    +0.000 N 
BRANCH  24  30
ATOM     29  C   UNL     1      -7.916  13.970  21.577  0.00  0.00    +0.000 C 
ATOM     30  C   UNL     1      -7.190  12.790  22.205  0.00  0.00    +0.000 C 
ATOM     31  C   UNL     1      -7.493  12.535  23.703  0.00  0.00    +0.000 C 
ATOM     32  O   UNL     1      -6.076  12.469  24.012  0.00  0.00    +0.000 OA
ATOM     33  C   UNL     1      -5.784  13.124  22.751  0.00  0.00    +0.000 C 
ENDBRANCH  24  30
ENDBRANCH  23  28
ENDBRANCH   1  23
TORSDOF 6
ENDMDL
MODEL 8
REMARK VINA RESULT:      -7.4      5.172      8.573
REMARK  Name = 
REMARK  7 active torsions:
REMARK  status: ('A' for Active; 'I' for Inactive)
REMARK    1  A    between atoms: C_1  and  C_2
REMARK    2  A    between atoms: C_2  and  C_3
REMARK    3  A    between atoms: N_7  and  C_8
REMARK    4  A    between atoms: C_8  and  C_9
REMARK    5  A    between atoms: C_13  and  N_14
REMARK    6  A    between atoms: C_19  and  C_20
REMARK    7  A    between atoms: C_23  and  C_24
REMARK                            x       y       z     vdW  Elec       q    Type
REMARK                         _______ _______ _______ _____ _____    ______ ____
ROOT
ATOM      1  C   UNL     1       2.374   7.148  19.466  0.00  0.00    +0.000 A 
ATOM      2  C   UNL     1       2.166   7.704  18.197  0.00  0.00    +0.000 A 
ATOM      3  C   UNL     1       1.714   9.012  18.087  0.00  0.00    +0.000 A 
ATOM      4  C   UNL     1       1.330   9.701  19.230  0.00  0.00    +0.000 A 
ATOM      5  C   UNL     1       1.151   8.983  20.422  0.00  0.00    +0.000 A 
ATOM      6  C   UNL     1       1.856   7.793  20.596  0.00  0.00    +0.000 A 
ENDROOT
BRANCH   5   7
ATOM      7  N   UNL     1      -0.131   9.116  21.113  0.00  0.00    +0.000 N 
ATOM      8  C   UNL     1      -1.173   9.610  20.172  0.00  0.00    +0.000 C 
ATOM      9  C   UNL     1      -1.070  11.099  20.336  0.00  0.00    +0.000 A 
ATOM     10  C   UNL     1      -0.564  11.342  21.618  0.00  0.00    +0.000 A 
ATOM     11  C   UNL     1      -0.151  12.595  22.041  0.00  0.00    +0.000 A 
ATOM     12  C   UNL     1      -0.251  13.646  21.125  0.00  0.00    +0.000 A 
ATOM     13  C   UNL     1      -0.767  13.415  19.828  0.00  0.00    +0.000 A 
ATOM     14  C   UNL     1      -1.188  12.132  19.410  0.00  0.00    +0.000 A 
ATOM     15  C   UNL     1      -0.133  10.045  22.187  0.00  0.00    +0.000 C 
ATOM     16  O   UNL     1       0.342   9.918  23.301  0.00  0.00    +0.000 OA
BRANCH  14  17
ATOM     17  C   UNL     1      -1.628  11.927  17.980  0.00  0.00    +0.000 C 
ATOM     18  F   UNL     1      -1.256  10.732  17.450  0.00  0.00    +0.000 F 
ATOM     19  F   UNL     1      -2.979  11.988  17.845  0.00  0.00    +0.000 F 
ATOM     20  F   UNL     1      -1.121  12.876  17.145  0.00  0.00    +0.000 F 
ENDBRANCH  14  17
BRANCH  12  21
ATOM     21  C   UNL     1       0.262  14.939  21.467  0.00  0.00    +0.000 C 
ATOM     22  N   UNL     1       0.664  15.990  21.767  0.00  0.00    +0.000 NA
ENDBRANCH  12  21
ENDBRANCH   5   7
BRANCH   1  23
ATOM     23  C   UNL     1       3.241   5.926  19.597  0.00  0.00    +0.000 C 
BRANCH  23  28
ATOM     24  C   UNL     1       3.858   4.628  17.496  0.00  0.00    +0.000 A 
ATOM     25  N   UNL     1       3.266   3.707  16.762  0.00  0.00    +0.000 NA
ATOM     26  N   UNL     1       2.021   3.469  17.261  0.00  0.00    +0.000 NA
ATOM     27  C   UNL     1       1.869   4.245  18.302  0.00  0.00    +0.000 A 
ATOM     28  N   UNL     1       2.998   4.985  18.514  0.00  0.00    +0.000 N 
BRANCH  24  30
ATOM     29  C   UNL     1       6.324   4.662  18.080  0.00  0.00    +0.000 C 
ATOM     30  C   UNL     1       5.250   5.152  17.120  0.00  0.00    +0.000 C 
ATOM     31  C   UNL     1       5.566   4.978  15.613  0.00  0.00    +0.000 C 
ATOM     32  O   UNL     1       5.224   6.365  15.348  0.00  0.00    +0.000 OA
ATOM     33  C   UNL     1       5.350   6.652  16.764  0.00  0.00    +0.000 C 
ENDBRANCH  24  30
ENDBRANCH  23  28
ENDBRANCH   1  23
TORSDOF 6
ENDMDL
MODEL 9
REMARK VINA RESULT:      -7.4      5.975      8.392
REMARK  Name = 
REMARK  7 active torsions:
REMARK  status: ('A' for Active; 'I' for Inactive)
REMARK    1  A    between atoms: C_1  and  C_2
REMARK    2  A    between atoms: C_2  and  C_3
REMARK    3  A    between atoms: N_7  and  C_8
REMARK    4  A    between atoms: C_8  and  C_9
REMARK    5  A    between atoms: C_13  and  N_14
REMARK    6  A    between atoms: C_19  and  C_20
REMARK    7  A    between atoms: C_23  and  C_24
REMARK                            x       y       z     vdW  Elec       q    Type
REMARK                         _______ _______ _______ _____ _____    ______ ____
ROOT
ATOM      1  C   UNL     1       2.129   8.487  18.564  0.00  0.00    +0.000 A 
ATOM      2  C   UNL     1       1.723   7.985  19.807  0.00  0.00    +0.000 A 
ATOM      3  C   UNL     1       2.370   6.881  20.344  0.00  0.00    +0.000 A 
ATOM      4  C   UNL     1       3.307   6.198  19.580  0.00  0.00    +0.000 A 
ATOM      5  C   UNL     1       3.380   6.467  18.204  0.00  0.00    +0.000 A 
ATOM      6  C   UNL     1       2.966   7.717  17.747  0.00  0.00    +0.000 A 
ENDROOT
BRANCH   5   7
ATOM      7  N   UNL     1       3.269   5.338  17.281  0.00  0.00    +0.000 N 
ATOM      8  C   UNL     1       2.086   4.506  17.627  0.00  0.00    +0.000 C 
ATOM      9  C   UNL     1       2.668   3.506  18.585  0.00  0.00    +0.000 A 
ATOM     10  C   UNL     1       4.028   3.382  18.281  0.00  0.00    +0.000 A 
ATOM     11  C   UNL     1       4.923   2.698  19.087  0.00  0.00    +0.000 A 
ATOM     12  C   UNL     1       4.418   2.117  20.253  0.00  0.00    +0.000 A 
ATOM     13  C   UNL     1       3.043   2.228  20.568  0.00  0.00    +0.000 A 
ATOM     14  C   UNL     1       2.141   2.927  19.735  0.00  0.00    +0.000 A 
ATOM     15  C   UNL     1       4.371   4.442  17.304  0.00  0.00    +0.000 C 
ATOM     16  O   UNL     1       5.483   4.593  16.831  0.00  0.00    +0.000 OA
BRANCH  14  17
ATOM     17  C   UNL     1       0.708   3.103  20.180  0.00  0.00    +0.000 C 
ATOM     18  F   UNL     1       0.314   4.401  20.280  0.00  0.00    +0.000 F 
ATOM     19  F   UNL     1      -0.170   2.513  19.327  0.00  0.00    +0.000 F 
ATOM     20  F   UNL     1       0.478   2.551  21.404  0.00  0.00    +0.000 F 
ENDBRANCH  14  17
BRANCH  12  21
ATOM     21  C   UNL     1       5.312   1.490  21.181  0.00  0.00    +0.000 C 
ATOM     22  N   UNL     1       6.020   0.965  21.942  0.00  0.00    +0.000 NA
ENDBRANCH  12  21
ENDBRANCH   5   7
BRANCH   1  23
ATOM     23  C   UNL     1       1.743   9.889  18.179  0.00  0.00    +0.000 C 
BRANCH  23  28
ATOM     24  C   UNL     1      -0.303  10.811  19.381  0.00  0.00    +0.000 A 
ATOM     25  N   UNL     1      -1.599  10.824  19.140  0.00  0.00    +0.000 NA
ATOM     26  N   UNL     1      -1.848  10.127  17.996  0.00  0.00    +0.000 NA
ATOM     27  C   UNL     1      -0.697   9.701  17.547  0.00  0.00    +0.000 A 
ATOM     28  N   UNL     1       0.317  10.116  18.363  0.00  0.00    +0.000 N 
BRANCH  24  30
ATOM     29  C   UNL     1       1.443  12.368  20.354  0.00  0.00    +0.000 C 
ATOM     30  C   UNL     1       0.262  11.457  20.652  0.00  0.00    +0.000 C 
ATOM     31  C   UNL     1      -0.842  12.063  21.555  0.00  0.00    +0.000 C 
ATOM     32  O   UNL     1      -0.824  10.893  22.417  0.00  0.00    +0.000 OA
ATOM     33  C   UNL     1       0.467  10.526  21.868  0.00  0.00    +0.000 C 
ENDBRANCH  24  30
ENDBRANCH  23  28
ENDBRANCH   1  23
TORSDOF 6
ENDMDL
