MODEL 1
REMARK VINA RESULT:      -8.5      0.000      0.000
REMARK  Name = 
REMARK  6 active torsions:
REMARK  status: ('A' for Active; 'I' for Inactive)
REMARK    1  A    between atoms: C_1  and  C_2
REMARK    2  A    between atoms: C_4  and  C_5
REMARK    3  A    between atoms: N_7  and  C_8
REMARK    4  A    between atoms: C_12  and  S_13
REMARK    5  A    between atoms: S_13  and  N_16
REMARK    6  A    between atoms: N_16  and  C_17
REMARK                            x       y       z     vdW  Elec       q    Type
REMARK                         _______ _______ _______ _____ _____    ______ ____
ROOT
ATOM      1  C   UNL     1       3.977   3.202  17.491  0.00  0.00    +0.000 A 
ATOM      2  C   UNL     1       3.675   1.848  17.671  0.00  0.00    +0.000 A 
ATOM      3  C   UNL     1       2.831   1.425  18.700  0.00  0.00    +0.000 A 
ATOM      4  C   UNL     1       2.282   2.350  19.579  0.00  0.00    +0.000 A 
ATOM      5  C   UNL     1       2.589   3.703  19.423  0.00  0.00    +0.000 A 
ATOM      6  C   UNL     1       3.456   4.133  18.400  0.00  0.00    +0.000 A 
ENDROOT
BRANCH   1   9
ATOM      7  C   UNL     1       6.056   4.231  16.557  0.00  0.00    +0.000 C 
ATOM      8  O   UNL     1       6.667   4.397  17.612  0.00  0.00    +0.000 OA
ATOM      9  N   UNL     1       4.794   3.659  16.431  0.00  0.00    +0.000 N 
ATOM     10  H   UNL     1       4.490   3.488  15.477  0.00  0.00    +0.000 HD
BRANCH   7  14
ATOM     11  C   UNL     1       7.472   4.695  11.694  0.00  0.00    +0.000 C 
ATOM     12  C   UNL     1       7.229   4.738  13.148  0.00  0.00    +0.000 A 
ATOM     13  C   UNL     1       6.401   4.061  14.004  0.00  0.00    +0.000 A 
ATOM     14  C   UNL     1       6.679   4.610  15.287  0.00  0.00    +0.000 A 
ATOM     15  N   UNL     1       7.618   5.568  15.197  0.00  0.00    +0.000 NA
ATOM     16  O   UNL     1       7.963   5.638  13.858  0.00  0.00    +0.000 OA
ENDBRANCH   7  14
ENDBRANCH   1   9
BRANCH   5  17
ATOM     17  S   UNL     1       1.977   4.868  20.625  0.00  0.00    +0.000 S 
ATOM     18  O   UNL     1       0.569   5.081  20.365  0.00  0.00    +0.000 OA
ATOM     19  O   UNL     1       2.434   4.413  21.922  0.00  0.00    +0.000 OA
BRANCH  17  20
ATOM     20  N   UNL     1       2.813   6.297  20.319  0.00  0.00    +0.000 N 
ATOM     21  H   UNL     1       3.710   6.119  19.871  0.00  0.00    +0.000 HD
BRANCH  20  22
ATOM     22  C   UNL     1       2.118   7.460  19.874  0.00  0.00    +0.000 A 
ATOM     23  C   UNL     1       1.383   8.231  20.774  0.00  0.00    +0.000 A 
ATOM     24  C   UNL     1       0.813   9.437  20.351  0.00  0.00    +0.000 A 
ATOM     25  C   UNL     1       0.951   9.856  19.024  0.00  0.00    +0.000 A 
ATOM     26  C   UNL     1       1.646   9.062  18.114  0.00  0.00    +0.000 A 
ATOM     27  C   UNL     1       2.222   7.870  18.543  0.00  0.00    +0.000 A 
ATOM     28  F   UNL     1       2.921   7.129  17.671  0.00  0.00    +0.000 F 
ENDBRANCH  20  22
ENDBRANCH  17  20
ENDBRANCH   5  17
TORSDOF 5
ENDMDL
MODEL 2
REMARK VINA RESULT:      -8.1      5.277      6.632
REMARK  Name = 
REMARK  6 active torsions:
REMARK  status: ('A' for Active; 'I' for Inactive)
REMARK    1  A    between atoms: C_1  and  C_2
REMARK    2  A    between atoms: C_4  and  C_5
REMARK    3  A    between atoms: N_7  and  C_8
REMARK    4  A    between atoms: C_12  and  S_13
REMARK    5  A    between atoms: S_13  and  N_16
REMARK    6  A    between atoms: N_16  and  C_17
REMARK                            x       y       z     vdW  Elec       q    Type
REMARK                         _______ _______ _______ _____ _____    ______ ____
ROOT
ATOM      1  C   UNL     1       7.863   7.972  18.039  0.00  0.00    +0.000 A 
ATOM      2  C   UNL     1       8.467   7.110  18.960  0.00  0.00    +0.000 A 
ATOM      3  C   UNL     1       7.963   5.828  19.189  0.00  0.00    +0.000 A 
ATOM      4  C   UNL     1       6.835   5.388  18.508  0.00  0.00    +0.000 A 
ATOM      5  C   UNL     1       6.210   6.245  17.599  0.00  0.00    +0.000 A 
ATOM      6  C   UNL     1       6.703   7.546  17.380  0.00  0.00    +0.000 A 
ENDROOT
BRANCH   1   9
ATOM      7  C   UNL     1       8.965  10.125  18.676  0.00  0.00    +0.000 C 
ATOM      8  O   UNL     1       9.151   9.888  19.869  0.00  0.00    +0.000 OA
ATOM      9  N   UNL     1       8.380   9.259  17.759  0.00  0.00    +0.000 N 
ATOM     10  H   UNL     1       8.414   9.567  16.791  0.00  0.00    +0.000 HD
BRANCH   7  14
ATOM     11  C   UNL     1      11.630  14.002  16.744  0.00  0.00    +0.000 C 
ATOM     12  C   UNL     1      10.661  13.027  17.277  0.00  0.00    +0.000 A 
ATOM     13  C   UNL     1      10.753  11.752  17.769  0.00  0.00    +0.000 A 
ATOM     14  C   UNL     1       9.417  11.397  18.107  0.00  0.00    +0.000 A 
ATOM     15  N   UNL     1       8.574  12.406  17.825  0.00  0.00    +0.000 NA
ATOM     16  O   UNL     1       9.359  13.425  17.314  0.00  0.00    +0.000 OA
ENDBRANCH   7  14
ENDBRANCH   1   9
BRANCH   5  17
ATOM     17  S   UNL     1       4.697   5.716  16.819  0.00  0.00    +0.000 S 
ATOM     18  O   UNL     1       3.669   6.684  17.135  0.00  0.00    +0.000 OA
ATOM     19  O   UNL     1       5.023   5.396  15.444  0.00  0.00    +0.000 OA
BRANCH  17  20
ATOM     20  N   UNL     1       4.314   4.249  17.553  0.00  0.00    +0.000 N 
ATOM     21  H   UNL     1       5.142   3.787  17.923  0.00  0.00    +0.000 HD
BRANCH  20  22
ATOM     22  C   UNL     1       3.130   4.121  18.336  0.00  0.00    +0.000 A 
ATOM     23  C   UNL     1       2.060   3.353  17.877  0.00  0.00    +0.000 A 
ATOM     24  C   UNL     1       0.956   3.132  18.710  0.00  0.00    +0.000 A 
ATOM     25  C   UNL     1       0.910   3.701  19.986  0.00  0.00    +0.000 A 
ATOM     26  C   UNL     1       1.959   4.507  20.426  0.00  0.00    +0.000 A 
ATOM     27  C   UNL     1       3.059   4.713  19.599  0.00  0.00    +0.000 A 
ATOM     28  F   UNL     1       4.082   5.459  20.043  0.00  0.00    +0.000 F 
ENDBRANCH  20  22
ENDBRANCH  17  20
ENDBRANCH   5  17
TORSDOF 5
ENDMDL
MODEL 3
REMARK VINA RESULT:      -8.0      2.917      8.025
REMARK  Name = 
REMARK  6 active torsions:
REMARK  status: ('A' for Active; 'I' for Inactive)
REMARK    1  A    between atoms: C_1  and  C_2
REMARK    2  A    between atoms: C_4  and  C_5
REMARK    3  A    between atoms: N_7  and  C_8
REMARK    4  A    between atoms: C_12  and  S_13
REMARK    5  A    between atoms: S_13  and  N_16
REMARK    6  A    between atoms: N_16  and  C_17
REMARK                            x       y       z     vdW  Elec       q    Type
REMARK                         _______ _______ _______ _____ _____    ______ ____
ROOT
ATOM      1  C   UNL     1       2.908   6.134  18.352  0.00  0.00    +0.000 A 
ATOM      2  C   UNL     1       2.261   4.924  18.084  0.00  0.00    +0.000 A 
ATOM      3  C   UNL     1       2.927   3.871  17.454  0.00  0.00    +0.000 A 
ATOM      4  C   UNL     1       4.254   4.013  17.069  0.00  0.00    +0.000 A 
ATOM      5  C   UNL     1       4.908   5.222  17.313  0.00  0.00    +0.000 A 
ATOM      6  C   UNL     1       4.235   6.295  17.929  0.00  0.00    +0.000 A 
ENDROOT
BRANCH   1   9
ATOM      7  C   UNL     1       1.965   8.447  18.488  0.00  0.00    +0.000 C 
ATOM      8  O   UNL     1       2.181   8.800  17.329  0.00  0.00    +0.000 OA
ATOM      9  N   UNL     1       2.268   7.200  19.026  0.00  0.00    +0.000 N 
ATOM     10  H   UNL     1       1.912   7.036  19.963  0.00  0.00    +0.000 HD
BRANCH   7  14
ATOM     11  C   UNL     1      -0.410  10.631  22.419  0.00  0.00    +0.000 C 
ATOM     12  C   UNL     1       0.263  10.220  21.173  0.00  0.00    +0.000 A 
ATOM     13  C   UNL     1       0.793   9.046  20.708  0.00  0.00    +0.000 A 
ATOM     14  C   UNL     1       1.295   9.361  19.414  0.00  0.00    +0.000 A 
ATOM     15  N   UNL     1       1.081  10.657  19.128  0.00  0.00    +0.000 NA
ATOM     16  O   UNL     1       0.429  11.188  20.228  0.00  0.00    +0.000 OA
ENDBRANCH   7  14
ENDBRANCH   1   9
BRANCH   5  17
ATOM     17  S   UNL     1       6.571   5.437  16.709  0.00  0.00    +0.000 S 
ATOM     18  O   UNL     1       7.187   6.507  17.465  0.00  0.00    +0.000 OA
ATOM     19  O   UNL     1       7.173   4.120  16.657  0.00  0.00    +0.000 OA
BRANCH  17  20
ATOM     20  N   UNL     1       6.398   5.927  15.108  0.00  0.00    +0.000 N 
ATOM     21  H   UNL     1       6.900   6.793  14.924  0.00  0.00    +0.000 HD
BRANCH  20  22
ATOM     22  C   UNL     1       6.410   4.967  14.053  0.00  0.00    +0.000 A 
ATOM     23  C   UNL     1       5.330   4.103  13.874  0.00  0.00    +0.000 A 
ATOM     24  C   UNL     1       5.297   3.255  12.761  0.00  0.00    +0.000 A 
ATOM     25  C   UNL     1       6.355   3.250  11.846  0.00  0.00    +0.000 A 
ATOM     26  C   UNL     1       7.455   4.080  12.052  0.00  0.00    +0.000 A 
ATOM     27  C   UNL     1       7.476   4.930  13.153  0.00  0.00    +0.000 A 
ATOM     28  F   UNL     1       8.521   5.754  13.325  0.00  0.00    +0.000 F 
ENDBRANCH  20  22
ENDBRANCH  17  20
ENDBRANCH   5  17
TORSDOF 5
ENDMDL
MODEL 4
REMARK VINA RESULT:      -8.0      2.694      8.011
REMARK  Name = 
REMARK  6 active torsions:
REMARK  status: ('A' for Active; 'I' for Inactive)
REMARK    1  A    between atoms: C_1  and  C_2
REMARK    2  A    between atoms: C_4  and  C_5
REMARK    3  A    between atoms: N_7  and  C_8
REMARK    4  A    between atoms: C_12  and  S_13
REMARK    5  A    between atoms: S_13  and  N_16
REMARK    6  A    between atoms: N_16  and  C_17
REMARK                            x       y       z     vdW  Elec       q    Type
REMARK                         _______ _______ _______ _____ _____    ______ ____
ROOT
ATOM      1  C   UNL     1       3.405   6.058  18.184  0.00  0.00    +0.000 A 
ATOM      2  C   UNL     1       2.815   4.807  17.974  0.00  0.00    +0.000 A 
ATOM      3  C   UNL     1       3.556   3.732  17.479  0.00  0.00    +0.000 A 
ATOM      4  C   UNL     1       4.901   3.891  17.173  0.00  0.00    +0.000 A 
ATOM      5  C   UNL     1       5.500   5.139  17.360  0.00  0.00    +0.000 A 
ATOM      6  C   UNL     1       4.752   6.232  17.839  0.00  0.00    +0.000 A 
ENDROOT
BRANCH   1   9
ATOM      7  C   UNL     1       2.007   7.165  19.937  0.00  0.00    +0.000 C 
ATOM      8  O   UNL     1       1.955   6.236  20.742  0.00  0.00    +0.000 OA
ATOM      9  N   UNL     1       2.688   7.151  18.724  0.00  0.00    +0.000 N 
ATOM     10  H   UNL     1       2.727   8.043  18.240  0.00  0.00    +0.000 HD
BRANCH   7  14
ATOM     11  C   UNL     1      -0.394  11.077  22.129  0.00  0.00    +0.000 C 
ATOM     12  C   UNL     1       0.302  10.083  21.290  0.00  0.00    +0.000 A 
ATOM     13  C   UNL     1       0.787   8.820  21.499  0.00  0.00    +0.000 A 
ATOM     14  C   UNL     1       1.351   8.437  20.250  0.00  0.00    +0.000 A 
ATOM     15  N   UNL     1       1.215   9.424  19.347  0.00  0.00    +0.000 NA
ATOM     16  O   UNL     1       0.551  10.448  20.002  0.00  0.00    +0.000 OA
ENDBRANCH   7  14
ENDBRANCH   1   9
BRANCH   5  17
ATOM     17  S   UNL     1       7.193   5.365  16.853  0.00  0.00    +0.000 S 
ATOM     18  O   UNL     1       7.778   6.391  17.689  0.00  0.00    +0.000 OA
ATOM     19  O   UNL     1       7.786   4.046  16.768  0.00  0.00    +0.000 OA
BRANCH  17  20
ATOM     20  N   UNL     1       7.107   5.931  15.269  0.00  0.00    +0.000 N 
ATOM     21  H   UNL     1       7.797   6.659  15.092  0.00  0.00    +0.000 HD
BRANCH  20  22
ATOM     22  C   UNL     1       6.866   5.030  14.192  0.00  0.00    +0.000 A 
ATOM     23  C   UNL     1       5.743   4.202  14.201  0.00  0.00    +0.000 A 
ATOM     24  C   UNL     1       5.451   3.415  13.080  0.00  0.00    +0.000 A 
ATOM     25  C   UNL     1       6.295   3.434  11.966  0.00  0.00    +0.000 A 
ATOM     26  C   UNL     1       7.442   4.227  11.975  0.00  0.00    +0.000 A 
ATOM     27  C   UNL     1       7.720   5.016  13.087  0.00  0.00    +0.000 A 
ATOM     28  F   UNL     1       8.805   5.804  13.075  0.00  0.00    +0.000 F 
ENDBRANCH  20  22
ENDBRANCH  17  20
ENDBRANCH   5  17
TORSDOF 5
ENDMDL
MODEL 5
REMARK VINA RESULT:      -7.8      3.225      4.301
REMARK  Name = 
REMARK  6 active torsions:
REMARK  status: ('A' for Active; 'I' for Inactive)
REMARK    1  A    between atoms: C_1  and  C_2
REMARK    2  A    between atoms: C_4  and  C_5
REMARK    3  A    between atoms: N_7  and  C_8
REMARK    4  A    between atoms: C_12  and  S_13
REMARK    5  A    between atoms: S_13  and  N_16
REMARK    6  A    between atoms: N_16  and  C_17
REMARK                            x       y       z     vdW  Elec       q    Type
REMARK                         _______ _______ _______ _____ _____    ______ ____
ROOT
ATOM      1  C   UNL     1       3.327   6.663  18.187  0.00  0.00    +0.000 A 
ATOM      2  C   UNL     1       3.082   5.940  19.359  0.00  0.00    +0.000 A 
ATOM      3  C   UNL     1       2.241   6.441  20.355  0.00  0.00    +0.000 A 
ATOM      4  C   UNL     1       1.637   7.682  20.202  0.00  0.00    +0.000 A 
ATOM      5  C   UNL     1       1.887   8.424  19.046  0.00  0.00    +0.000 A 
ATOM      6  C   UNL     1       2.751   7.933  18.048  0.00  0.00    +0.000 A 
ENDROOT
BRANCH   1   9
ATOM      7  C   UNL     1       5.528   6.239  17.077  0.00  0.00    +0.000 C 
ATOM      8  O   UNL     1       6.261   6.734  17.931  0.00  0.00    +0.000 OA
ATOM      9  N   UNL     1       4.140   6.159  17.145  0.00  0.00    +0.000 N 
ATOM     10  H   UNL     1       3.702   5.612  16.410  0.00  0.00    +0.000 HD
BRANCH   7  14
ATOM     11  C   UNL     1       6.431   3.661  12.786  0.00  0.00    +0.000 C 
ATOM     12  C   UNL     1       6.407   4.474  14.017  0.00  0.00    +0.000 A 
ATOM     13  C   UNL     1       5.450   4.783  14.946  0.00  0.00    +0.000 A 
ATOM     14  C   UNL     1       6.112   5.627  15.881  0.00  0.00    +0.000 A 
ATOM     15  N   UNL     1       7.394   5.815  15.523  0.00  0.00    +0.000 NA
ATOM     16  O   UNL     1       7.575   5.085  14.360  0.00  0.00    +0.000 OA
ENDBRANCH   7  14
ENDBRANCH   1   9
BRANCH   5  17
ATOM     17  S   UNL     1       1.204  10.065  18.912  0.00  0.00    +0.000 S 
ATOM     18  O   UNL     1       2.000  10.804  17.955  0.00  0.00    +0.000 OA
ATOM     19  O   UNL     1      -0.225   9.911  18.732  0.00  0.00    +0.000 OA
BRANCH  17  20
ATOM     20  N   UNL     1       1.404  10.750  20.437  0.00  0.00    +0.000 N 
ATOM     21  H   UNL     1       2.135  11.458  20.438  0.00  0.00    +0.000 HD
BRANCH  20  22
ATOM     22  C   UNL     1       0.272  11.027  21.258  0.00  0.00    +0.000 A 
ATOM     23  C   UNL     1      -0.087  10.153  22.285  0.00  0.00    +0.000 A 
ATOM     24  C   UNL     1      -1.120  10.501  23.163  0.00  0.00    +0.000 A 
ATOM     25  C   UNL     1      -1.813  11.704  22.997  0.00  0.00    +0.000 A 
ATOM     26  C   UNL     1      -1.484  12.555  21.943  0.00  0.00    +0.000 A 
ATOM     27  C   UNL     1      -0.448  12.210  21.081  0.00  0.00    +0.000 A 
ATOM     28  F   UNL     1      -0.113  13.051  20.091  0.00  0.00    +0.000 F 
ENDBRANCH  20  22
ENDBRANCH  17  20
ENDBRANCH   5  17
TORSDOF 5
ENDMDL
MODEL 6
REMARK VINA RESULT:      -7.8      2.449      7.822
REMARK  Name = 
REMARK  6 active torsions:
REMARK  status: ('A' for Active; 'I' for Inactive)
REMARK    1  A    between atoms: C_1  and  C_2
REMARK    2  A    between atoms: C_4  and  C_5
REMARK    3  A    between atoms: N_7  and  C_8
REMARK    4  A    between atoms: C_12  and  S_13
REMARK    5  A    between atoms: S_13  and  N_16
REMARK    6  A    between atoms: N_16  and  C_17
REMARK                            x       y       z     vdW  Elec       q    Type
REMARK                         _______ _______ _______ _____ _____    ______ ____
ROOT
ATOM      1  C   UNL     1       3.494   5.530  19.181  0.00  0.00    +0.000 A 
ATOM      2  C   UNL     1       3.102   4.188  19.115  0.00  0.00    +0.000 A 
ATOM      3  C   UNL     1       3.921   3.224  18.525  0.00  0.00    +0.000 A 
ATOM      4  C   UNL     1       5.145   3.585  17.978  0.00  0.00    +0.000 A 
ATOM      5  C   UNL     1       5.542   4.924  18.020  0.00  0.00    +0.000 A 
ATOM      6  C   UNL     1       4.710   5.904  18.595  0.00  0.00    +0.000 A 
ENDROOT
BRANCH   1   9
ATOM      7  C   UNL     1       2.178   7.656  19.207  0.00  0.00    +0.000 C 
ATOM      8  O   UNL     1       2.299   7.960  18.022  0.00  0.00    +0.000 OA
ATOM      9  N   UNL     1       2.701   6.518  19.811  0.00  0.00    +0.000 N 
ATOM     10  H   UNL     1       2.404   6.361  20.770  0.00  0.00    +0.000 HD
BRANCH   7  14
ATOM     11  C   UNL     1      -0.264   9.768  23.138  0.00  0.00    +0.000 C 
ATOM     12  C   UNL     1       0.358   9.348  21.868  0.00  0.00    +0.000 A 
ATOM     13  C   UNL     1       1.132   8.286  21.482  0.00  0.00    +0.000 A 
ATOM     14  C   UNL     1       1.388   8.508  20.100  0.00  0.00    +0.000 A 
ATOM     15  N   UNL     1       0.802   9.645  19.687  0.00  0.00    +0.000 NA
ATOM     16  O   UNL     1       0.153  10.162  20.796  0.00  0.00    +0.000 OA
ENDBRANCH   7  14
ENDBRANCH   1   9
BRANCH   5  17
ATOM     17  S   UNL     1       7.058   5.397  17.211  0.00  0.00    +0.000 S 
ATOM     18  O   UNL     1       7.697   6.414  18.018  0.00  0.00    +0.000 OA
ATOM     19  O   UNL     1       7.751   4.172  16.869  0.00  0.00    +0.000 OA
BRANCH  17  20
ATOM     20  N   UNL     1       6.580   6.079  15.747  0.00  0.00    +0.000 N 
ATOM     21  H   UNL     1       6.931   7.029  15.643  0.00  0.00    +0.000 HD
BRANCH  20  22
ATOM     22  C   UNL     1       6.557   5.294  14.558  0.00  0.00    +0.000 A 
ATOM     23  C   UNL     1       7.613   5.358  13.648  0.00  0.00    +0.000 A 
ATOM     24  C   UNL     1       7.639   4.489  12.551  0.00  0.00    +0.000 A 
ATOM     25  C   UNL     1       6.597   3.579  12.348  0.00  0.00    +0.000 A 
ATOM     26  C   UNL     1       5.520   3.547  13.231  0.00  0.00    +0.000 A 
ATOM     27  C   UNL     1       5.506   4.404  14.327  0.00  0.00    +0.000 A 
ATOM     28  F   UNL     1       4.484   4.343  15.194  0.00  0.00    +0.000 F 
ENDBRANCH  20  22
ENDBRANCH  17  20
ENDBRANCH   5  17
TORSDOF 5
ENDMDL
MODEL 7
REMARK VINA RESULT:      -7.7      3.410      4.400
REMARK  Name = 
REMARK  6 active torsions:
REMARK  status: ('A' for Active; 'I' for Inactive)
REMARK    1  A    between atoms: C_1  and  C_2
REMARK    2  A    between atoms: C_4  and  C_5
REMARK    3  A    between atoms: N_7  and  C_8
REMARK    4  A    between atoms: C_12  and  S_13
REMARK    5  A    between atoms: S_13  and  N_16
REMARK    6  A    between atoms: N_16  and  C_17
REMARK                            x       y       z     vdW  Elec       q    Type
REMARK                         _______ _______ _______ _____ _____    ______ ____
ROOT
ATOM      1  C   UNL     1       3.326   6.822  18.148  0.00  0.00    +0.000 A 
ATOM      2  C   UNL     1       3.085   6.106  19.325  0.00  0.00    +0.000 A 
ATOM      3  C   UNL     1       2.224   6.599  20.308  0.00  0.00    +0.000 A 
ATOM      4  C   UNL     1       1.597   7.827  20.137  0.00  0.00    +0.000 A 
ATOM      5  C   UNL     1       1.843   8.561  18.975  0.00  0.00    +0.000 A 
ATOM      6  C   UNL     1       2.726   8.078  17.990  0.00  0.00    +0.000 A 
ENDROOT
BRANCH   1   9
ATOM      7  C   UNL     1       5.519   6.047  17.228  0.00  0.00    +0.000 C 
ATOM      8  O   UNL     1       6.196   6.163  18.248  0.00  0.00    +0.000 OA
ATOM      9  N   UNL     1       4.160   6.325  17.119  0.00  0.00    +0.000 N 
ATOM     10  H   UNL     1       3.733   6.059  16.236  0.00  0.00    +0.000 HD
BRANCH   7  14
ATOM     11  C   UNL     1       6.553   3.766  12.801  0.00  0.00    +0.000 C 
ATOM     12  C   UNL     1       6.487   4.507  14.074  0.00  0.00    +0.000 A 
ATOM     13  C   UNL     1       5.517   4.710  15.019  0.00  0.00    +0.000 A 
ATOM     14  C   UNL     1       6.133   5.537  16.000  0.00  0.00    +0.000 A 
ATOM     15  N   UNL     1       7.402   5.816  15.653  0.00  0.00    +0.000 NA
ATOM     16  O   UNL     1       7.620   5.163  14.452  0.00  0.00    +0.000 OA
ENDBRANCH   7  14
ENDBRANCH   1   9
BRANCH   5  17
ATOM     17  S   UNL     1       1.128  10.186  18.818  0.00  0.00    +0.000 S 
ATOM     18  O   UNL     1       0.549  10.547  20.095  0.00  0.00    +0.000 OA
ATOM     19  O   UNL     1       2.127  11.026  18.189  0.00  0.00    +0.000 OA
BRANCH  17  20
ATOM     20  N   UNL     1      -0.107  10.016  17.686  0.00  0.00    +0.000 N 
ATOM     21  H   UNL     1      -0.064   9.113  17.217  0.00  0.00    +0.000 HD
BRANCH  20  22
ATOM     22  C   UNL     1      -1.415  10.508  17.964  0.00  0.00    +0.000 A 
ATOM     23  C   UNL     1      -1.622  11.420  18.999  0.00  0.00    +0.000 A 
ATOM     24  C   UNL     1      -2.886  11.992  19.180  0.00  0.00    +0.000 A 
ATOM     25  C   UNL     1      -3.949  11.631  18.345  0.00  0.00    +0.000 A 
ATOM     26  C   UNL     1      -3.754  10.686  17.340  0.00  0.00    +0.000 A 
ATOM     27  C   UNL     1      -2.491  10.130  17.158  0.00  0.00    +0.000 A 
ATOM     28  F   UNL     1      -2.301   9.248  16.165  0.00  0.00    +0.000 F 
ENDBRANCH  20  22
ENDBRANCH  17  20
ENDBRANCH   5  17
TORSDOF 5
ENDMDL
MODEL 8
REMARK VINA RESULT:      -7.7      3.919      4.989
REMARK  Name = 
REMARK  6 active torsions:
REMARK  status: ('A' for Active; 'I' for Inactive)
REMARK    1  A    between atoms: C_1  and  C_2
REMARK    2  A    between atoms: C_4  and  C_5
REMARK    3  A    between atoms: N_7  and  C_8
REMARK    4  A    between atoms: C_12  and  S_13
REMARK    5  A    between atoms: S_13  and  N_16
REMARK    6  A    between atoms: N_16  and  C_17
REMARK                            x       y       z     vdW  Elec       q    Type
REMARK                         _______ _______ _______ _____ _____    ______ ____
ROOT
ATOM      1  C   UNL     1       6.468   6.118  16.628  0.00  0.00    +0.000 A 
ATOM      2  C   UNL     1       6.765   5.492  15.413  0.00  0.00    +0.000 A 
ATOM      3  C   UNL     1       6.176   4.276  15.063  0.00  0.00    +0.000 A 
ATOM      4  C   UNL     1       5.285   3.656  15.928  0.00  0.00    +0.000 A 
ATOM      5  C   UNL     1       4.992   4.259  17.153  0.00  0.00    +0.000 A 
ATOM      6  C   UNL     1       5.600   5.475  17.520  0.00  0.00    +0.000 A 
ENDROOT
BRANCH   1   9
ATOM      7  C   UNL     1       7.882   7.612  18.051  0.00  0.00    +0.000 C 
ATOM      8  O   UNL     1       8.323   6.762  18.824  0.00  0.00    +0.000 OA
ATOM      9  N   UNL     1       7.019   7.371  16.987  0.00  0.00    +0.000 N 
ATOM     10  H   UNL     1       6.850   8.167  16.378  0.00  0.00    +0.000 HD
BRANCH   7  14
ATOM     11  C   UNL     1       9.980  12.023  19.467  0.00  0.00    +0.000 C 
ATOM     12  C   UNL     1       9.261  10.877  18.881  0.00  0.00    +0.000 A 
ATOM     13  C   UNL     1       9.185   9.541  19.168  0.00  0.00    +0.000 A 
ATOM     14  C   UNL     1       8.300   9.009  18.188  0.00  0.00    +0.000 A 
ATOM     15  N   UNL     1       7.877   9.978  17.358  0.00  0.00    +0.000 NA
ATOM     16  O   UNL     1       8.475  11.146  17.801  0.00  0.00    +0.000 OA
ENDBRANCH   7  14
ENDBRANCH   1   9
BRANCH   5  17
ATOM     17  S   UNL     1       3.941   3.398  18.307  0.00  0.00    +0.000 S 
ATOM     18  O   UNL     1       3.755   2.047  17.821  0.00  0.00    +0.000 OA
ATOM     19  O   UNL     1       4.478   3.646  19.629  0.00  0.00    +0.000 OA
BRANCH  17  20
ATOM     20  N   UNL     1       2.467   4.210  18.249  0.00  0.00    +0.000 N 
ATOM     21  H   UNL     1       1.684   3.575  18.387  0.00  0.00    +0.000 HD
BRANCH  20  22
ATOM     22  C   UNL     1       2.330   5.501  18.838  0.00  0.00    +0.000 A 
ATOM     23  C   UNL     1       2.562   6.650  18.082  0.00  0.00    +0.000 A 
ATOM     24  C   UNL     1       2.301   7.909  18.635  0.00  0.00    +0.000 A 
ATOM     25  C   UNL     1       1.837   8.020  19.950  0.00  0.00    +0.000 A 
ATOM     26  C   UNL     1       1.650   6.874  20.720  0.00  0.00    +0.000 A 
ATOM     27  C   UNL     1       1.900   5.625  20.161  0.00  0.00    +0.000 A 
ATOM     28  F   UNL     1       1.682   4.523  20.895  0.00  0.00    +0.000 F 
ENDBRANCH  20  22
ENDBRANCH  17  20
ENDBRANCH   5  17
TORSDOF 5
ENDMDL
MODEL 9
REMARK VINA RESULT:      -7.7      3.138      4.200
REMARK  Name = 
REMARK  6 active torsions:
REMARK  status: ('A' for Active; 'I' for Inactive)
REMARK    1  A    between atoms: C_1  and  C_2
REMARK    2  A    between atoms: C_4  and  C_5
REMARK    3  A    between atoms: N_7  and  C_8
REMARK    4  A    between atoms: C_12  and  S_13
REMARK    5  A    between atoms: S_13  and  N_16
REMARK    6  A    between atoms: N_16  and  C_17
REMARK                            x       y       z     vdW  Elec       q    Type
REMARK                         _______ _______ _______ _____ _____    ______ ____
ROOT
ATOM      1  C   UNL     1       3.212   6.408  18.360  0.00  0.00    +0.000 A 
ATOM      2  C   UNL     1       2.925   5.596  19.463  0.00  0.00    +0.000 A 
ATOM      3  C   UNL     1       2.060   6.026  20.471  0.00  0.00    +0.000 A 
ATOM      4  C   UNL     1       1.473   7.283  20.401  0.00  0.00    +0.000 A 
ATOM      5  C   UNL     1       1.765   8.112  19.316  0.00  0.00    +0.000 A 
ATOM      6  C   UNL     1       2.653   7.691  18.307  0.00  0.00    +0.000 A 
ENDROOT
BRANCH   1   9
ATOM      7  C   UNL     1       5.433   6.132  17.243  0.00  0.00    +0.000 C 
ATOM      8  O   UNL     1       6.139   6.636  18.114  0.00  0.00    +0.000 OA
ATOM      9  N   UNL     1       4.051   5.979  17.305  0.00  0.00    +0.000 N 
ATOM     10  H   UNL     1       3.642   5.432  16.552  0.00  0.00    +0.000 HD
BRANCH   7  14
ATOM     11  C   UNL     1       6.469   3.743  12.874  0.00  0.00    +0.000 C 
ATOM     12  C   UNL     1       6.403   4.512  14.130  0.00  0.00    +0.000 A 
ATOM     13  C   UNL     1       5.430   4.745  15.064  0.00  0.00    +0.000 A 
ATOM     14  C   UNL     1       6.049   5.588  16.030  0.00  0.00    +0.000 A 
ATOM     15  N   UNL     1       7.322   5.848  15.684  0.00  0.00    +0.000 NA
ATOM     16  O   UNL     1       7.540   5.166  14.499  0.00  0.00    +0.000 OA
ENDBRANCH   7  14
ENDBRANCH   1   9
BRANCH   5  17
ATOM     17  S   UNL     1       1.103   9.766  19.294  0.00  0.00    +0.000 S 
ATOM     18  O   UNL     1       1.885  10.549  18.361  0.00  0.00    +0.000 OA
ATOM     19  O   UNL     1      -0.332   9.642  19.143  0.00  0.00    +0.000 OA
BRANCH  17  20
ATOM     20  N   UNL     1       1.351  10.359  20.850  0.00  0.00    +0.000 N 
ATOM     21  H   UNL     1       2.289  10.739  20.962  0.00  0.00    +0.000 HD
BRANCH  20  22
ATOM     22  C   UNL     1       0.313  11.061  21.530  0.00  0.00    +0.000 A 
ATOM     23  C   UNL     1      -0.051  12.346  21.129  0.00  0.00    +0.000 A 
ATOM     24  C   UNL     1      -1.155  12.972  21.720  0.00  0.00    +0.000 A 
ATOM     25  C   UNL     1      -1.874  12.327  22.730  0.00  0.00    +0.000 A 
ATOM     26  C   UNL     1      -1.482  11.061  23.163  0.00  0.00    +0.000 A 
ATOM     27  C   UNL     1      -0.392  10.439  22.563  0.00  0.00    +0.000 A 
ATOM     28  F   UNL     1      -0.043   9.206  22.959  0.00  0.00    +0.000 F 
ENDBRANCH  20  22
ENDBRANCH  17  20
ENDBRANCH   5  17
TORSDOF 5
ENDMDL
