MODEL 1
REMARK VINA RESULT:      -8.2      0.000      0.000
REMARK  Name = 
REMARK  8 active torsions:
REMARK  status: ('A' for Active; 'I' for Inactive)
REMARK    1  A    between atoms: C_1  and  O_2
REMARK    2  A    between atoms: O_2  and  C_3
REMARK    3  A    between atoms: C_3  and  C_4
REMARK    4  A    between atoms: C_4  and  C_6
REMARK    5  A    between atoms: C_10  and  N_11
REMARK    6  A    between atoms: C_16  and  C_17
REMARK    7  A    between atoms: C_17  and  C_18
REMARK    8  A    between atoms: C_22  and  C_23
REMARK                            x       y       z     vdW  Elec       q    Type
REMARK                         _______ _______ _______ _____ _____    ______ ____
ROOT
ATOM      1  N   UNL     1       3.937   4.820  19.051  0.00  0.00    +0.000 N 
ATOM      2  C   UNL     1       5.291   5.420  19.194  0.00  0.00    +0.000 C 
ATOM      3  C   UNL     1       5.868   5.236  17.822  0.00  0.00    +0.000 A 
ATOM      4  C   UNL     1       5.205   4.159  17.233  0.00  0.00    +0.000 A 
ATOM      5  C   UNL     1       5.368   3.803  15.906  0.00  0.00    +0.000 A 
ATOM      6  C   UNL     1       6.282   4.531  15.139  0.00  0.00    +0.000 A 
ATOM      7  C   UNL     1       6.960   5.628  15.725  0.00  0.00    +0.000 A 
ATOM      8  C   UNL     1       6.756   6.007  17.076  0.00  0.00    +0.000 A 
ATOM      9  C   UNL     1       4.084   3.769  18.115  0.00  0.00    +0.000 C 
ATOM     10  O   UNL     1       3.335   2.833  17.896  0.00  0.00    +0.000 OA
ENDROOT
BRANCH   1  15
ATOM     11  C   UNL     1       1.963   7.803  19.627  0.00  0.00    +0.000 A 
ATOM     12  C   UNL     1       2.366   8.544  18.509  0.00  0.00    +0.000 A 
ATOM     13  C   UNL     1       2.903   7.893  17.404  0.00  0.00    +0.000 A 
ATOM     14  C   UNL     1       3.136   6.527  17.458  0.00  0.00    +0.000 A 
ATOM     15  C   UNL     1       2.972   5.842  18.678  0.00  0.00    +0.000 A 
ATOM     16  C   UNL     1       2.237   6.438  19.701  0.00  0.00    +0.000 A 
BRANCH  11  17
ATOM     17  C   UNL     1       1.340   8.462  20.805  0.00  0.00    +0.000 C 
ATOM     18  O   UNL     1       1.217   7.845  21.854  0.00  0.00    +0.000 OA
BRANCH  17  19
ATOM     19  C   UNL     1       0.850   9.901  20.632  0.00  0.00    +0.000 C 
BRANCH  19  21
ATOM     20  C   UNL     1      -0.882  10.368  19.099  0.00  0.00    +0.000 C 
ATOM     21  O   UNL     1      -0.549  10.007  20.435  0.00  0.00    +0.000 OA
ENDBRANCH  19  21
ENDBRANCH  17  19
ENDBRANCH  11  17
ENDBRANCH   1  15
BRANCH   8  22
ATOM     22  C   UNL     1       7.424   7.249  17.603  0.00  0.00    +0.000 C 
ATOM     23  F   UNL     1       6.565   8.263  17.904  0.00  0.00    +0.000 F 
ATOM     24  F   UNL     1       8.129   7.015  18.747  0.00  0.00    +0.000 F 
ATOM     25  F   UNL     1       8.315   7.774  16.715  0.00  0.00    +0.000 F 
ENDBRANCH   8  22
BRANCH   6  26
ATOM     26  C   UNL     1       6.546   4.122  13.708  0.00  0.00    +0.000 C 
BRANCH  26  27
ATOM     27  C   UNL     1       5.462   3.272  13.106  0.00  0.00    +0.000 C 
ATOM     28  C   UNL     1       5.805   2.562  11.815  0.00  0.00    +0.000 C 
ATOM     29  C   UNL     1       4.768   3.645  11.815  0.00  0.00    +0.000 C 
ENDBRANCH  26  27
ENDBRANCH   6  26
TORSDOF 7
ENDMDL
MODEL 2
REMARK VINA RESULT:      -8.1      0.923      1.023
REMARK  Name = 
REMARK  8 active torsions:
REMARK  status: ('A' for Active; 'I' for Inactive)
REMARK    1  A    between atoms: C_1  and  O_2
REMARK    2  A    between atoms: O_2  and  C_3
REMARK    3  A    between atoms: C_3  and  C_4
REMARK    4  A    between atoms: C_4  and  C_6
REMARK    5  A    between atoms: C_10  and  N_11
REMARK    6  A    between atoms: C_16  and  C_17
REMARK    7  A    between atoms: C_17  and  C_18
REMARK    8  A    between atoms: C_22  and  C_23
REMARK                            x       y       z     vdW  Elec       q    Type
REMARK                         _______ _______ _______ _____ _____    ______ ____
ROOT
ATOM      1  N   UNL     1       4.014   4.754  19.121  0.00  0.00    +0.000 N 
ATOM      2  C   UNL     1       5.362   5.372  19.246  0.00  0.00    +0.000 C 
ATOM      3  C   UNL     1       5.907   5.233  17.855  0.00  0.00    +0.000 A 
ATOM      4  C   UNL     1       5.246   4.161  17.255  0.00  0.00    +0.000 A 
ATOM      5  C   UNL     1       5.380   3.843  15.916  0.00  0.00    +0.000 A 
ATOM      6  C   UNL     1       6.264   4.605  15.145  0.00  0.00    +0.000 A 
ATOM      7  C   UNL     1       6.939   5.697  15.743  0.00  0.00    +0.000 A 
ATOM      8  C   UNL     1       6.764   6.037  17.108  0.00  0.00    +0.000 A 
ATOM      9  C   UNL     1       4.153   3.730  18.154  0.00  0.00    +0.000 C 
ATOM     10  O   UNL     1       3.414   2.789  17.929  0.00  0.00    +0.000 OA
ENDROOT
BRANCH   1  15
ATOM     11  C   UNL     1       1.818   7.528  19.904  0.00  0.00    +0.000 A 
ATOM     12  C   UNL     1       2.271   8.437  18.940  0.00  0.00    +0.000 A 
ATOM     13  C   UNL     1       2.940   7.974  17.812  0.00  0.00    +0.000 A 
ATOM     14  C   UNL     1       3.252   6.626  17.703  0.00  0.00    +0.000 A 
ATOM     15  C   UNL     1       3.025   5.770  18.799  0.00  0.00    +0.000 A 
ATOM     16  C   UNL     1       2.168   6.181  19.819  0.00  0.00    +0.000 A 
BRANCH  11  17
ATOM     17  C   UNL     1       1.055   7.984  21.095  0.00  0.00    +0.000 C 
ATOM     18  O   UNL     1      -0.027   7.478  21.357  0.00  0.00    +0.000 OA
BRANCH  17  19
ATOM     19  C   UNL     1       1.666   9.106  21.938  0.00  0.00    +0.000 C 
BRANCH  19  21
ATOM     20  C   UNL     1      -0.110   9.746  23.354  0.00  0.00    +0.000 C 
ATOM     21  O   UNL     1       0.745  10.126  22.281  0.00  0.00    +0.000 OA
ENDBRANCH  19  21
ENDBRANCH  17  19
ENDBRANCH  11  17
ENDBRANCH   1  15
BRANCH   8  22
ATOM     22  C   UNL     1       7.426   7.276  17.652  0.00  0.00    +0.000 C 
ATOM     23  F   UNL     1       6.565   8.294  17.932  0.00  0.00    +0.000 F 
ATOM     24  F   UNL     1       8.102   7.038  18.811  0.00  0.00    +0.000 F 
ATOM     25  F   UNL     1       8.339   7.796  16.784  0.00  0.00    +0.000 F 
ENDBRANCH   8  22
BRANCH   6  26
ATOM     26  C   UNL     1       6.497   4.238  13.698  0.00  0.00    +0.000 C 
BRANCH  26  27
ATOM     27  C   UNL     1       5.469   3.298  13.133  0.00  0.00    +0.000 C 
ATOM     28  C   UNL     1       5.847   2.579  11.856  0.00  0.00    +0.000 C 
ATOM     29  C   UNL     1       4.737   3.586  11.841  0.00  0.00    +0.000 C 
ENDBRANCH  26  27
ENDBRANCH   6  26
TORSDOF 7
ENDMDL
MODEL 3
REMARK VINA RESULT:      -8.0      3.403      6.287
REMARK  Name = 
REMARK  8 active torsions:
REMARK  status: ('A' for Active; 'I' for Inactive)
REMARK    1  A    between atoms: C_1  and  O_2
REMARK    2  A    between atoms: O_2  and  C_3
REMARK    3  A    between atoms: C_3  and  C_4
REMARK    4  A    between atoms: C_4  and  C_6
REMARK    5  A    between atoms: C_10  and  N_11
REMARK    6  A    between atoms: C_16  and  C_17
REMARK    7  A    between atoms: C_17  and  C_18
REMARK    8  A    between atoms: C_22  and  C_23
REMARK                            x       y       z     vdW  Elec       q    Type
REMARK                         _______ _______ _______ _____ _____    ______ ____
ROOT
ATOM      1  N   UNL     1       6.120   5.490  15.613  0.00  0.00    +0.000 N 
ATOM      2  C   UNL     1       4.962   6.395  15.852  0.00  0.00    +0.000 C 
ATOM      3  C   UNL     1       4.127   5.596  16.810  0.00  0.00    +0.000 A 
ATOM      4  C   UNL     1       4.444   4.252  16.617  0.00  0.00    +0.000 A 
ATOM      5  C   UNL     1       3.981   3.240  17.438  0.00  0.00    +0.000 A 
ATOM      6  C   UNL     1       3.113   3.584  18.478  0.00  0.00    +0.000 A 
ATOM      7  C   UNL     1       2.786   4.946  18.685  0.00  0.00    +0.000 A 
ATOM      8  C   UNL     1       3.297   5.980  17.860  0.00  0.00    +0.000 A 
ATOM      9  C   UNL     1       5.600   4.177  15.698  0.00  0.00    +0.000 C 
ATOM     10  O   UNL     1       6.094   3.136  15.303  0.00  0.00    +0.000 OA
ENDROOT
BRANCH   1  15
ATOM     11  C   UNL     1       7.908   7.597  17.957  0.00  0.00    +0.000 A 
ATOM     12  C   UNL     1       7.917   6.731  19.057  0.00  0.00    +0.000 A 
ATOM     13  C   UNL     1       7.746   5.364  18.864  0.00  0.00    +0.000 A 
ATOM     14  C   UNL     1       7.458   4.881  17.596  0.00  0.00    +0.000 A 
ATOM     15  C   UNL     1       7.190   5.787  16.551  0.00  0.00    +0.000 A 
ATOM     16  C   UNL     1       7.574   7.120  16.690  0.00  0.00    +0.000 A 
BRANCH  11  17
ATOM     17  C   UNL     1       8.137   9.056  18.123  0.00  0.00    +0.000 C 
ATOM     18  O   UNL     1       7.502   9.854  17.447  0.00  0.00    +0.000 OA
BRANCH  17  19
ATOM     19  C   UNL     1       9.198   9.494  19.135  0.00  0.00    +0.000 C 
BRANCH  19  21
ATOM     20  C   UNL     1       9.339  11.207  20.753  0.00  0.00    +0.000 C 
ATOM     21  O   UNL     1       9.218  10.891  19.370  0.00  0.00    +0.000 OA
ENDBRANCH  19  21
ENDBRANCH  17  19
ENDBRANCH  11  17
ENDBRANCH   1  15
BRANCH   8  22
ATOM     22  C   UNL     1       2.998   7.415  18.203  0.00  0.00    +0.000 C 
ATOM     23  F   UNL     1       4.036   8.270  17.986  0.00  0.00    +0.000 F 
ATOM     24  F   UNL     1       1.954   7.915  17.482  0.00  0.00    +0.000 F 
ATOM     25  F   UNL     1       2.659   7.573  19.513  0.00  0.00    +0.000 F 
ENDBRANCH   8  22
BRANCH   6  26
ATOM     26  C   UNL     1       2.524   2.497  19.347  0.00  0.00    +0.000 C 
BRANCH  26  27
ATOM     27  C   UNL     1       2.750   2.702  20.819  0.00  0.00    +0.000 C 
ATOM     28  C   UNL     1       1.550   2.497  21.717  0.00  0.00    +0.000 C 
ATOM     29  C   UNL     1       2.145   3.865  21.573  0.00  0.00    +0.000 C 
ENDBRANCH  26  27
ENDBRANCH   6  26
TORSDOF 7
ENDMDL
MODEL 4
REMARK VINA RESULT:      -7.7      1.152      1.524
REMARK  Name = 
REMARK  8 active torsions:
REMARK  status: ('A' for Active; 'I' for Inactive)
REMARK    1  A    between atoms: C_1  and  O_2
REMARK    2  A    between atoms: O_2  and  C_3
REMARK    3  A    between atoms: C_3  and  C_4
REMARK    4  A    between atoms: C_4  and  C_6
REMARK    5  A    between atoms: C_10  and  N_11
REMARK    6  A    between atoms: C_16  and  C_17
REMARK    7  A    between atoms: C_17  and  C_18
REMARK    8  A    between atoms: C_22  and  C_23
REMARK                            x       y       z     vdW  Elec       q    Type
REMARK                         _______ _______ _______ _____ _____    ______ ____
ROOT
ATOM      1  N   UNL     1       3.492   4.853  19.394  0.00  0.00    +0.000 N 
ATOM      2  C   UNL     1       4.889   5.365  19.374  0.00  0.00    +0.000 C 
ATOM      3  C   UNL     1       5.285   5.153  17.942  0.00  0.00    +0.000 A 
ATOM      4  C   UNL     1       4.489   4.124  17.439  0.00  0.00    +0.000 A 
ATOM      5  C   UNL     1       4.470   3.766  16.103  0.00  0.00    +0.000 A 
ATOM      6  C   UNL     1       5.330   4.439  15.231  0.00  0.00    +0.000 A 
ATOM      7  C   UNL     1       6.141   5.487  15.729  0.00  0.00    +0.000 A 
ATOM      8  C   UNL     1       6.125   5.870  17.095  0.00  0.00    +0.000 A 
ATOM      9  C   UNL     1       3.459   3.800  18.449  0.00  0.00    +0.000 C 
ATOM     10  O   UNL     1       2.631   2.915  18.323  0.00  0.00    +0.000 OA
ENDROOT
BRANCH   1  15
ATOM     11  C   UNL     1       1.735   7.908  20.233  0.00  0.00    +0.000 A 
ATOM     12  C   UNL     1       2.086   8.670  19.111  0.00  0.00    +0.000 A 
ATOM     13  C   UNL     1       2.494   8.035  17.944  0.00  0.00    +0.000 A 
ATOM     14  C   UNL     1       2.657   6.658  17.932  0.00  0.00    +0.000 A 
ATOM     15  C   UNL     1       2.557   5.936  19.137  0.00  0.00    +0.000 A 
ATOM     16  C   UNL     1       1.940   6.530  20.238  0.00  0.00    +0.000 A 
BRANCH  11  17
ATOM     17  C   UNL     1       1.246   8.553  21.480  0.00  0.00    +0.000 C 
ATOM     18  O   UNL     1       2.043   8.884  22.348  0.00  0.00    +0.000 OA
BRANCH  17  19
ATOM     19  C   UNL     1      -0.264   8.750  21.629  0.00  0.00    +0.000 C 
BRANCH  19  21
ATOM     20  C   UNL     1      -0.956  10.581  22.948  0.00  0.00    +0.000 C 
ATOM     21  O   UNL     1      -0.656   9.190  22.917  0.00  0.00    +0.000 OA
ENDBRANCH  19  21
ENDBRANCH  17  19
ENDBRANCH  11  17
ENDBRANCH   1  15
BRANCH   8  22
ATOM     22  C   UNL     1       6.929   7.064  17.536  0.00  0.00    +0.000 C 
ATOM     23  F   UNL     1       7.890   7.450  16.651  0.00  0.00    +0.000 F 
ATOM     24  F   UNL     1       6.153   8.167  17.739  0.00  0.00    +0.000 F 
ATOM     25  F   UNL     1       7.580   6.843  18.712  0.00  0.00    +0.000 F 
ENDBRANCH   8  22
BRANCH   6  26
ATOM     26  C   UNL     1       5.394   4.023  13.779  0.00  0.00    +0.000 C 
BRANCH  26  27
ATOM     27  C   UNL     1       6.792   3.830  13.260  0.00  0.00    +0.000 C 
ATOM     28  C   UNL     1       7.206   4.713  12.104  0.00  0.00    +0.000 C 
ATOM     29  C   UNL     1       7.071   3.234  11.899  0.00  0.00    +0.000 C 
ENDBRANCH  26  27
ENDBRANCH   6  26
TORSDOF 7
ENDMDL
MODEL 5
REMARK VINA RESULT:      -7.7      1.058      1.411
REMARK  Name = 
REMARK  8 active torsions:
REMARK  status: ('A' for Active; 'I' for Inactive)
REMARK    1  A    between atoms: C_1  and  O_2
REMARK    2  A    between atoms: O_2  and  C_3
REMARK    3  A    between atoms: C_3  and  C_4
REMARK    4  A    between atoms: C_4  and  C_6
REMARK    5  A    between atoms: C_10  and  N_11
REMARK    6  A    between atoms: C_16  and  C_17
REMARK    7  A    between atoms: C_17  and  C_18
REMARK    8  A    between atoms: C_22  and  C_23
REMARK                            x       y       z     vdW  Elec       q    Type
REMARK                         _______ _______ _______ _____ _____    ______ ____
ROOT
ATOM      1  N   UNL     1       3.572   5.265  19.621  0.00  0.00    +0.000 N 
ATOM      2  C   UNL     1       4.971   5.772  19.587  0.00  0.00    +0.000 C 
ATOM      3  C   UNL     1       5.472   5.233  18.279  0.00  0.00    +0.000 A 
ATOM      4  C   UNL     1       4.709   4.107  17.973  0.00  0.00    +0.000 A 
ATOM      5  C   UNL     1       4.788   3.445  16.761  0.00  0.00    +0.000 A 
ATOM      6  C   UNL     1       5.717   3.903  15.823  0.00  0.00    +0.000 A 
ATOM      7  C   UNL     1       6.496   5.047  16.121  0.00  0.00    +0.000 A 
ATOM      8  C   UNL     1       6.380   5.740  17.353  0.00  0.00    +0.000 A 
ATOM      9  C   UNL     1       3.602   4.019  18.950  0.00  0.00    +0.000 C 
ATOM     10  O   UNL     1       2.779   3.122  18.974  0.00  0.00    +0.000 OA
ENDROOT
BRANCH   1  15
ATOM     11  C   UNL     1       1.758   8.402  19.596  0.00  0.00    +0.000 A 
ATOM     12  C   UNL     1       2.211   8.900  18.369  0.00  0.00    +0.000 A 
ATOM     13  C   UNL     1       2.721   8.028  17.413  0.00  0.00    +0.000 A 
ATOM     14  C   UNL     1       2.879   6.685  17.724  0.00  0.00    +0.000 A 
ATOM     15  C   UNL     1       2.668   6.248  19.047  0.00  0.00    +0.000 A 
ATOM     16  C   UNL     1       1.957   7.063  19.928  0.00  0.00    +0.000 A 
BRANCH  11  17
ATOM     17  C   UNL     1       1.161   9.300  20.620  0.00  0.00    +0.000 C 
ATOM     18  O   UNL     1       0.615  10.339  20.275  0.00  0.00    +0.000 OA
BRANCH  17  19
ATOM     19  C   UNL     1       1.285   8.881  22.086  0.00  0.00    +0.000 C 
BRANCH  19  21
ATOM     20  C   UNL     1      -0.544   9.811  23.251  0.00  0.00    +0.000 C 
ATOM     21  O   UNL     1       0.855   9.874  23.000  0.00  0.00    +0.000 OA
ENDBRANCH  19  21
ENDBRANCH  17  19
ENDBRANCH  11  17
ENDBRANCH   1  15
BRANCH   8  22
ATOM     22  C   UNL     1       7.158   7.012  17.561  0.00  0.00    +0.000 C 
ATOM     23  F   UNL     1       6.385   8.128  17.681  0.00  0.00    +0.000 F 
ATOM     24  F   UNL     1       7.925   6.975  18.688  0.00  0.00    +0.000 F 
ATOM     25  F   UNL     1       8.015   7.268  16.533  0.00  0.00    +0.000 F 
ENDBRANCH   8  22
BRANCH   6  26
ATOM     26  C   UNL     1       5.888   3.158  14.519  0.00  0.00    +0.000 C 
BRANCH  26  27
ATOM     27  C   UNL     1       5.863   4.041  13.303  0.00  0.00    +0.000 C 
ATOM     28  C   UNL     1       5.276   3.436  12.046  0.00  0.00    +0.000 C 
ATOM     29  C   UNL     1       6.735   3.777  12.096  0.00  0.00    +0.000 C 
ENDBRANCH  26  27
ENDBRANCH   6  26
TORSDOF 7
ENDMDL
MODEL 6
REMARK VINA RESULT:      -7.7      0.873      1.076
REMARK  Name = 
REMARK  8 active torsions:
REMARK  status: ('A' for Active; 'I' for Inactive)
REMARK    1  A    between atoms: C_1  and  O_2
REMARK    2  A    between atoms: O_2  and  C_3
REMARK    3  A    between atoms: C_3  and  C_4
REMARK    4  A    between atoms: C_4  and  C_6
REMARK    5  A    between atoms: C_10  and  N_11
REMARK    6  A    between atoms: C_16  and  C_17
REMARK    7  A    between atoms: C_17  and  C_18
REMARK    8  A    between atoms: C_22  and  C_23
REMARK                            x       y       z     vdW  Elec       q    Type
REMARK                         _______ _______ _______ _____ _____    ______ ____
ROOT
ATOM      1  N   UNL     1       3.797   4.990  19.441  0.00  0.00    +0.000 N 
ATOM      2  C   UNL     1       5.168   5.568  19.479  0.00  0.00    +0.000 C 
ATOM      3  C   UNL     1       5.701   5.213  18.122  0.00  0.00    +0.000 A 
ATOM      4  C   UNL     1       4.998   4.093  17.679  0.00  0.00    +0.000 A 
ATOM      5  C   UNL     1       5.116   3.583  16.399  0.00  0.00    +0.000 A 
ATOM      6  C   UNL     1       6.024   4.194  15.530  0.00  0.00    +0.000 A 
ATOM      7  C   UNL     1       6.741   5.333  15.967  0.00  0.00    +0.000 A 
ATOM      8  C   UNL     1       6.585   5.871  17.270  0.00  0.00    +0.000 A 
ATOM      9  C   UNL     1       3.894   3.835  18.629  0.00  0.00    +0.000 C 
ATOM     10  O   UNL     1       3.119   2.900  18.539  0.00  0.00    +0.000 OA
ENDROOT
BRANCH   1  15
ATOM     11  C   UNL     1       1.805   7.998  19.774  0.00  0.00    +0.000 A 
ATOM     12  C   UNL     1       2.245   8.673  18.629  0.00  0.00    +0.000 A 
ATOM     13  C   UNL     1       2.817   7.959  17.582  0.00  0.00    +0.000 A 
ATOM     14  C   UNL     1       3.048   6.599  17.724  0.00  0.00    +0.000 A 
ATOM     15  C   UNL     1       2.845   5.986  18.976  0.00  0.00    +0.000 A 
ATOM     16  C   UNL     1       2.077   6.641  19.938  0.00  0.00    +0.000 A 
BRANCH  11  17
ATOM     17  C   UNL     1       1.144   8.724  20.890  0.00  0.00    +0.000 C 
ATOM     18  O   UNL     1       1.506   8.531  22.043  0.00  0.00    +0.000 OA
BRANCH  17  19
ATOM     19  C   UNL     1       0.002   9.679  20.534  0.00  0.00    +0.000 C 
BRANCH  19  21
ATOM     20  C   UNL     1       0.903  11.830  20.173  0.00  0.00    +0.000 C 
ATOM     21  O   UNL     1       0.170  10.986  21.055  0.00  0.00    +0.000 OA
ENDBRANCH  19  21
ENDBRANCH  17  19
ENDBRANCH  11  17
ENDBRANCH   1  15
BRANCH   8  22
ATOM     22  C   UNL     1       7.295   7.148  17.633  0.00  0.00    +0.000 C 
ATOM     23  F   UNL     1       6.465   8.203  17.867  0.00  0.00    +0.000 F 
ATOM     24  F   UNL     1       8.051   7.020  18.760  0.00  0.00    +0.000 F 
ATOM     25  F   UNL     1       8.148   7.561  16.654  0.00  0.00    +0.000 F 
ENDBRANCH   8  22
BRANCH   6  26
ATOM     26  C   UNL     1       6.238   3.617  14.149  0.00  0.00    +0.000 C 
BRANCH  26  27
ATOM     27  C   UNL     1       6.504   4.650  13.090  0.00  0.00    +0.000 C 
ATOM     28  C   UNL     1       7.165   4.155  11.822  0.00  0.00    +0.000 C 
ATOM     29  C   UNL     1       7.905   5.091  12.729  0.00  0.00    +0.000 C 
ENDBRANCH  26  27
ENDBRANCH   6  26
TORSDOF 7
ENDMDL
MODEL 7
REMARK VINA RESULT:      -7.4      3.814      8.041
REMARK  Name = 
REMARK  8 active torsions:
REMARK  status: ('A' for Active; 'I' for Inactive)
REMARK    1  A    between atoms: C_1  and  O_2
REMARK    2  A    between atoms: O_2  and  C_3
REMARK    3  A    between atoms: C_3  and  C_4
REMARK    4  A    between atoms: C_4  and  C_6
REMARK    5  A    between atoms: C_10  and  N_11
REMARK    6  A    between atoms: C_16  and  C_17
REMARK    7  A    between atoms: C_17  and  C_18
REMARK    8  A    between atoms: C_22  and  C_23
REMARK                            x       y       z     vdW  Elec       q    Type
REMARK                         _______ _______ _______ _____ _____    ______ ____
ROOT
ATOM      1  N   UNL     1       2.509   7.716  19.329  0.00  0.00    +0.000 N 
ATOM      2  C   UNL     1       2.149   8.461  20.565  0.00  0.00    +0.000 C 
ATOM      3  C   UNL     1       0.955   9.255  20.123  0.00  0.00    +0.000 A 
ATOM      4  C   UNL     1       1.049   9.411  18.740  0.00  0.00    +0.000 A 
ATOM      5  C   UNL     1       0.038   9.956  17.970  0.00  0.00    +0.000 A 
ATOM      6  C   UNL     1      -1.108  10.418  18.622  0.00  0.00    +0.000 A 
ATOM      7  C   UNL     1      -1.216  10.264  20.026  0.00  0.00    +0.000 A 
ATOM      8  C   UNL     1      -0.188   9.669  20.801  0.00  0.00    +0.000 A 
ATOM      9  C   UNL     1       2.167   8.573  18.255  0.00  0.00    +0.000 C 
ATOM     10  O   UNL     1       2.528   8.519  17.093  0.00  0.00    +0.000 OA
ENDROOT
BRANCH   1  15
ATOM     11  C   UNL     1       2.285   4.181  18.565  0.00  0.00    +0.000 A 
ATOM     12  C   UNL     1       2.003   3.703  19.851  0.00  0.00    +0.000 A 
ATOM     13  C   UNL     1       1.466   4.560  20.805  0.00  0.00    +0.000 A 
ATOM     14  C   UNL     1       1.316   5.907  20.512  0.00  0.00    +0.000 A 
ATOM     15  C   UNL     1       1.848   6.421  19.313  0.00  0.00    +0.000 A 
ATOM     16  C   UNL     1       2.177   5.542  18.282  0.00  0.00    +0.000 A 
BRANCH  11  17
ATOM     17  C   UNL     1       2.812   3.281  17.506  0.00  0.00    +0.000 C 
ATOM     18  O   UNL     1       2.237   2.230  17.257  0.00  0.00    +0.000 OA
BRANCH  17  19
ATOM     19  C   UNL     1       4.090   3.713  16.784  0.00  0.00    +0.000 C 
BRANCH  19  21
ATOM     20  C   UNL     1       6.113   4.868  17.160  0.00  0.00    +0.000 C 
ATOM     21  O   UNL     1       5.199   3.892  17.647  0.00  0.00    +0.000 OA
ENDBRANCH  19  21
ENDBRANCH  17  19
ENDBRANCH  11  17
ENDBRANCH   1  15
BRANCH   8  22
ATOM     22  C   UNL     1      -0.413   9.436  22.271  0.00  0.00    +0.000 C 
ATOM     23  F   UNL     1       0.714   9.523  23.031  0.00  0.00    +0.000 F 
ATOM     24  F   UNL     1      -1.289  10.330  22.812  0.00  0.00    +0.000 F 
ATOM     25  F   UNL     1      -0.933   8.202  22.525  0.00  0.00    +0.000 F 
ENDBRANCH   8  22
BRANCH   6  26
ATOM     26  C   UNL     1      -2.201  11.092  17.823  0.00  0.00    +0.000 C 
BRANCH  26  27
ATOM     27  C   UNL     1      -2.191  10.743  16.361  0.00  0.00    +0.000 C 
ATOM     28  C   UNL     1      -3.482  10.976  15.607  0.00  0.00    +0.000 C 
ATOM     29  C   UNL     1      -2.978   9.578  15.805  0.00  0.00    +0.000 C 
ENDBRANCH  26  27
ENDBRANCH   6  26
TORSDOF 7
ENDMDL
MODEL 8
REMARK VINA RESULT:      -7.3      0.853      1.218
REMARK  Name = 
REMARK  8 active torsions:
REMARK  status: ('A' for Active; 'I' for Inactive)
REMARK    1  A    between atoms: C_1  and  O_2
REMARK    2  A    between atoms: O_2  and  C_3
REMARK    3  A    between atoms: C_3  and  C_4
REMARK    4  A    between atoms: C_4  and  C_6
REMARK    5  A    between atoms: C_10  and  N_11
REMARK    6  A    between atoms: C_16  and  C_17
REMARK    7  A    between atoms: C_17  and  C_18
REMARK    8  A    between atoms: C_22  and  C_23
REMARK                            x       y       z     vdW  Elec       q    Type
REMARK                         _______ _______ _______ _____ _____    ______ ____
ROOT
ATOM      1  N   UNL     1       3.417   5.068  19.333  0.00  0.00    +0.000 N 
ATOM      2  C   UNL     1       4.830   5.533  19.339  0.00  0.00    +0.000 C 
ATOM      3  C   UNL     1       5.267   5.241  17.934  0.00  0.00    +0.000 A 
ATOM      4  C   UNL     1       4.454   4.216  17.450  0.00  0.00    +0.000 A 
ATOM      5  C   UNL     1       4.468   3.797  16.132  0.00  0.00    +0.000 A 
ATOM      6  C   UNL     1       5.379   4.400  15.261  0.00  0.00    +0.000 A 
ATOM      7  C   UNL     1       6.208   5.444  15.739  0.00  0.00    +0.000 A 
ATOM      8  C   UNL     1       6.159   5.891  17.085  0.00  0.00    +0.000 A 
ATOM      9  C   UNL     1       3.380   3.974  18.437  0.00  0.00    +0.000 C 
ATOM     10  O   UNL     1       2.527   3.111  18.322  0.00  0.00    +0.000 OA
ENDROOT
BRANCH   1  15
ATOM     11  C   UNL     1       1.785   8.246  19.942  0.00  0.00    +0.000 A 
ATOM     12  C   UNL     1       2.171   8.910  18.771  0.00  0.00    +0.000 A 
ATOM     13  C   UNL     1       2.556   8.177  17.654  0.00  0.00    +0.000 A 
ATOM     14  C   UNL     1       2.662   6.797  17.741  0.00  0.00    +0.000 A 
ATOM     15  C   UNL     1       2.528   6.167  18.994  0.00  0.00    +0.000 A 
ATOM     16  C   UNL     1       1.933   6.864  20.046  0.00  0.00    +0.000 A 
BRANCH  11  17
ATOM     17  C   UNL     1       1.320   8.997  21.137  0.00  0.00    +0.000 C 
ATOM     18  O   UNL     1       1.430   8.501  22.250  0.00  0.00    +0.000 OA
BRANCH  17  19
ATOM     19  C   UNL     1       0.692  10.373  20.906  0.00  0.00    +0.000 C 
BRANCH  19  21
ATOM     20  C   UNL     1      -1.119  11.592  20.008  0.00  0.00    +0.000 C 
ATOM     21  O   UNL     1      -0.637  10.317  20.418  0.00  0.00    +0.000 OA
ENDBRANCH  19  21
ENDBRANCH  17  19
ENDBRANCH  11  17
ENDBRANCH   1  15
BRANCH   8  22
ATOM     22  C   UNL     1       6.988   7.078  17.499  0.00  0.00    +0.000 C 
ATOM     23  F   UNL     1       7.680   6.899  18.659  0.00  0.00    +0.000 F 
ATOM     24  F   UNL     1       7.921   7.413  16.564  0.00  0.00    +0.000 F 
ATOM     25  F   UNL     1       6.231   8.195  17.691  0.00  0.00    +0.000 F 
ENDBRANCH   8  22
BRANCH   6  26
ATOM     26  C   UNL     1       5.478   3.915  13.833  0.00  0.00    +0.000 C 
BRANCH  26  27
ATOM     27  C   UNL     1       6.884   3.861  13.302  0.00  0.00    +0.000 C 
ATOM     28  C   UNL     1       7.223   4.841  12.200  0.00  0.00    +0.000 C 
ATOM     29  C   UNL     1       7.201   3.371  11.907  0.00  0.00    +0.000 C 
ENDBRANCH  26  27
ENDBRANCH   6  26
TORSDOF 7
ENDMDL
MODEL 9
REMARK VINA RESULT:      -7.1      4.325      8.092
REMARK  Name = 
REMARK  8 active torsions:
REMARK  status: ('A' for Active; 'I' for Inactive)
REMARK    1  A    between atoms: C_1  and  O_2
REMARK    2  A    between atoms: O_2  and  C_3
REMARK    3  A    between atoms: C_3  and  C_4
REMARK    4  A    between atoms: C_4  and  C_6
REMARK    5  A    between atoms: C_10  and  N_11
REMARK    6  A    between atoms: C_16  and  C_17
REMARK    7  A    between atoms: C_17  and  C_18
REMARK    8  A    between atoms: C_22  and  C_23
REMARK                            x       y       z     vdW  Elec       q    Type
REMARK                         _______ _______ _______ _____ _____    ______ ____
ROOT
ATOM      1  N   UNL     1       2.558   7.472  19.372  0.00  0.00    +0.000 N 
ATOM      2  C   UNL     1       2.193   8.228  20.601  0.00  0.00    +0.000 C 
ATOM      3  C   UNL     1       1.087   9.115  20.112  0.00  0.00    +0.000 A 
ATOM      4  C   UNL     1       1.261   9.280  18.738  0.00  0.00    +0.000 A 
ATOM      5  C   UNL     1       0.335   9.909  17.927  0.00  0.00    +0.000 A 
ATOM      6  C   UNL     1      -0.805  10.450  18.529  0.00  0.00    +0.000 A 
ATOM      7  C   UNL     1      -0.995  10.287  19.923  0.00  0.00    +0.000 A 
ATOM      8  C   UNL     1      -0.056   9.606  20.739  0.00  0.00    +0.000 A 
ATOM      9  C   UNL     1       2.337   8.365  18.297  0.00  0.00    +0.000 C 
ATOM     10  O   UNL     1       2.752   8.299  17.154  0.00  0.00    +0.000 OA
ENDROOT
BRANCH   1  15
ATOM     11  C   UNL     1       2.181   3.915  18.793  0.00  0.00    +0.000 A 
ATOM     12  C   UNL     1       1.615   3.559  20.023  0.00  0.00    +0.000 A 
ATOM     13  C   UNL     1       0.979   4.522  20.798  0.00  0.00    +0.000 A 
ATOM     14  C   UNL     1       1.006   5.850  20.400  0.00  0.00    +0.000 A 
ATOM     15  C   UNL     1       1.803   6.232  19.303  0.00  0.00    +0.000 A 
ATOM     16  C   UNL     1       2.249   5.255  18.413  0.00  0.00    +0.000 A 
BRANCH  11  17
ATOM     17  C   UNL     1       2.824   2.901  17.917  0.00  0.00    +0.000 C 
ATOM     18  O   UNL     1       2.131   2.148  17.245  0.00  0.00    +0.000 OA
BRANCH  17  19
ATOM     19  C   UNL     1       4.352   2.832  17.919  0.00  0.00    +0.000 C 
BRANCH  19  21
ATOM     20  C   UNL     1       4.744   1.927  20.064  0.00  0.00    +0.000 C 
ATOM     21  O   UNL     1       4.929   3.041  19.197  0.00  0.00    +0.000 OA
ENDBRANCH  19  21
ENDBRANCH  17  19
ENDBRANCH  11  17
ENDBRANCH   1  15
BRANCH   8  22
ATOM     22  C   UNL     1      -0.372   9.373  22.192  0.00  0.00    +0.000 C 
ATOM     23  F   UNL     1       0.713   9.415  23.016  0.00  0.00    +0.000 F 
ATOM     24  F   UNL     1      -1.244  10.296  22.689  0.00  0.00    +0.000 F 
ATOM     25  F   UNL     1      -0.950   8.158  22.407  0.00  0.00    +0.000 F 
ENDBRANCH   8  22
BRANCH   6  26
ATOM     26  C   UNL     1      -1.801  11.214  17.687  0.00  0.00    +0.000 C 
BRANCH  26  27
ATOM     27  C   UNL     1      -2.699  10.338  16.859  0.00  0.00    +0.000 C 
ATOM     28  C   UNL     1      -2.865  10.731  15.407  0.00  0.00    +0.000 C 
ATOM     29  C   UNL     1      -4.036  10.818  16.339  0.00  0.00    +0.000 C 
ENDBRANCH  26  27
ENDBRANCH   6  26
TORSDOF 7
ENDMDL
