MODEL 1
REMARK VINA RESULT:      -8.4      0.000      0.000
REMARK  Name = 
REMARK  4 active torsions:
REMARK  status: ('A' for Active; 'I' for Inactive)
REMARK    1  A    between atoms: C_4  and  C_5
REMARK    2  A    between atoms: N_7  and  C_8
REMARK    3  A    between atoms: C_13  and  C_14
REMARK    4  A    between atoms: C_15  and  C_16
REMARK                            x       y       z     vdW  Elec       q    Type
REMARK                         _______ _______ _______ _____ _____    ______ ____
ROOT
ATOM      1  C   UNL     1       7.088   5.712  16.381  0.00  0.00    +0.000 C 
ATOM      2  O   UNL     1       7.825   4.772  16.672  0.00  0.00    +0.000 OA
ATOM      3  N   UNL     1       6.526   5.900  15.127  0.00  0.00    +0.000 N 
ATOM      4  H   UNL     1       6.149   6.814  14.912  0.00  0.00    +0.000 HD
ENDROOT
BRANCH   1   8
ATOM      5  O   UNL     1       8.638   5.022  19.957  0.00  0.00    +0.000 OA
ATOM      6  C   UNL     1       7.694   5.580  19.403  0.00  0.00    +0.000 C 
ATOM      7  C   UNL     1       7.868   6.789  18.505  0.00  0.00    +0.000 C 
ATOM      8  C   UNL     1       6.803   6.820  17.400  0.00  0.00    +0.000 C 
ATOM      9  C   UNL     1       5.434   6.688  18.030  0.00  0.00    +0.000 A 
ATOM     10  C   UNL     1       4.312   7.345  17.510  0.00  0.00    +0.000 A 
ATOM     11  C   UNL     1       3.053   7.125  18.072  0.00  0.00    +0.000 A 
ATOM     12  C   UNL     1       2.907   6.249  19.147  0.00  0.00    +0.000 A 
ATOM     13  C   UNL     1       4.020   5.598  19.677  0.00  0.00    +0.000 A 
ATOM     14  C   UNL     1       5.279   5.835  19.129  0.00  0.00    +0.000 A 
ATOM     15  N   UNL     1       6.403   5.222  19.689  0.00  0.00    +0.000 N 
ATOM     16  H   UNL     1       6.298   4.503  20.393  0.00  0.00    +0.000 HD
ENDBRANCH   1   8
BRANCH   3  17
ATOM     17  C   UNL     1       6.585   4.974  14.050  0.00  0.00    +0.000 A 
ATOM     18  C   UNL     1       7.446   5.174  12.962  0.00  0.00    +0.000 A 
ATOM     19  C   UNL     1       7.465   4.299  11.874  0.00  0.00    +0.000 A 
ATOM     20  C   UNL     1       6.633   3.189  11.865  0.00  0.00    +0.000 A 
ATOM     21  C   UNL     1       5.803   2.942  12.958  0.00  0.00    +0.000 A 
ATOM     22  C   UNL     1       5.777   3.819  14.055  0.00  0.00    +0.000 A 
BRANCH  22  23
ATOM     23  C   UNL     1       4.871   3.501  15.124  0.00  0.00    +0.000 C 
ATOM     24  C   UNL     1       4.149   3.287  16.060  0.00  0.00    +0.000 C 
BRANCH  24  25
ATOM     25  C   UNL     1       3.324   3.048  17.205  0.00  0.00    +0.000 A 
ATOM     26  C   UNL     1       3.800   2.279  18.271  0.00  0.00    +0.000 A 
ATOM     27  C   UNL     1       2.980   2.024  19.372  0.00  0.00    +0.000 A 
ATOM     28  C   UNL     1       1.682   2.536  19.410  0.00  0.00    +0.000 A 
ATOM     29  C   UNL     1       1.208   3.308  18.349  0.00  0.00    +0.000 A 
ATOM     30  C   UNL     1       2.027   3.564  17.248  0.00  0.00    +0.000 A 
ENDBRANCH  24  25
ENDBRANCH  22  23
ENDBRANCH   3  17
TORSDOF 4
ENDMDL
MODEL 2
REMARK VINA RESULT:      -7.0      9.661     12.978
REMARK  Name = 
REMARK  4 active torsions:
REMARK  status: ('A' for Active; 'I' for Inactive)
REMARK    1  A    between atoms: C_4  and  C_5
REMARK    2  A    between atoms: N_7  and  C_8
REMARK    3  A    between atoms: C_13  and  C_14
REMARK    4  A    between atoms: C_15  and  C_16
REMARK                            x       y       z     vdW  Elec       q    Type
REMARK                         _______ _______ _______ _____ _____    ______ ____
ROOT
ATOM      1  C   UNL     1      -2.914  12.569  23.068  0.00  0.00    +0.000 C 
ATOM      2  O   UNL     1      -3.553  11.790  23.770  0.00  0.00    +0.000 OA
ATOM      3  N   UNL     1      -3.490  13.480  22.194  0.00  0.00    +0.000 N 
ATOM      4  H   UNL     1      -2.896  13.894  21.487  0.00  0.00    +0.000 HD
ENDROOT
BRANCH   1   8
ATOM      5  O   UNL     1      -1.297  14.465  19.993  0.00  0.00    +0.000 OA
ATOM      6  C   UNL     1      -1.107  13.522  20.756  0.00  0.00    +0.000 C 
ATOM      7  C   UNL     1      -0.842  13.706  22.237  0.00  0.00    +0.000 C 
ATOM      8  C   UNL     1      -1.382  12.523  23.051  0.00  0.00    +0.000 C 
ATOM      9  C   UNL     1      -0.848  11.234  22.466  0.00  0.00    +0.000 A 
ATOM     10  C   UNL     1      -0.535  10.129  23.266  0.00  0.00    +0.000 A 
ATOM     11  C   UNL     1      -0.128   8.933  22.674  0.00  0.00    +0.000 A 
ATOM     12  C   UNL     1      -0.037   8.831  21.286  0.00  0.00    +0.000 A 
ATOM     13  C   UNL     1      -0.338   9.930  20.481  0.00  0.00    +0.000 A 
ATOM     14  C   UNL     1      -0.723  11.130  21.075  0.00  0.00    +0.000 A 
ATOM     15  N   UNL     1      -0.978  12.246  20.275  0.00  0.00    +0.000 N 
ATOM     16  H   UNL     1      -1.024  12.155  19.267  0.00  0.00    +0.000 HD
ENDBRANCH   1   8
BRANCH   3  17
ATOM     17  C   UNL     1      -4.880  13.758  22.091  0.00  0.00    +0.000 A 
ATOM     18  C   UNL     1      -5.548  14.512  23.068  0.00  0.00    +0.000 A 
ATOM     19  C   UNL     1      -6.923  14.737  23.002  0.00  0.00    +0.000 A 
ATOM     20  C   UNL     1      -7.658  14.228  21.941  0.00  0.00    +0.000 A 
ATOM     21  C   UNL     1      -7.009  13.517  20.932  0.00  0.00    +0.000 A 
ATOM     22  C   UNL     1      -5.625  13.285  20.993  0.00  0.00    +0.000 A 
BRANCH  22  23
ATOM     23  C   UNL     1      -5.044  12.520  19.924  0.00  0.00    +0.000 C 
ATOM     24  C   UNL     1      -4.526  11.943  19.006  0.00  0.00    +0.000 C 
BRANCH  24  25
ATOM     25  C   UNL     1      -3.908  11.298  17.887  0.00  0.00    +0.000 A 
ATOM     26  C   UNL     1      -2.793  10.474  18.073  0.00  0.00    +0.000 A 
ATOM     27  C   UNL     1      -2.177   9.872  16.974  0.00  0.00    +0.000 A 
ATOM     28  C   UNL     1      -2.672  10.092  15.688  0.00  0.00    +0.000 A 
ATOM     29  C   UNL     1      -3.788  10.908  15.502  0.00  0.00    +0.000 A 
ATOM     30  C   UNL     1      -4.405  11.511  16.600  0.00  0.00    +0.000 A 
ENDBRANCH  24  25
ENDBRANCH  22  23
ENDBRANCH   3  17
TORSDOF 4
ENDMDL
MODEL 3
REMARK VINA RESULT:      -6.8      9.154     11.966
REMARK  Name = 
REMARK  4 active torsions:
REMARK  status: ('A' for Active; 'I' for Inactive)
REMARK    1  A    between atoms: C_4  and  C_5
REMARK    2  A    between atoms: N_7  and  C_8
REMARK    3  A    between atoms: C_13  and  C_14
REMARK    4  A    between atoms: C_15  and  C_16
REMARK                            x       y       z     vdW  Elec       q    Type
REMARK                         _______ _______ _______ _____ _____    ______ ____
ROOT
ATOM      1  C   UNL     1       6.116  14.903  21.678  0.00  0.00    +0.000 C 
ATOM      2  O   UNL     1       5.091  14.277  21.420  0.00  0.00    +0.000 OA
ATOM      3  N   UNL     1       6.898  14.685  22.803  0.00  0.00    +0.000 N 
ATOM      4  H   UNL     1       7.566  15.402  23.058  0.00  0.00    +0.000 HD
ENDROOT
BRANCH   1   8
ATOM      5  O   UNL     1       4.086  15.173  18.291  0.00  0.00    +0.000 OA
ATOM      6  C   UNL     1       5.191  15.401  18.778  0.00  0.00    +0.000 C 
ATOM      7  C   UNL     1       5.417  16.457  19.841  0.00  0.00    +0.000 C 
ATOM      8  C   UNL     1       6.563  16.064  20.783  0.00  0.00    +0.000 C 
ATOM      9  C   UNL     1       7.784  15.721  19.959  0.00  0.00    +0.000 A 
ATOM     10  C   UNL     1       9.081  16.007  20.400  0.00  0.00    +0.000 A 
ATOM     11  C   UNL     1      10.182  15.595  19.647  0.00  0.00    +0.000 A 
ATOM     12  C   UNL     1       9.994  14.892  18.456  0.00  0.00    +0.000 A 
ATOM     13  C   UNL     1       8.705  14.610  18.005  0.00  0.00    +0.000 A 
ATOM     14  C   UNL     1       7.608  15.042  18.747  0.00  0.00    +0.000 A 
ATOM     15  N   UNL     1       6.316  14.804  18.272  0.00  0.00    +0.000 N 
ATOM     16  H   UNL     1       6.166  14.202  17.473  0.00  0.00    +0.000 HD
ENDBRANCH   1   8
BRANCH   3  17
ATOM     17  C   UNL     1       6.728  13.623  23.732  0.00  0.00    +0.000 A 
ATOM     18  C   UNL     1       5.834  13.730  24.807  0.00  0.00    +0.000 A 
ATOM     19  C   UNL     1       5.707  12.714  25.756  0.00  0.00    +0.000 A 
ATOM     20  C   UNL     1       6.461  11.556  25.633  0.00  0.00    +0.000 A 
ATOM     21  C   UNL     1       7.320  11.405  24.546  0.00  0.00    +0.000 A 
ATOM     22  C   UNL     1       7.455  12.424  23.589  0.00  0.00    +0.000 A 
BRANCH  22  23
ATOM     23  C   UNL     1       8.384  12.195  22.518  0.00  0.00    +0.000 C 
ATOM     24  C   UNL     1       9.111  12.034  21.574  0.00  0.00    +0.000 C 
BRANCH  24  25
ATOM     25  C   UNL     1       9.937  11.840  20.421  0.00  0.00    +0.000 A 
ATOM     26  C   UNL     1      11.299  12.155  20.466  0.00  0.00    +0.000 A 
ATOM     27  C   UNL     1      12.093  11.992  19.329  0.00  0.00    +0.000 A 
ATOM     28  C   UNL     1      11.529  11.513  18.146  0.00  0.00    +0.000 A 
ATOM     29  C   UNL     1      10.173  11.192  18.102  0.00  0.00    +0.000 A 
ATOM     30  C   UNL     1       9.377  11.355  19.238  0.00  0.00    +0.000 A 
ENDBRANCH  24  25
ENDBRANCH  22  23
ENDBRANCH   3  17
TORSDOF 4
ENDMDL
MODEL 4
REMARK VINA RESULT:      -6.8      9.607     12.590
REMARK  Name = 
REMARK  4 active torsions:
REMARK  status: ('A' for Active; 'I' for Inactive)
REMARK    1  A    between atoms: C_4  and  C_5
REMARK    2  A    between atoms: N_7  and  C_8
REMARK    3  A    between atoms: C_13  and  C_14
REMARK    4  A    between atoms: C_15  and  C_16
REMARK                            x       y       z     vdW  Elec       q    Type
REMARK                         _______ _______ _______ _____ _____    ______ ____
ROOT
ATOM      1  C   UNL     1       7.488  15.654  22.212  0.00  0.00    +0.000 C 
ATOM      2  O   UNL     1       6.418  15.393  21.667  0.00  0.00    +0.000 OA
ATOM      3  N   UNL     1       7.947  15.030  23.363  0.00  0.00    +0.000 N 
ATOM      4  H   UNL     1       8.701  15.476  23.871  0.00  0.00    +0.000 HD
ENDROOT
BRANCH   1   8
ATOM      5  O   UNL     1       5.791  17.792  19.346  0.00  0.00    +0.000 OA
ATOM      6  C   UNL     1       6.887  17.406  19.745  0.00  0.00    +0.000 C 
ATOM      7  C   UNL     1       7.496  17.875  21.052  0.00  0.00    +0.000 C 
ATOM      8  C   UNL     1       8.375  16.785  21.680  0.00  0.00    +0.000 C 
ATOM      9  C   UNL     1       9.373  16.302  20.651  0.00  0.00    +0.000 A 
ATOM     10  C   UNL     1      10.670  15.909  21.004  0.00  0.00    +0.000 A 
ATOM     11  C   UNL     1      11.528  15.388  20.034  0.00  0.00    +0.000 A 
ATOM     12  C   UNL     1      11.098  15.251  18.714  0.00  0.00    +0.000 A 
ATOM     13  C   UNL     1       9.811  15.650  18.353  0.00  0.00    +0.000 A 
ATOM     14  C   UNL     1       8.963  16.190  19.317  0.00  0.00    +0.000 A 
ATOM     15  N   UNL     1       7.691  16.634  18.948  0.00  0.00    +0.000 N 
ATOM     16  H   UNL     1       7.328  16.440  18.024  0.00  0.00    +0.000 HD
ENDBRANCH   1   8
BRANCH   3  17
ATOM     17  C   UNL     1       7.341  13.909  23.991  0.00  0.00    +0.000 A 
ATOM     18  C   UNL     1       6.487  14.064  25.093  0.00  0.00    +0.000 A 
ATOM     19  C   UNL     1       5.935  12.963  25.750  0.00  0.00    +0.000 A 
ATOM     20  C   UNL     1       6.212  11.679  25.301  0.00  0.00    +0.000 A 
ATOM     21  C   UNL     1       7.019  11.502  24.178  0.00  0.00    +0.000 A 
ATOM     22  C   UNL     1       7.578  12.606  23.513  0.00  0.00    +0.000 A 
BRANCH  22  23
ATOM     23  C   UNL     1       8.419  12.328  22.381  0.00  0.00    +0.000 C 
ATOM     24  C   UNL     1       9.130  12.170  21.425  0.00  0.00    +0.000 C 
BRANCH  24  25
ATOM     25  C   UNL     1       9.963  12.026  20.270  0.00  0.00    +0.000 A 
ATOM     26  C   UNL     1       9.397  11.978  18.992  0.00  0.00    +0.000 A 
ATOM     27  C   UNL     1      10.212  11.807  17.871  0.00  0.00    +0.000 A 
ATOM     28  C   UNL     1      11.594  11.683  18.024  0.00  0.00    +0.000 A 
ATOM     29  C   UNL     1      12.160  11.737  19.298  0.00  0.00    +0.000 A 
ATOM     30  C   UNL     1      11.346  11.908  20.419  0.00  0.00    +0.000 A 
ENDBRANCH  24  25
ENDBRANCH  22  23
ENDBRANCH   3  17
TORSDOF 4
ENDMDL
MODEL 5
REMARK VINA RESULT:      -6.7      2.519      4.983
REMARK  Name = 
REMARK  4 active torsions:
REMARK  status: ('A' for Active; 'I' for Inactive)
REMARK    1  A    between atoms: C_4  and  C_5
REMARK    2  A    between atoms: N_7  and  C_8
REMARK    3  A    between atoms: C_13  and  C_14
REMARK    4  A    between atoms: C_15  and  C_16
REMARK                            x       y       z     vdW  Elec       q    Type
REMARK                         _______ _______ _______ _____ _____    ______ ____
ROOT
ATOM      1  C   UNL     1       5.145   3.987  19.223  0.00  0.00    +0.000 C 
ATOM      2  O   UNL     1       6.173   4.613  19.470  0.00  0.00    +0.000 OA
ATOM      3  N   UNL     1       4.551   3.928  17.970  0.00  0.00    +0.000 N 
ATOM      4  H   UNL     1       3.592   3.607  17.918  0.00  0.00    +0.000 HD
ENDROOT
BRANCH   1   8
ATOM      5  O   UNL     1       4.850   0.073  18.710  0.00  0.00    +0.000 OA
ATOM      6  C   UNL     1       4.262   1.031  19.206  0.00  0.00    +0.000 C 
ATOM      7  C   UNL     1       4.803   1.799  20.396  0.00  0.00    +0.000 C 
ATOM      8  C   UNL     1       4.381   3.274  20.345  0.00  0.00    +0.000 C 
ATOM      9  C   UNL     1       2.882   3.354  20.165  0.00  0.00    +0.000 A 
ATOM     10  C   UNL     1       2.117   4.369  20.752  0.00  0.00    +0.000 A 
ATOM     11  C   UNL     1       0.749   4.453  20.488  0.00  0.00    +0.000 A 
ATOM     12  C   UNL     1       0.140   3.532  19.636  0.00  0.00    +0.000 A 
ATOM     13  C   UNL     1       0.892   2.511  19.055  0.00  0.00    +0.000 A 
ATOM     14  C   UNL     1       2.253   2.416  19.337  0.00  0.00    +0.000 A 
ATOM     15  N   UNL     1       2.999   1.367  18.795  0.00  0.00    +0.000 N 
ATOM     16  H   UNL     1       2.596   0.760  18.092  0.00  0.00    +0.000 HD
ENDBRANCH   1   8
BRANCH   3  17
ATOM     17  C   UNL     1       5.110   4.442  16.768  0.00  0.00    +0.000 A 
ATOM     18  C   UNL     1       5.931   3.653  15.950  0.00  0.00    +0.000 A 
ATOM     19  C   UNL     1       6.530   4.170  14.800  0.00  0.00    +0.000 A 
ATOM     20  C   UNL     1       6.300   5.488  14.434  0.00  0.00    +0.000 A 
ATOM     21  C   UNL     1       5.448   6.278  15.204  0.00  0.00    +0.000 A 
ATOM     22  C   UNL     1       4.843   5.765  16.364  0.00  0.00    +0.000 A 
BRANCH  22  23
ATOM     23  C   UNL     1       4.002   6.658  17.112  0.00  0.00    +0.000 C 
ATOM     24  C   UNL     1       3.249   7.348  17.745  0.00  0.00    +0.000 C 
BRANCH  24  25
ATOM     25  C   UNL     1       2.316   8.143  18.484  0.00  0.00    +0.000 A 
ATOM     26  C   UNL     1       1.689   9.239  17.884  0.00  0.00    +0.000 A 
ATOM     27  C   UNL     1       0.802  10.028  18.619  0.00  0.00    +0.000 A 
ATOM     28  C   UNL     1       0.539   9.723  19.955  0.00  0.00    +0.000 A 
ATOM     29  C   UNL     1       1.159   8.627  20.554  0.00  0.00    +0.000 A 
ATOM     30  C   UNL     1       2.045   7.837  19.819  0.00  0.00    +0.000 A 
ENDBRANCH  24  25
ENDBRANCH  22  23
ENDBRANCH   3  17
TORSDOF 4
ENDMDL
MODEL 6
REMARK VINA RESULT:      -6.6      9.978     12.445
REMARK  Name = 
REMARK  4 active torsions:
REMARK  status: ('A' for Active; 'I' for Inactive)
REMARK    1  A    between atoms: C_4  and  C_5
REMARK    2  A    between atoms: N_7  and  C_8
REMARK    3  A    between atoms: C_13  and  C_14
REMARK    4  A    between atoms: C_15  and  C_16
REMARK                            x       y       z     vdW  Elec       q    Type
REMARK                         _______ _______ _______ _____ _____    ______ ____
ROOT
ATOM      1  C   UNL     1      -1.304  11.597  19.977  0.00  0.00    +0.000 C 
ATOM      2  O   UNL     1      -1.065  10.393  19.903  0.00  0.00    +0.000 OA
ATOM      3  N   UNL     1      -2.023  12.307  19.027  0.00  0.00    +0.000 N 
ATOM      4  H   UNL     1      -1.953  13.317  19.042  0.00  0.00    +0.000 HD
ENDROOT
BRANCH   1   8
ATOM      5  O   UNL     1      -0.140   9.443  23.087  0.00  0.00    +0.000 OA
ATOM      6  C   UNL     1      -0.588  10.547  22.788  0.00  0.00    +0.000 C 
ATOM      7  C   UNL     1       0.200  11.560  21.981  0.00  0.00    +0.000 C 
ATOM      8  C   UNL     1      -0.728  12.433  21.125  0.00  0.00    +0.000 C 
ATOM      9  C   UNL     1      -1.805  13.023  22.008  0.00  0.00    +0.000 A 
ATOM     10  C   UNL     1      -2.326  14.304  21.787  0.00  0.00    +0.000 A 
ATOM     11  C   UNL     1      -3.380  14.773  22.573  0.00  0.00    +0.000 A 
ATOM     12  C   UNL     1      -3.921  13.968  23.576  0.00  0.00    +0.000 A 
ATOM     13  C   UNL     1      -3.401  12.695  23.809  0.00  0.00    +0.000 A 
ATOM     14  C   UNL     1      -2.335  12.237  23.038  0.00  0.00    +0.000 A 
ATOM     15  N   UNL     1      -1.782  10.982  23.300  0.00  0.00    +0.000 N 
ATOM     16  H   UNL     1      -2.233  10.347  23.946  0.00  0.00    +0.000 HD
ENDBRANCH   1   8
BRANCH   3  17
ATOM     17  C   UNL     1      -2.715  11.740  17.923  0.00  0.00    +0.000 A 
ATOM     18  C   UNL     1      -2.027  11.267  16.795  0.00  0.00    +0.000 A 
ATOM     19  C   UNL     1      -2.705  10.763  15.684  0.00  0.00    +0.000 A 
ATOM     20  C   UNL     1      -4.091  10.703  15.688  0.00  0.00    +0.000 A 
ATOM     21  C   UNL     1      -4.795  11.121  16.817  0.00  0.00    +0.000 A 
ATOM     22  C   UNL     1      -4.120  11.631  17.938  0.00  0.00    +0.000 A 
BRANCH  22  23
ATOM     23  C   UNL     1      -4.927  12.063  19.045  0.00  0.00    +0.000 C 
ATOM     24  C   UNL     1      -5.609  12.493  19.937  0.00  0.00    +0.000 C 
BRANCH  24  25
ATOM     25  C   UNL     1      -6.407  13.048  20.987  0.00  0.00    +0.000 A 
ATOM     26  C   UNL     1      -6.660  14.423  21.031  0.00  0.00    +0.000 A 
ATOM     27  C   UNL     1      -7.414  14.963  22.075  0.00  0.00    +0.000 A 
ATOM     28  C   UNL     1      -7.916  14.132  23.077  0.00  0.00    +0.000 A 
ATOM     29  C   UNL     1      -7.670  12.760  23.031  0.00  0.00    +0.000 A 
ATOM     30  C   UNL     1      -6.916  12.218  21.987  0.00  0.00    +0.000 A 
ENDBRANCH  24  25
ENDBRANCH  22  23
ENDBRANCH   3  17
TORSDOF 4
ENDMDL
MODEL 7
REMARK VINA RESULT:      -6.6      8.310     11.023
REMARK  Name = 
REMARK  4 active torsions:
REMARK  status: ('A' for Active; 'I' for Inactive)
REMARK    1  A    between atoms: C_4  and  C_5
REMARK    2  A    between atoms: N_7  and  C_8
REMARK    3  A    between atoms: C_13  and  C_14
REMARK    4  A    between atoms: C_15  and  C_16
REMARK                            x       y       z     vdW  Elec       q    Type
REMARK                         _______ _______ _______ _____ _____    ______ ____
ROOT
ATOM      1  C   UNL     1      -0.507  12.190  18.590  0.00  0.00    +0.000 C 
ATOM      2  O   UNL     1      -0.629  13.235  17.955  0.00  0.00    +0.000 OA
ATOM      3  N   UNL     1      -1.395  11.126  18.516  0.00  0.00    +0.000 N 
ATOM      4  H   UNL     1      -1.353  10.427  19.247  0.00  0.00    +0.000 HD
ENDROOT
BRANCH   1   8
ATOM      5  O   UNL     1       2.279   9.622  17.445  0.00  0.00    +0.000 OA
ATOM      6  C   UNL     1       1.736  10.077  18.449  0.00  0.00    +0.000 C 
ATOM      7  C   UNL     1       1.890  11.522  18.881  0.00  0.00    +0.000 C 
ATOM      8  C   UNL     1       0.632  12.025  19.602  0.00  0.00    +0.000 C 
ATOM      9  C   UNL     1       0.282  11.063  20.715  0.00  0.00    +0.000 A 
ATOM     10  C   UNL     1      -0.275  11.498  21.924  0.00  0.00    +0.000 A 
ATOM     11  C   UNL     1      -0.662  10.566  22.888  0.00  0.00    +0.000 A 
ATOM     12  C   UNL     1      -0.503   9.201  22.650  0.00  0.00    +0.000 A 
ATOM     13  C   UNL     1       0.059   8.759  21.453  0.00  0.00    +0.000 A 
ATOM     14  C   UNL     1       0.466   9.691  20.500  0.00  0.00    +0.000 A 
ATOM     15  N   UNL     1       1.073   9.254  19.321  0.00  0.00    +0.000 N 
ATOM     16  H   UNL     1       1.093   8.269  19.089  0.00  0.00    +0.000 HD
ENDBRANCH   1   8
BRANCH   3  17
ATOM     17  C   UNL     1      -2.476  11.017  17.599  0.00  0.00    +0.000 A 
ATOM     18  C   UNL     1      -2.313  10.402  16.349  0.00  0.00    +0.000 A 
ATOM     19  C   UNL     1      -3.355  10.345  15.422  0.00  0.00    +0.000 A 
ATOM     20  C   UNL     1      -4.593  10.886  15.739  0.00  0.00    +0.000 A 
ATOM     21  C   UNL     1      -4.793  11.459  16.994  0.00  0.00    +0.000 A 
ATOM     22  C   UNL     1      -3.749  11.522  17.931  0.00  0.00    +0.000 A 
BRANCH  22  23
ATOM     23  C   UNL     1      -4.037  12.155  19.189  0.00  0.00    +0.000 C 
ATOM     24  C   UNL     1      -4.218  12.649  20.269  0.00  0.00    +0.000 C 
BRANCH  24  25
ATOM     25  C   UNL     1      -4.410  13.199  21.577  0.00  0.00    +0.000 A 
ATOM     26  C   UNL     1      -3.758  12.643  22.681  0.00  0.00    +0.000 A 
ATOM     27  C   UNL     1      -3.973  13.166  23.958  0.00  0.00    +0.000 A 
ATOM     28  C   UNL     1      -4.841  14.244  24.134  0.00  0.00    +0.000 A 
ATOM     29  C   UNL     1      -5.488  14.803  23.032  0.00  0.00    +0.000 A 
ATOM     30  C   UNL     1      -5.273  14.282  21.755  0.00  0.00    +0.000 A 
ENDBRANCH  24  25
ENDBRANCH  22  23
ENDBRANCH   3  17
TORSDOF 4
ENDMDL
MODEL 8
REMARK VINA RESULT:      -6.6      4.918      8.416
REMARK  Name = 
REMARK  4 active torsions:
REMARK  status: ('A' for Active; 'I' for Inactive)
REMARK    1  A    between atoms: C_4  and  C_5
REMARK    2  A    between atoms: N_7  and  C_8
REMARK    3  A    between atoms: C_13  and  C_14
REMARK    4  A    between atoms: C_15  and  C_16
REMARK                            x       y       z     vdW  Elec       q    Type
REMARK                         _______ _______ _______ _____ _____    ______ ____
ROOT
ATOM      1  C   UNL     1       2.075   6.730  19.454  0.00  0.00    +0.000 C 
ATOM      2  O   UNL     1       2.202   6.027  20.454  0.00  0.00    +0.000 OA
ATOM      3  N   UNL     1       1.479   7.983  19.455  0.00  0.00    +0.000 N 
ATOM      4  H   UNL     1       1.197   8.370  18.563  0.00  0.00    +0.000 HD
ENDROOT
BRANCH   1   8
ATOM      5  O   UNL     1       1.847   2.794  19.098  0.00  0.00    +0.000 OA
ATOM      6  C   UNL     1       2.479   3.767  18.694  0.00  0.00    +0.000 C 
ATOM      7  C   UNL     1       1.861   4.842  17.821  0.00  0.00    +0.000 C 
ATOM      8  C   UNL     1       2.508   6.209  18.079  0.00  0.00    +0.000 C 
ATOM      9  C   UNL     1       4.010   6.078  17.957  0.00  0.00    +0.000 A 
ATOM     10  C   UNL     1       4.805   7.107  17.442  0.00  0.00    +0.000 A 
ATOM     11  C   UNL     1       6.195   6.975  17.428  0.00  0.00    +0.000 A 
ATOM     12  C   UNL     1       6.796   5.822  17.933  0.00  0.00    +0.000 A 
ATOM     13  C   UNL     1       6.010   4.787  18.440  0.00  0.00    +0.000 A 
ATOM     14  C   UNL     1       4.623   4.911  18.432  0.00  0.00    +0.000 A 
ATOM     15  N   UNL     1       3.832   3.857  18.894  0.00  0.00    +0.000 N 
ATOM     16  H   UNL     1       4.254   3.066  19.363  0.00  0.00    +0.000 HD
ENDBRANCH   1   8
BRANCH   3  17
ATOM     17  C   UNL     1       1.072   8.702  20.611  0.00  0.00    +0.000 A 
ATOM     18  C   UNL     1       1.765   8.583  21.825  0.00  0.00    +0.000 A 
ATOM     19  C   UNL     1       1.335   9.241  22.979  0.00  0.00    +0.000 A 
ATOM     20  C   UNL     1       0.209  10.051  22.934  0.00  0.00    +0.000 A 
ATOM     21  C   UNL     1      -0.468  10.223  21.727  0.00  0.00    +0.000 A 
ATOM     22  C   UNL     1      -0.041   9.563  20.563  0.00  0.00    +0.000 A 
BRANCH  22  23
ATOM     23  C   UNL     1      -0.815   9.777  19.371  0.00  0.00    +0.000 C 
ATOM     24  C   UNL     1      -1.508  10.001  18.415  0.00  0.00    +0.000 C 
BRANCH  24  25
ATOM     25  C   UNL     1      -2.372  10.274  17.307  0.00  0.00    +0.000 A 
ATOM     26  C   UNL     1      -2.112   9.713  16.053  0.00  0.00    +0.000 A 
ATOM     27  C   UNL     1      -2.941  10.007  14.968  0.00  0.00    +0.000 A 
ATOM     28  C   UNL     1      -4.030  10.863  15.134  0.00  0.00    +0.000 A 
ATOM     29  C   UNL     1      -4.295  11.419  16.386  0.00  0.00    +0.000 A 
ATOM     30  C   UNL     1      -3.467  11.125  17.471  0.00  0.00    +0.000 A 
ENDBRANCH  24  25
ENDBRANCH  22  23
ENDBRANCH   3  17
TORSDOF 4
ENDMDL
MODEL 9
REMARK VINA RESULT:      -6.4      8.124     10.923
REMARK  Name = 
REMARK  4 active torsions:
REMARK  status: ('A' for Active; 'I' for Inactive)
REMARK    1  A    between atoms: C_4  and  C_5
REMARK    2  A    between atoms: N_7  and  C_8
REMARK    3  A    between atoms: C_13  and  C_14
REMARK    4  A    between atoms: C_15  and  C_16
REMARK                            x       y       z     vdW  Elec       q    Type
REMARK                         _______ _______ _______ _____ _____    ______ ____
ROOT
ATOM      1  C   UNL     1      -2.580  11.961  19.182  0.00  0.00    +0.000 C 
ATOM      2  O   UNL     1      -2.800  12.723  20.120  0.00  0.00    +0.000 OA
ATOM      3  N   UNL     1      -1.454  12.027  18.374  0.00  0.00    +0.000 N 
ATOM      4  H   UNL     1      -1.479  11.534  17.490  0.00  0.00    +0.000 HD
ENDROOT
BRANCH   1   8
ATOM      5  O   UNL     1      -2.487  11.026  15.337  0.00  0.00    +0.000 OA
ATOM      6  C   UNL     1      -3.251  11.105  16.295  0.00  0.00    +0.000 C 
ATOM      7  C   UNL     1      -3.151  10.192  17.502  0.00  0.00    +0.000 C 
ATOM      8  C   UNL     1      -3.615  10.905  18.779  0.00  0.00    +0.000 C 
ATOM      9  C   UNL     1      -4.986  11.498  18.544  0.00  0.00    +0.000 A 
ATOM     10  C   UNL     1      -5.949  11.565  19.558  0.00  0.00    +0.000 A 
ATOM     11  C   UNL     1      -7.170  12.199  19.320  0.00  0.00    +0.000 A 
ATOM     12  C   UNL     1      -7.432  12.773  18.076  0.00  0.00    +0.000 A 
ATOM     13  C   UNL     1      -6.482  12.702  17.058  0.00  0.00    +0.000 A 
ATOM     14  C   UNL     1      -5.274  12.050  17.290  0.00  0.00    +0.000 A 
ATOM     15  N   UNL     1      -4.340  11.936  16.257  0.00  0.00    +0.000 N 
ATOM     16  H   UNL     1      -4.471  12.440  15.390  0.00  0.00    +0.000 HD
ENDBRANCH   1   8
BRANCH   3  17
ATOM     17  C   UNL     1      -0.329  12.867  18.596  0.00  0.00    +0.000 A 
ATOM     18  C   UNL     1      -0.447  14.264  18.580  0.00  0.00    +0.000 A 
ATOM     19  C   UNL     1       0.665  15.093  18.739  0.00  0.00    +0.000 A 
ATOM     20  C   UNL     1       1.920  14.536  18.938  0.00  0.00    +0.000 A 
ATOM     21  C   UNL     1       2.056  13.150  19.006  0.00  0.00    +0.000 A 
ATOM     22  C   UNL     1       0.941  12.310  18.846  0.00  0.00    +0.000 A 
BRANCH  22  23
ATOM     23  C   UNL     1       1.178  10.894  18.903  0.00  0.00    +0.000 C 
ATOM     24  C   UNL     1       1.440   9.724  18.991  0.00  0.00    +0.000 C 
BRANCH  24  25
ATOM     25  C   UNL     1       1.799   8.343  19.097  0.00  0.00    +0.000 A 
ATOM     26  C   UNL     1       1.640   7.663  20.309  0.00  0.00    +0.000 A 
ATOM     27  C   UNL     1       2.020   6.323  20.414  0.00  0.00    +0.000 A 
ATOM     28  C   UNL     1       2.559   5.660  19.311  0.00  0.00    +0.000 A 
ATOM     29  C   UNL     1       2.711   6.336  18.100  0.00  0.00    +0.000 A 
ATOM     30  C   UNL     1       2.331   7.675  17.993  0.00  0.00    +0.000 A 
ENDBRANCH  24  25
ENDBRANCH  22  23
ENDBRANCH   3  17
TORSDOF 4
ENDMDL
