MODEL 1
REMARK VINA RESULT:      -9.1      0.000      0.000
REMARK  Name = 
REMARK  7 active torsions:
REMARK  status: ('A' for Active; 'I' for Inactive)
REMARK    1  A    between atoms: C_1  and  C_2
REMARK    2  A    between atoms: N_4  and  C_5
REMARK    3  A    between atoms: C_13  and  C_14
REMARK    4  A    between atoms: C_14  and  N_15
REMARK    5  A    between atoms: N_15  and  C_16
REMARK    6  A    between atoms: C_22  and  C_23
REMARK    7  A    between atoms: C_23  and  O_25
REMARK                            x       y       z     vdW  Elec       q    Type
REMARK                         _______ _______ _______ _____ _____    ______ ____
ROOT
ATOM      1  N   UNL     1       4.328   3.189  17.589  0.00  0.00    +0.000 N 
ATOM      2  H   UNL     1       4.212   2.233  17.255  0.00  0.00    +0.000 HD
ENDROOT
BRANCH   1   3
ATOM      3  C   UNL     1       5.272   3.867  16.816  0.00  0.00    +0.000 A 
ATOM      4  C   UNL     1       6.258   4.731  17.305  0.00  0.00    +0.000 A 
ATOM      5  C   UNL     1       7.183   5.378  16.454  0.00  0.00    +0.000 A 
ATOM      6  C   UNL     1       7.110   5.077  15.089  0.00  0.00    +0.000 A 
ATOM      7  N   UNL     1       7.880   5.428  14.011  0.00  0.00    +0.000 N 
ATOM      8  N   UNL     1       7.516   4.833  12.849  0.00  0.00    +0.000 NA
ATOM      9  C   UNL     1       6.419   4.123  13.192  0.00  0.00    +0.000 A 
ATOM     10  C   UNL     1       6.113   4.269  14.567  0.00  0.00    +0.000 A 
ATOM     11  C   UNL     1       5.137   3.745  15.425  0.00  0.00    +0.000 A 
ATOM     12  H   UNL     1       8.698   6.028  14.008  0.00  0.00    +0.000 HD
BRANCH   9  13
ATOM     13  C   UNL     1       5.749   3.243  12.230  0.00  0.00    +0.000 C 
ATOM     14  O   UNL     1       4.595   3.377  11.844  0.00  0.00    +0.000 OA
BRANCH  13  15
ATOM     15  O   UNL     1       6.540   2.209  11.833  0.00  0.00    +0.000 OA
ATOM     16  H   UNL     1       6.908   1.812  12.655  0.00  0.00    +0.000 HD
ENDBRANCH  13  15
ENDBRANCH   9  13
ENDBRANCH   1   3
BRANCH   1  17
ATOM     17  C   UNL     1       4.374   3.190  19.045  0.00  0.00    +0.000 C 
BRANCH  17  23
ATOM     18  C   UNL     1       2.012   2.923  21.535  0.00  0.00    +0.000 C 
ATOM     19  C   UNL     1       2.476   4.078  20.722  0.00  0.00    +0.000 A 
ATOM     20  N   UNL     1       1.906   5.263  20.979  0.00  0.00    +0.000 NA
ATOM     21  N   UNL     1       2.351   6.093  20.012  0.00  0.00    +0.000 N 
ATOM     22  C   UNL     1       3.254   5.463  19.198  0.00  0.00    +0.000 A 
ATOM     23  C   UNL     1       3.422   4.174  19.661  0.00  0.00    +0.000 A 
BRANCH  21  24
ATOM     24  C   UNL     1       1.882   7.424  19.923  0.00  0.00    +0.000 A 
ATOM     25  C   UNL     1       1.244   8.022  21.015  0.00  0.00    +0.000 A 
ATOM     26  C   UNL     1       0.769   9.333  20.924  0.00  0.00    +0.000 A 
ATOM     27  C   UNL     1       0.918  10.042  19.732  0.00  0.00    +0.000 A 
ATOM     28  C   UNL     1       1.550   9.444  18.652  0.00  0.00    +0.000 A 
ATOM     29  F   UNL     1       1.683  10.119  17.502  0.00  0.00    +0.000 F 
ATOM     30  C   UNL     1       2.047   8.148  18.734  0.00  0.00    +0.000 A 
ENDBRANCH  21  24
ENDBRANCH  17  23
ENDBRANCH   1  17
TORSDOF 6
ENDMDL
MODEL 2
REMARK VINA RESULT:      -9.1      0.842      1.254
REMARK  Name = 
REMARK  7 active torsions:
REMARK  status: ('A' for Active; 'I' for Inactive)
REMARK    1  A    between atoms: C_1  and  C_2
REMARK    2  A    between atoms: N_4  and  C_5
REMARK    3  A    between atoms: C_13  and  C_14
REMARK    4  A    between atoms: C_14  and  N_15
REMARK    5  A    between atoms: N_15  and  C_16
REMARK    6  A    between atoms: C_22  and  C_23
REMARK    7  A    between atoms: C_23  and  O_25
REMARK                            x       y       z     vdW  Elec       q    Type
REMARK                         _______ _______ _______ _____ _____    ______ ____
ROOT
ATOM      1  N   UNL     1       4.375   3.192  17.608  0.00  0.00    +0.000 N 
ATOM      2  H   UNL     1       4.317   2.211  17.341  0.00  0.00    +0.000 HD
ENDROOT
BRANCH   1   3
ATOM      3  C   UNL     1       5.313   3.860  16.819  0.00  0.00    +0.000 A 
ATOM      4  C   UNL     1       6.314   4.717  17.291  0.00  0.00    +0.000 A 
ATOM      5  C   UNL     1       7.232   5.354  16.425  0.00  0.00    +0.000 A 
ATOM      6  C   UNL     1       7.135   5.051  15.062  0.00  0.00    +0.000 A 
ATOM      7  N   UNL     1       7.892   5.393  13.972  0.00  0.00    +0.000 N 
ATOM      8  N   UNL     1       7.506   4.799  12.817  0.00  0.00    +0.000 NA
ATOM      9  C   UNL     1       6.408   4.099  13.178  0.00  0.00    +0.000 A 
ATOM     10  C   UNL     1       6.124   4.250  14.557  0.00  0.00    +0.000 A 
ATOM     11  C   UNL     1       5.156   3.737  15.432  0.00  0.00    +0.000 A 
ATOM     12  H   UNL     1       8.715   5.985  13.956  0.00  0.00    +0.000 HD
BRANCH   9  13
ATOM     13  C   UNL     1       5.716   3.223  12.228  0.00  0.00    +0.000 C 
ATOM     14  O   UNL     1       4.559   3.370  11.854  0.00  0.00    +0.000 OA
BRANCH  13  15
ATOM     15  O   UNL     1       6.488   2.176  11.828  0.00  0.00    +0.000 OA
ATOM     16  H   UNL     1       6.811   1.742  12.651  0.00  0.00    +0.000 HD
ENDBRANCH  13  15
ENDBRANCH   9  13
ENDBRANCH   1   3
BRANCH   1  17
ATOM     17  C   UNL     1       4.368   3.299  19.061  0.00  0.00    +0.000 C 
BRANCH  17  23
ATOM     18  C   UNL     1       1.992   3.326  21.551  0.00  0.00    +0.000 C 
ATOM     19  C   UNL     1       2.477   4.384  20.627  0.00  0.00    +0.000 A 
ATOM     20  N   UNL     1       1.926   5.598  20.758  0.00  0.00    +0.000 NA
ATOM     21  N   UNL     1       2.388   6.317  19.713  0.00  0.00    +0.000 N 
ATOM     22  C   UNL     1       3.284   5.592  18.973  0.00  0.00    +0.000 A 
ATOM     23  C   UNL     1       3.429   4.355  19.567  0.00  0.00    +0.000 A 
BRANCH  21  24
ATOM     24  C   UNL     1       1.940   7.639  19.485  0.00  0.00    +0.000 A 
ATOM     25  C   UNL     1       2.142   8.247  18.242  0.00  0.00    +0.000 A 
ATOM     26  C   UNL     1       1.711   9.558  18.019  0.00  0.00    +0.000 A 
ATOM     27  C   UNL     1       1.092  10.267  19.048  0.00  0.00    +0.000 A 
ATOM     28  C   UNL     1       0.897   9.660  20.279  0.00  0.00    +0.000 A 
ATOM     29  F   UNL     1       0.313  10.345  21.273  0.00  0.00    +0.000 F 
ATOM     30  C   UNL     1       1.300   8.350  20.510  0.00  0.00    +0.000 A 
ENDBRANCH  21  24
ENDBRANCH  17  23
ENDBRANCH   1  17
TORSDOF 6
ENDMDL
MODEL 3
REMARK VINA RESULT:      -8.6      4.843      7.155
REMARK  Name = 
REMARK  7 active torsions:
REMARK  status: ('A' for Active; 'I' for Inactive)
REMARK    1  A    between atoms: C_1  and  C_2
REMARK    2  A    between atoms: N_4  and  C_5
REMARK    3  A    between atoms: C_13  and  C_14
REMARK    4  A    between atoms: C_14  and  N_15
REMARK    5  A    between atoms: N_15  and  C_16
REMARK    6  A    between atoms: C_22  and  C_23
REMARK    7  A    between atoms: C_23  and  O_25
REMARK                            x       y       z     vdW  Elec       q    Type
REMARK                         _______ _______ _______ _____ _____    ______ ____
ROOT
ATOM      1  N   UNL     1       4.933   6.806  16.459  0.00  0.00    +0.000 N 
ATOM      2  H   UNL     1       4.869   7.794  16.222  0.00  0.00    +0.000 HD
ENDROOT
BRANCH   1   3
ATOM      3  C   UNL     1       4.111   6.510  17.548  0.00  0.00    +0.000 A 
ATOM      4  C   UNL     1       3.219   7.397  18.163  0.00  0.00    +0.000 A 
ATOM      5  C   UNL     1       2.416   7.017  19.262  0.00  0.00    +0.000 A 
ATOM      6  C   UNL     1       2.507   5.687  19.687  0.00  0.00    +0.000 A 
ATOM      7  N   UNL     1       1.830   4.957  20.629  0.00  0.00    +0.000 N 
ATOM      8  N   UNL     1       2.164   3.644  20.664  0.00  0.00    +0.000 NA
ATOM      9  C   UNL     1       3.151   3.549  19.746  0.00  0.00    +0.000 A 
ATOM     10  C   UNL     1       3.417   4.799  19.136  0.00  0.00    +0.000 A 
ATOM     11  C   UNL     1       4.286   5.246  18.131  0.00  0.00    +0.000 A 
ATOM     12  H   UNL     1       1.092   5.282  21.246  0.00  0.00    +0.000 HD
BRANCH   9  13
ATOM     13  C   UNL     1       3.746   2.256  19.397  0.00  0.00    +0.000 C 
ATOM     14  O   UNL     1       3.167   1.357  18.801  0.00  0.00    +0.000 OA
BRANCH  13  15
ATOM     15  O   UNL     1       5.021   2.130  19.854  0.00  0.00    +0.000 OA
ATOM     16  H   UNL     1       5.281   3.016  20.194  0.00  0.00    +0.000 HD
ENDBRANCH  13  15
ENDBRANCH   9  13
ENDBRANCH   1   3
BRANCH   1  17
ATOM     17  C   UNL     1       6.326   6.383  16.402  0.00  0.00    +0.000 C 
BRANCH  17  23
ATOM     18  C   UNL     1       7.976   5.484  19.286  0.00  0.00    +0.000 C 
ATOM     19  C   UNL     1       7.929   6.758  18.522  0.00  0.00    +0.000 A 
ATOM     20  N   UNL     1       8.660   7.774  18.999  0.00  0.00    +0.000 NA
ATOM     21  N   UNL     1       8.315   8.845  18.255  0.00  0.00    +0.000 N 
ATOM     22  C   UNL     1       7.434   8.497  17.266  0.00  0.00    +0.000 A 
ATOM     23  C   UNL     1       7.208   7.139  17.353  0.00  0.00    +0.000 A 
BRANCH  21  24
ATOM     24  C   UNL     1       8.839  10.128  18.540  0.00  0.00    +0.000 A 
ATOM     25  C   UNL     1       8.615  11.193  17.661  0.00  0.00    +0.000 A 
ATOM     26  C   UNL     1       9.142  12.457  17.934  0.00  0.00    +0.000 A 
ATOM     27  C   UNL     1       9.909  12.653  19.082  0.00  0.00    +0.000 A 
ATOM     28  C   UNL     1      10.130  11.594  19.950  0.00  0.00    +0.000 A 
ATOM     29  F   UNL     1      10.878  11.778  21.047  0.00  0.00    +0.000 F 
ATOM     30  C   UNL     1       9.595  10.335  19.702  0.00  0.00    +0.000 A 
ENDBRANCH  21  24
ENDBRANCH  17  23
ENDBRANCH   1  17
TORSDOF 6
ENDMDL
MODEL 4
REMARK VINA RESULT:      -8.5      3.524      5.026
REMARK  Name = 
REMARK  7 active torsions:
REMARK  status: ('A' for Active; 'I' for Inactive)
REMARK    1  A    between atoms: C_1  and  C_2
REMARK    2  A    between atoms: N_4  and  C_5
REMARK    3  A    between atoms: C_13  and  C_14
REMARK    4  A    between atoms: C_14  and  N_15
REMARK    5  A    between atoms: N_15  and  C_16
REMARK    6  A    between atoms: C_22  and  C_23
REMARK    7  A    between atoms: C_23  and  O_25
REMARK                            x       y       z     vdW  Elec       q    Type
REMARK                         _______ _______ _______ _____ _____    ______ ____
ROOT
ATOM      1  N   UNL     1       2.284   5.338  19.810  0.00  0.00    +0.000 N 
ATOM      2  H   UNL     1       1.944   4.565  20.379  0.00  0.00    +0.000 HD
ENDROOT
BRANCH   1   3
ATOM      3  C   UNL     1       3.232   4.888  18.889  0.00  0.00    +0.000 A 
ATOM      4  C   UNL     1       2.959   4.150  17.731  0.00  0.00    +0.000 A 
ATOM      5  C   UNL     1       3.978   3.736  16.844  0.00  0.00    +0.000 A 
ATOM      6  C   UNL     1       5.284   4.142  17.141  0.00  0.00    +0.000 A 
ATOM      7  N   UNL     1       6.477   4.014  16.478  0.00  0.00    +0.000 N 
ATOM      8  N   UNL     1       7.517   4.645  17.076  0.00  0.00    +0.000 NA
ATOM      9  C   UNL     1       6.972   5.140  18.209  0.00  0.00    +0.000 A 
ATOM     10  C   UNL     1       5.594   4.826  18.305  0.00  0.00    +0.000 A 
ATOM     11  C   UNL     1       4.575   5.111  19.224  0.00  0.00    +0.000 A 
ATOM     12  H   UNL     1       6.641   3.553  15.590  0.00  0.00    +0.000 HD
BRANCH   9  13
ATOM     13  C   UNL     1       7.747   5.985  19.122  0.00  0.00    +0.000 C 
ATOM     14  O   UNL     1       8.275   7.047  18.815  0.00  0.00    +0.000 OA
BRANCH  13  15
ATOM     15  O   UNL     1       7.867   5.439  20.362  0.00  0.00    +0.000 OA
ATOM     16  H   UNL     1       8.140   4.503  20.226  0.00  0.00    +0.000 HD
ENDBRANCH  13  15
ENDBRANCH   9  13
ENDBRANCH   1   3
BRANCH   1  17
ATOM     17  C   UNL     1       2.518   6.498  20.660  0.00  0.00    +0.000 C 
BRANCH  17  23
ATOM     18  C   UNL     1       2.691   8.195  17.670  0.00  0.00    +0.000 C 
ATOM     19  C   UNL     1       1.886   8.422  18.898  0.00  0.00    +0.000 A 
ATOM     20  N   UNL     1       1.043   9.463  18.882  0.00  0.00    +0.000 NA
ATOM     21  N   UNL     1       0.574   9.565  20.143  0.00  0.00    +0.000 N 
ATOM     22  C   UNL     1       1.052   8.552  20.931  0.00  0.00    +0.000 A 
ATOM     23  C   UNL     1       1.851   7.742  20.150  0.00  0.00    +0.000 A 
BRANCH  21  24
ATOM     24  C   UNL     1      -0.289  10.621  20.516  0.00  0.00    +0.000 A 
ATOM     25  C   UNL     1      -1.191  11.156  19.590  0.00  0.00    +0.000 A 
ATOM     26  C   UNL     1      -2.036  12.208  19.953  0.00  0.00    +0.000 A 
ATOM     27  C   UNL     1      -1.966  12.738  21.241  0.00  0.00    +0.000 A 
ATOM     28  C   UNL     1      -1.069  12.207  22.154  0.00  0.00    +0.000 A 
ATOM     29  F   UNL     1      -0.992  12.724  23.389  0.00  0.00    +0.000 F 
ATOM     30  C   UNL     1      -0.237  11.146  21.815  0.00  0.00    +0.000 A 
ENDBRANCH  21  24
ENDBRANCH  17  23
ENDBRANCH   1  17
TORSDOF 6
ENDMDL
MODEL 5
REMARK VINA RESULT:      -8.4      4.807      7.084
REMARK  Name = 
REMARK  7 active torsions:
REMARK  status: ('A' for Active; 'I' for Inactive)
REMARK    1  A    between atoms: C_1  and  C_2
REMARK    2  A    between atoms: N_4  and  C_5
REMARK    3  A    between atoms: C_13  and  C_14
REMARK    4  A    between atoms: C_14  and  N_15
REMARK    5  A    between atoms: N_15  and  C_16
REMARK    6  A    between atoms: C_22  and  C_23
REMARK    7  A    between atoms: C_23  and  O_25
REMARK                            x       y       z     vdW  Elec       q    Type
REMARK                         _______ _______ _______ _____ _____    ______ ____
ROOT
ATOM      1  N   UNL     1       4.991   7.038  16.509  0.00  0.00    +0.000 N 
ATOM      2  H   UNL     1       4.983   8.045  16.356  0.00  0.00    +0.000 HD
ENDROOT
BRANCH   1   3
ATOM      3  C   UNL     1       4.121   6.693  17.545  0.00  0.00    +0.000 A 
ATOM      4  C   UNL     1       3.173   7.540  18.131  0.00  0.00    +0.000 A 
ATOM      5  C   UNL     1       2.323   7.111  19.176  0.00  0.00    +0.000 A 
ATOM      6  C   UNL     1       2.428   5.773  19.572  0.00  0.00    +0.000 A 
ATOM      7  N   UNL     1       1.722   5.002  20.459  0.00  0.00    +0.000 N 
ATOM      8  N   UNL     1       2.090   3.698  20.480  0.00  0.00    +0.000 NA
ATOM      9  C   UNL     1       3.127   3.653  19.614  0.00  0.00    +0.000 A 
ATOM     10  C   UNL     1       3.391   4.925  19.050  0.00  0.00    +0.000 A 
ATOM     11  C   UNL     1       4.299   5.420  18.105  0.00  0.00    +0.000 A 
ATOM     12  H   UNL     1       0.944   5.291  21.042  0.00  0.00    +0.000 HD
BRANCH   9  13
ATOM     13  C   UNL     1       3.775   2.385  19.267  0.00  0.00    +0.000 C 
ATOM     14  O   UNL     1       3.225   1.449  18.701  0.00  0.00    +0.000 OA
BRANCH  13  15
ATOM     15  O   UNL     1       5.068   2.329  19.689  0.00  0.00    +0.000 OA
ATOM     16  H   UNL     1       5.625   2.505  18.896  0.00  0.00    +0.000 HD
ENDBRANCH  13  15
ENDBRANCH   9  13
ENDBRANCH   1   3
BRANCH   1  17
ATOM     17  C   UNL     1       6.364   6.552  16.455  0.00  0.00    +0.000 C 
BRANCH  17  23
ATOM     18  C   UNL     1       7.939   5.489  19.325  0.00  0.00    +0.000 C 
ATOM     19  C   UNL     1       7.957   6.787  18.602  0.00  0.00    +0.000 A 
ATOM     20  N   UNL     1       8.729   7.753  19.118  0.00  0.00    +0.000 NA
ATOM     21  N   UNL     1       8.441   8.862  18.405  0.00  0.00    +0.000 N 
ATOM     22  C   UNL     1       7.557   8.585  17.397  0.00  0.00    +0.000 A 
ATOM     23  C   UNL     1       7.268   7.236  17.439  0.00  0.00    +0.000 A 
BRANCH  21  24
ATOM     24  C   UNL     1       9.019  10.110  18.734  0.00  0.00    +0.000 A 
ATOM     25  C   UNL     1       9.342  10.409  20.062  0.00  0.00    +0.000 A 
ATOM     26  C   UNL     1       9.901  11.647  20.391  0.00  0.00    +0.000 A 
ATOM     27  C   UNL     1      10.124  12.593  19.391  0.00  0.00    +0.000 A 
ATOM     28  C   UNL     1       9.801  12.292  18.077  0.00  0.00    +0.000 A 
ATOM     29  F   UNL     1      10.003  13.205  17.117  0.00  0.00    +0.000 F 
ATOM     30  C   UNL     1       9.263  11.057  17.731  0.00  0.00    +0.000 A 
ENDBRANCH  21  24
ENDBRANCH  17  23
ENDBRANCH   1  17
TORSDOF 6
ENDMDL
MODEL 6
REMARK VINA RESULT:      -8.4      4.550      8.683
REMARK  Name = 
REMARK  7 active torsions:
REMARK  status: ('A' for Active; 'I' for Inactive)
REMARK    1  A    between atoms: C_1  and  C_2
REMARK    2  A    between atoms: N_4  and  C_5
REMARK    3  A    between atoms: C_13  and  C_14
REMARK    4  A    between atoms: C_14  and  N_15
REMARK    5  A    between atoms: N_15  and  C_16
REMARK    6  A    between atoms: C_22  and  C_23
REMARK    7  A    between atoms: C_23  and  O_25
REMARK                            x       y       z     vdW  Elec       q    Type
REMARK                         _______ _______ _______ _____ _____    ______ ____
ROOT
ATOM      1  N   UNL     1       3.102   5.860  19.726  0.00  0.00    +0.000 N 
ATOM      2  H   UNL     1       2.507   5.074  19.470  0.00  0.00    +0.000 HD
ENDROOT
BRANCH   1   3
ATOM      3  C   UNL     1       2.478   7.069  19.415  0.00  0.00    +0.000 A 
ATOM      4  C   UNL     1       2.458   7.677  18.154  0.00  0.00    +0.000 A 
ATOM      5  C   UNL     1       1.796   8.904  17.919  0.00  0.00    +0.000 A 
ATOM      6  C   UNL     1       1.106   9.471  18.996  0.00  0.00    +0.000 A 
ATOM      7  N   UNL     1       0.295  10.570  19.113  0.00  0.00    +0.000 N 
ATOM      8  N   UNL     1      -0.265  10.721  20.338  0.00  0.00    +0.000 NA
ATOM      9  C   UNL     1       0.270   9.707  21.053  0.00  0.00    +0.000 A 
ATOM     10  C   UNL     1       1.150   8.923  20.268  0.00  0.00    +0.000 A 
ATOM     11  C   UNL     1       1.920   7.773  20.491  0.00  0.00    +0.000 A 
ATOM     12  H   UNL     1       0.042  11.228  18.384  0.00  0.00    +0.000 HD
BRANCH   9  13
ATOM     13  C   UNL     1      -0.145   9.446  22.434  0.00  0.00    +0.000 C 
ATOM     14  O   UNL     1       0.225  10.087  23.410  0.00  0.00    +0.000 OA
BRANCH  13  15
ATOM     15  O   UNL     1      -0.965   8.365  22.536  0.00  0.00    +0.000 OA
ATOM     16  H   UNL     1      -1.885   8.715  22.531  0.00  0.00    +0.000 HD
ENDBRANCH  13  15
ENDBRANCH   9  13
ENDBRANCH   1   3
BRANCH   1  17
ATOM     17  C   UNL     1       4.477   5.575  19.333  0.00  0.00    +0.000 C 
BRANCH  17  23
ATOM     18  C   UNL     1       3.021   2.673  18.190  0.00  0.00    +0.000 C 
ATOM     19  C   UNL     1       3.936   3.649  17.543  0.00  0.00    +0.000 A 
ATOM     20  N   UNL     1       4.278   3.404  16.271  0.00  0.00    +0.000 NA
ATOM     21  N   UNL     1       5.235   4.308  15.975  0.00  0.00    +0.000 N 
ATOM     22  C   UNL     1       5.442   5.168  17.021  0.00  0.00    +0.000 A 
ATOM     23  C   UNL     1       4.572   4.826  18.036  0.00  0.00    +0.000 A 
BRANCH  21  24
ATOM     24  C   UNL     1       5.893   4.289  14.724  0.00  0.00    +0.000 A 
ATOM     25  C   UNL     1       7.019   5.090  14.505  0.00  0.00    +0.000 A 
ATOM     26  C   UNL     1       7.662   5.081  13.265  0.00  0.00    +0.000 A 
ATOM     27  C   UNL     1       7.168   4.280  12.235  0.00  0.00    +0.000 A 
ATOM     28  C   UNL     1       6.051   3.490  12.456  0.00  0.00    +0.000 A 
ATOM     29  F   UNL     1       5.567   2.730  11.463  0.00  0.00    +0.000 F 
ATOM     30  C   UNL     1       5.412   3.472  13.691  0.00  0.00    +0.000 A 
ENDBRANCH  21  24
ENDBRANCH  17  23
ENDBRANCH   1  17
TORSDOF 6
ENDMDL
MODEL 7
REMARK VINA RESULT:      -8.4      4.383      6.551
REMARK  Name = 
REMARK  7 active torsions:
REMARK  status: ('A' for Active; 'I' for Inactive)
REMARK    1  A    between atoms: C_1  and  C_2
REMARK    2  A    between atoms: N_4  and  C_5
REMARK    3  A    between atoms: C_13  and  C_14
REMARK    4  A    between atoms: C_14  and  N_15
REMARK    5  A    between atoms: N_15  and  C_16
REMARK    6  A    between atoms: C_22  and  C_23
REMARK    7  A    between atoms: C_23  and  O_25
REMARK                            x       y       z     vdW  Elec       q    Type
REMARK                         _______ _______ _______ _____ _____    ______ ____
ROOT
ATOM      1  N   UNL     1       2.241   7.478  17.783  0.00  0.00    +0.000 N 
ATOM      2  H   UNL     1       1.262   7.201  17.748  0.00  0.00    +0.000 HD
ENDROOT
BRANCH   1   3
ATOM      3  C   UNL     1       3.050   6.379  18.080  0.00  0.00    +0.000 A 
ATOM      4  C   UNL     1       4.365   6.191  17.638  0.00  0.00    +0.000 A 
ATOM      5  C   UNL     1       5.121   5.050  17.988  0.00  0.00    +0.000 A 
ATOM      6  C   UNL     1       4.517   4.125  18.848  0.00  0.00    +0.000 A 
ATOM      7  N   UNL     1       4.968   2.984  19.460  0.00  0.00    +0.000 N 
ATOM      8  N   UNL     1       4.076   2.419  20.310  0.00  0.00    +0.000 NA
ATOM      9  C   UNL     1       2.982   3.201  20.179  0.00  0.00    +0.000 A 
ATOM     10  C   UNL     1       3.201   4.255  19.259  0.00  0.00    +0.000 A 
ATOM     11  C   UNL     1       2.441   5.336  18.791  0.00  0.00    +0.000 A 
ATOM     12  H   UNL     1       5.888   2.566  19.381  0.00  0.00    +0.000 HD
BRANCH   9  13
ATOM     13  C   UNL     1       1.790   2.989  21.006  0.00  0.00    +0.000 C 
ATOM     14  O   UNL     1       1.802   2.796  22.215  0.00  0.00    +0.000 OA
BRANCH  13  15
ATOM     15  O   UNL     1       0.643   2.981  20.274  0.00  0.00    +0.000 OA
ATOM     16  H   UNL     1       0.507   2.049  19.986  0.00  0.00    +0.000 HD
ENDBRANCH  13  15
ENDBRANCH   9  13
ENDBRANCH   1   3
BRANCH   1  17
ATOM     17  C   UNL     1       2.362   8.744  18.495  0.00  0.00    +0.000 C 
BRANCH  17  23
ATOM     18  C   UNL     1       0.837   9.772  21.405  0.00  0.00    +0.000 C 
ATOM     19  C   UNL     1       0.420   9.851  19.980  0.00  0.00    +0.000 A 
ATOM     20  N   UNL     1      -0.758  10.437  19.729  0.00  0.00    +0.000 NA
ATOM     21  N   UNL     1      -0.992  10.228  18.416  0.00  0.00    +0.000 N 
ATOM     22  C   UNL     1       0.063   9.586  17.824  0.00  0.00    +0.000 A 
ATOM     23  C   UNL     1       1.035   9.383  18.783  0.00  0.00    +0.000 A 
BRANCH  21  24
ATOM     24  C   UNL     1      -2.203  10.644  17.817  0.00  0.00    +0.000 A 
ATOM     25  C   UNL     1      -2.465  10.348  16.475  0.00  0.00    +0.000 A 
ATOM     26  C   UNL     1      -3.656  10.769  15.878  0.00  0.00    +0.000 A 
ATOM     27  C   UNL     1      -4.580  11.503  16.621  0.00  0.00    +0.000 A 
ATOM     28  C   UNL     1      -4.315  11.796  17.950  0.00  0.00    +0.000 A 
ATOM     29  F   UNL     1      -5.197  12.512  18.662  0.00  0.00    +0.000 F 
ATOM     30  C   UNL     1      -3.144  11.366  18.564  0.00  0.00    +0.000 A 
ENDBRANCH  21  24
ENDBRANCH  17  23
ENDBRANCH   1  17
TORSDOF 6
ENDMDL
MODEL 8
REMARK VINA RESULT:      -8.4      4.896      8.746
REMARK  Name = 
REMARK  7 active torsions:
REMARK  status: ('A' for Active; 'I' for Inactive)
REMARK    1  A    between atoms: C_1  and  C_2
REMARK    2  A    between atoms: N_4  and  C_5
REMARK    3  A    between atoms: C_13  and  C_14
REMARK    4  A    between atoms: C_14  and  N_15
REMARK    5  A    between atoms: N_15  and  C_16
REMARK    6  A    between atoms: C_22  and  C_23
REMARK    7  A    between atoms: C_23  and  O_25
REMARK                            x       y       z     vdW  Elec       q    Type
REMARK                         _______ _______ _______ _____ _____    ______ ____
ROOT
ATOM      1  N   UNL     1       2.082   6.668  20.874  0.00  0.00    +0.000 N 
ATOM      2  H   UNL     1       2.147   6.747  21.888  0.00  0.00    +0.000 HD
ENDROOT
BRANCH   1   3
ATOM      3  C   UNL     1       1.627   7.865  20.318  0.00  0.00    +0.000 A 
ATOM      4  C   UNL     1       1.761   8.245  18.978  0.00  0.00    +0.000 A 
ATOM      5  C   UNL     1       1.266   9.476  18.490  0.00  0.00    +0.000 A 
ATOM      6  C   UNL     1       0.581  10.290  19.398  0.00  0.00    +0.000 A 
ATOM      7  N   UNL     1      -0.100  11.473  19.265  0.00  0.00    +0.000 N 
ATOM      8  N   UNL     1      -0.716  11.891  20.398  0.00  0.00    +0.000 NA
ATOM      9  C   UNL     1      -0.352  10.965  21.312  0.00  0.00    +0.000 A 
ATOM     10  C   UNL     1       0.477   9.968  20.742  0.00  0.00    +0.000 A 
ATOM     11  C   UNL     1       1.089   8.799  21.214  0.00  0.00    +0.000 A 
ATOM     12  H   UNL     1      -0.226  12.019  18.420  0.00  0.00    +0.000 HD
BRANCH   9  13
ATOM     13  C   UNL     1      -0.884  10.991  22.677  0.00  0.00    +0.000 C 
ATOM     14  O   UNL     1      -0.385  10.413  23.635  0.00  0.00    +0.000 OA
BRANCH  13  15
ATOM     15  O   UNL     1      -2.042  11.700  22.771  0.00  0.00    +0.000 OA
ATOM     16  H   UNL     1      -2.515  11.351  23.561  0.00  0.00    +0.000 HD
ENDBRANCH  13  15
ENDBRANCH   9  13
ENDBRANCH   1   3
BRANCH   1  17
ATOM     17  C   UNL     1       1.498   5.380  20.525  0.00  0.00    +0.000 C 
BRANCH  17  23
ATOM     18  C   UNL     1       0.869   2.501  18.746  0.00  0.00    +0.000 C 
ATOM     19  C   UNL     1       1.942   3.524  18.637  0.00  0.00    +0.000 A 
ATOM     20  N   UNL     1       2.852   3.343  17.671  0.00  0.00    +0.000 NA
ATOM     21  N   UNL     1       3.799   4.279  17.889  0.00  0.00    +0.000 N 
ATOM     22  C   UNL     1       3.455   5.096  18.933  0.00  0.00    +0.000 A 
ATOM     23  C   UNL     1       2.224   4.691  19.406  0.00  0.00    +0.000 A 
BRANCH  21  24
ATOM     24  C   UNL     1       4.969   4.329  17.097  0.00  0.00    +0.000 A 
ATOM     25  C   UNL     1       6.209   4.604  17.685  0.00  0.00    +0.000 A 
ATOM     26  C   UNL     1       7.364   4.665  16.901  0.00  0.00    +0.000 A 
ATOM     27  C   UNL     1       7.276   4.468  15.523  0.00  0.00    +0.000 A 
ATOM     28  C   UNL     1       6.046   4.197  14.945  0.00  0.00    +0.000 A 
ATOM     29  F   UNL     1       5.958   4.019  13.619  0.00  0.00    +0.000 F 
ATOM     30  C   UNL     1       4.890   4.112  15.714  0.00  0.00    +0.000 A 
ENDBRANCH  21  24
ENDBRANCH  17  23
ENDBRANCH   1  17
TORSDOF 6
ENDMDL
MODEL 9
REMARK VINA RESULT:      -8.3      3.244      4.713
REMARK  Name = 
REMARK  7 active torsions:
REMARK  status: ('A' for Active; 'I' for Inactive)
REMARK    1  A    between atoms: C_1  and  C_2
REMARK    2  A    between atoms: N_4  and  C_5
REMARK    3  A    between atoms: C_13  and  C_14
REMARK    4  A    between atoms: C_14  and  N_15
REMARK    5  A    between atoms: N_15  and  C_16
REMARK    6  A    between atoms: C_22  and  C_23
REMARK    7  A    between atoms: C_23  and  O_25
REMARK                            x       y       z     vdW  Elec       q    Type
REMARK                         _______ _______ _______ _____ _____    ______ ____
ROOT
ATOM      1  N   UNL     1       3.142   5.301  20.568  0.00  0.00    +0.000 N 
ATOM      2  H   UNL     1       3.678   6.036  21.026  0.00  0.00    +0.000 HD
ENDROOT
BRANCH   1   3
ATOM      3  C   UNL     1       3.834   4.805  19.462  0.00  0.00    +0.000 A 
ATOM      4  C   UNL     1       3.419   3.746  18.647  0.00  0.00    +0.000 A 
ATOM      5  C   UNL     1       4.177   3.306  17.539  0.00  0.00    +0.000 A 
ATOM      6  C   UNL     1       5.350   4.013  17.249  0.00  0.00    +0.000 A 
ATOM      7  N   UNL     1       6.260   3.936  16.226  0.00  0.00    +0.000 N 
ATOM      8  N   UNL     1       7.224   4.888  16.267  0.00  0.00    +0.000 NA
ATOM      9  C   UNL     1       6.953   5.559  17.408  0.00  0.00    +0.000 A 
ATOM     10  C   UNL     1       5.815   5.030  18.065  0.00  0.00    +0.000 A 
ATOM     11  C   UNL     1       5.102   5.357  19.226  0.00  0.00    +0.000 A 
ATOM     12  H   UNL     1       6.252   3.293  15.443  0.00  0.00    +0.000 HD
BRANCH   9  13
ATOM     13  C   UNL     1       7.719   6.748  17.793  0.00  0.00    +0.000 C 
ATOM     14  O   UNL     1       8.276   6.903  18.873  0.00  0.00    +0.000 OA
BRANCH  13  15
ATOM     15  O   UNL     1       7.710   7.707  16.828  0.00  0.00    +0.000 OA
ATOM     16  H   UNL     1       6.947   7.501  16.241  0.00  0.00    +0.000 HD
ENDBRANCH  13  15
ENDBRANCH   9  13
ENDBRANCH   1   3
BRANCH   1  17
ATOM     17  C   UNL     1       1.742   5.699  20.492  0.00  0.00    +0.000 C 
BRANCH  17  23
ATOM     18  C   UNL     1       2.752   7.776  17.940  0.00  0.00    +0.000 C 
ATOM     19  C   UNL     1       1.940   8.021  19.161  0.00  0.00    +0.000 A 
ATOM     20  N   UNL     1       1.480   9.266  19.339  0.00  0.00    +0.000 NA
ATOM     21  N   UNL     1       0.941   9.277  20.576  0.00  0.00    +0.000 N 
ATOM     22  C   UNL     1       0.988   8.033  21.146  0.00  0.00    +0.000 A 
ATOM     23  C   UNL     1       1.562   7.167  20.238  0.00  0.00    +0.000 A 
BRANCH  21  24
ATOM     24  C   UNL     1       0.428  10.470  21.135  0.00  0.00    +0.000 A 
ATOM     25  C   UNL     1       0.916  11.713  20.719  0.00  0.00    +0.000 A 
ATOM     26  C   UNL     1       0.418  12.892  21.280  0.00  0.00    +0.000 A 
ATOM     27  C   UNL     1      -0.560  12.826  22.272  0.00  0.00    +0.000 A 
ATOM     28  C   UNL     1      -1.039  11.592  22.683  0.00  0.00    +0.000 A 
ATOM     29  F   UNL     1      -1.970  11.527  23.645  0.00  0.00    +0.000 F 
ATOM     30  C   UNL     1      -0.569  10.411  22.120  0.00  0.00    +0.000 A 
ENDBRANCH  21  24
ENDBRANCH  17  23
ENDBRANCH   1  17
TORSDOF 6
ENDMDL
