MODEL 1
REMARK VINA RESULT:      -8.8      0.000      0.000
REMARK  Name = 
REMARK  5 active torsions:
REMARK  status: ('A' for Active; 'I' for Inactive)
REMARK    1  A    between atoms: C_1  and  N_2
REMARK    2  A    between atoms: C_6  and  C_7
REMARK    3  A    between atoms: C_8  and  N_9
REMARK    4  A    between atoms: C_16  and  C_17
REMARK    5  A    between atoms: C_17  and  C_18
REMARK                            x       y       z     vdW  Elec       q    Type
REMARK                         _______ _______ _______ _____ _____    ______ ____
ROOT
ATOM      1  N   UNL     1       4.492   5.192  17.327  0.00  0.00    +0.000 N 
ATOM      2  C   UNL     1       4.091   4.107  18.218  0.00  0.00    +0.000 C 
ATOM      3  C   UNL     1       3.110   4.756  19.145  0.00  0.00    +0.000 A 
ATOM      4  C   UNL     1       3.001   6.105  18.826  0.00  0.00    +0.000 A 
ATOM      5  C   UNL     1       2.197   6.988  19.521  0.00  0.00    +0.000 A 
ATOM      6  C   UNL     1       1.461   6.482  20.584  0.00  0.00    +0.000 A 
ATOM      7  C   UNL     1       1.549   5.118  20.922  0.00  0.00    +0.000 A 
ATOM      8  C   UNL     1       2.379   4.229  20.207  0.00  0.00    +0.000 A 
ATOM      9  C   UNL     1       3.893   6.396  17.705  0.00  0.00    +0.000 C 
ATOM     10  O   UNL     1       4.084   7.534  17.321  0.00  0.00    +0.000 OA
ENDROOT
BRANCH   1  12
ATOM     11  C   UNL     1       6.654   5.494  16.151  0.00  0.00    +0.000 C 
ATOM     12  C   UNL     1       5.398   5.013  16.300  0.00  0.00    +0.000 C 
ATOM     13  C   UNL     1       5.039   4.180  15.086  0.00  0.00    +0.000 C 
ATOM     14  C   UNL     1       6.275   4.280  14.247  0.00  0.00    +0.000 C 
ATOM     15  C   UNL     1       7.180   5.043  14.873  0.00  0.00    +0.000 C 
BRANCH  11  21
ATOM     16  C   UNL     1       7.833   4.765  18.805  0.00  0.00    +0.000 C 
ATOM     17  N   UNL     1       7.800   6.075  18.209  0.00  0.00    +0.000 N 
ATOM     18  C   UNL     1       8.262   7.222  18.781  0.00  0.00    +0.000 A 
ATOM     19  N   UNL     1       8.090   8.228  17.957  0.00  0.00    +0.000 NA
ATOM     20  N   UNL     1       7.457   7.738  16.836  0.00  0.00    +0.000 NA
ATOM     21  C   UNL     1       7.255   6.444  17.005  0.00  0.00    +0.000 A 
ENDBRANCH  11  21
ENDBRANCH   1  12
BRANCH   8  22
ATOM     22  C   UNL     1       2.450   2.772  20.596  0.00  0.00    +0.000 C 
ATOM     23  C   UNL     1       1.555   2.466  21.786  0.00  0.00    +0.000 C 
ATOM     24  F   UNL     1       2.079   1.948  19.574  0.00  0.00    +0.000 F 
ATOM     25  F   UNL     1       3.720   2.389  20.921  0.00  0.00    +0.000 F 
ENDBRANCH   8  22
TORSDOF 3
ENDMDL
MODEL 2
REMARK VINA RESULT:      -8.4      0.994      1.559
REMARK  Name = 
REMARK  5 active torsions:
REMARK  status: ('A' for Active; 'I' for Inactive)
REMARK    1  A    between atoms: C_1  and  N_2
REMARK    2  A    between atoms: C_6  and  C_7
REMARK    3  A    between atoms: C_8  and  N_9
REMARK    4  A    between atoms: C_16  and  C_17
REMARK    5  A    between atoms: C_17  and  C_18
REMARK                            x       y       z     vdW  Elec       q    Type
REMARK                         _______ _______ _______ _____ _____    ______ ____
ROOT
ATOM      1  N   UNL     1       4.310   5.186  17.304  0.00  0.00    +0.000 N 
ATOM      2  C   UNL     1       3.646   4.085  17.996  0.00  0.00    +0.000 C 
ATOM      3  C   UNL     1       2.700   4.775  18.929  0.00  0.00    +0.000 A 
ATOM      4  C   UNL     1       2.850   6.152  18.800  0.00  0.00    +0.000 A 
ATOM      5  C   UNL     1       2.139   7.068  19.551  0.00  0.00    +0.000 A 
ATOM      6  C   UNL     1       1.227   6.570  20.472  0.00  0.00    +0.000 A 
ATOM      7  C   UNL     1       1.051   5.181  20.616  0.00  0.00    +0.000 A 
ATOM      8  C   UNL     1       1.788   4.256  19.846  0.00  0.00    +0.000 A 
ATOM      9  C   UNL     1       3.886   6.420  17.804  0.00  0.00    +0.000 C 
ATOM     10  O   UNL     1       4.302   7.544  17.604  0.00  0.00    +0.000 OA
ENDROOT
BRANCH   1  12
ATOM     11  C   UNL     1       6.620   4.939  16.438  0.00  0.00    +0.000 C 
ATOM     12  C   UNL     1       5.272   4.981  16.334  0.00  0.00    +0.000 C 
ATOM     13  C   UNL     1       4.880   4.772  14.886  0.00  0.00    +0.000 C 
ATOM     14  C   UNL     1       6.207   4.619  14.209  0.00  0.00    +0.000 C 
ATOM     15  C   UNL     1       7.186   4.728  15.116  0.00  0.00    +0.000 C 
BRANCH  11  21
ATOM     16  C   UNL     1       7.371   7.748  17.153  0.00  0.00    +0.000 C 
ATOM     17  N   UNL     1       7.661   6.561  17.913  0.00  0.00    +0.000 N 
ATOM     18  C   UNL     1       8.373   6.512  19.074  0.00  0.00    +0.000 A 
ATOM     19  N   UNL     1       8.432   5.275  19.505  0.00  0.00    +0.000 NA
ATOM     20  N   UNL     1       7.782   4.486  18.582  0.00  0.00    +0.000 NA
ATOM     21  C   UNL     1       7.345   5.261  17.606  0.00  0.00    +0.000 A 
ENDBRANCH  11  21
ENDBRANCH   1  12
BRANCH   8  22
ATOM     22  C   UNL     1       1.576   2.773  20.026  0.00  0.00    +0.000 C 
ATOM     23  C   UNL     1       0.731   2.188  18.905  0.00  0.00    +0.000 C 
ATOM     24  F   UNL     1       2.754   2.085  20.061  0.00  0.00    +0.000 F 
ATOM     25  F   UNL     1       0.956   2.483  21.207  0.00  0.00    +0.000 F 
ENDBRANCH   8  22
TORSDOF 3
ENDMDL
MODEL 3
REMARK VINA RESULT:      -8.2      2.175      3.101
REMARK  Name = 
REMARK  5 active torsions:
REMARK  status: ('A' for Active; 'I' for Inactive)
REMARK    1  A    between atoms: C_1  and  N_2
REMARK    2  A    between atoms: C_6  and  C_7
REMARK    3  A    between atoms: C_8  and  N_9
REMARK    4  A    between atoms: C_16  and  C_17
REMARK    5  A    between atoms: C_17  and  C_18
REMARK                            x       y       z     vdW  Elec       q    Type
REMARK                         _______ _______ _______ _____ _____    ______ ____
ROOT
ATOM      1  N   UNL     1       4.351   4.333  17.201  0.00  0.00    +0.000 N 
ATOM      2  C   UNL     1       3.784   5.525  17.826  0.00  0.00    +0.000 C 
ATOM      3  C   UNL     1       2.811   4.972  18.820  0.00  0.00    +0.000 A 
ATOM      4  C   UNL     1       2.803   3.584  18.732  0.00  0.00    +0.000 A 
ATOM      5  C   UNL     1       1.983   2.778  19.499  0.00  0.00    +0.000 A 
ATOM      6  C   UNL     1       1.136   3.404  20.404  0.00  0.00    +0.000 A 
ATOM      7  C   UNL     1       1.131   4.807  20.518  0.00  0.00    +0.000 A 
ATOM      8  C   UNL     1       1.970   5.618  19.724  0.00  0.00    +0.000 A 
ATOM      9  C   UNL     1       3.744   3.174  17.692  0.00  0.00    +0.000 C 
ATOM     10  O   UNL     1       3.825   2.018  17.325  0.00  0.00    +0.000 OA
ENDROOT
BRANCH   1  12
ATOM     11  C   UNL     1       6.639   4.663  16.303  0.00  0.00    +0.000 C 
ATOM     12  C   UNL     1       5.314   4.400  16.214  0.00  0.00    +0.000 C 
ATOM     13  C   UNL     1       4.951   4.177  14.760  0.00  0.00    +0.000 C 
ATOM     14  C   UNL     1       6.264   4.364  14.064  0.00  0.00    +0.000 C 
ATOM     15  C   UNL     1       7.211   4.650  14.967  0.00  0.00    +0.000 C 
BRANCH  11  21
ATOM     16  C   UNL     1       6.816   7.541  17.111  0.00  0.00    +0.000 C 
ATOM     17  N   UNL     1       7.345   6.412  17.830  0.00  0.00    +0.000 N 
ATOM     18  C   UNL     1       8.064   6.470  18.986  0.00  0.00    +0.000 A 
ATOM     19  N   UNL     1       8.374   5.256  19.376  0.00  0.00    +0.000 NA
ATOM     20  N   UNL     1       7.887   4.383  18.428  0.00  0.00    +0.000 NA
ATOM     21  C   UNL     1       7.294   5.086  17.480  0.00  0.00    +0.000 A 
ENDBRANCH  11  21
ENDBRANCH   1  12
BRANCH   8  22
ATOM     22  C   UNL     1       1.939   7.120  19.870  0.00  0.00    +0.000 C 
ATOM     23  C   UNL     1       1.053   7.552  21.027  0.00  0.00    +0.000 C 
ATOM     24  F   UNL     1       3.182   7.642  20.081  0.00  0.00    +0.000 F 
ATOM     25  F   UNL     1       1.480   7.737  18.742  0.00  0.00    +0.000 F 
ENDBRANCH   8  22
TORSDOF 3
ENDMDL
MODEL 4
REMARK VINA RESULT:      -8.2      2.752      4.487
REMARK  Name = 
REMARK  5 active torsions:
REMARK  status: ('A' for Active; 'I' for Inactive)
REMARK    1  A    between atoms: C_1  and  N_2
REMARK    2  A    between atoms: C_6  and  C_7
REMARK    3  A    between atoms: C_8  and  N_9
REMARK    4  A    between atoms: C_16  and  C_17
REMARK    5  A    between atoms: C_17  and  C_18
REMARK                            x       y       z     vdW  Elec       q    Type
REMARK                         _______ _______ _______ _____ _____    ______ ____
ROOT
ATOM      1  N   UNL     1       2.695   5.695  19.107  0.00  0.00    +0.000 N 
ATOM      2  C   UNL     1       1.991   6.383  20.186  0.00  0.00    +0.000 C 
ATOM      3  C   UNL     1       1.785   7.765  19.648  0.00  0.00    +0.000 A 
ATOM      4  C   UNL     1       2.361   7.857  18.386  0.00  0.00    +0.000 A 
ATOM      5  C   UNL     1       2.369   9.017  17.636  0.00  0.00    +0.000 A 
ATOM      6  C   UNL     1       1.757  10.137  18.185  0.00  0.00    +0.000 A 
ATOM      7  C   UNL     1       1.160  10.067  19.457  0.00  0.00    +0.000 A 
ATOM      8  C   UNL     1       1.165   8.876  20.214  0.00  0.00    +0.000 A 
ATOM      9  C   UNL     1       2.967   6.569  18.051  0.00  0.00    +0.000 C 
ATOM     10  O   UNL     1       3.652   6.426  17.057  0.00  0.00    +0.000 OA
ENDROOT
BRANCH   1  12
ATOM     11  C   UNL     1       4.310   3.816  19.199  0.00  0.00    +0.000 C 
ATOM     12  C   UNL     1       3.075   4.371  19.194  0.00  0.00    +0.000 C 
ATOM     13  C   UNL     1       2.038   3.270  19.289  0.00  0.00    +0.000 C 
ATOM     14  C   UNL     1       2.881   2.033  19.337  0.00  0.00    +0.000 C 
ATOM     15  C   UNL     1       4.175   2.371  19.275  0.00  0.00    +0.000 C 
BRANCH  11  21
ATOM     16  C   UNL     1       5.639   3.871  16.517  0.00  0.00    +0.000 C 
ATOM     17  N   UNL     1       6.084   4.542  17.711  0.00  0.00    +0.000 N 
ATOM     18  C   UNL     1       7.222   5.282  17.832  0.00  0.00    +0.000 A 
ATOM     19  N   UNL     1       7.310   5.761  19.050  0.00  0.00    +0.000 NA
ATOM     20  N   UNL     1       6.228   5.286  19.759  0.00  0.00    +0.000 NA
ATOM     21  C   UNL     1       5.507   4.524  18.956  0.00  0.00    +0.000 A 
ENDBRANCH  11  21
ENDBRANCH   1  12
BRANCH   8  22
ATOM     22  C   UNL     1       0.515   8.835  21.576  0.00  0.00    +0.000 C 
ATOM     23  C   UNL     1      -0.141  10.162  21.923  0.00  0.00    +0.000 C 
ATOM     24  F   UNL     1      -0.439   7.864  21.663  0.00  0.00    +0.000 F 
ATOM     25  F   UNL     1       1.412   8.544  22.564  0.00  0.00    +0.000 F 
ENDBRANCH   8  22
TORSDOF 3
ENDMDL
MODEL 5
REMARK VINA RESULT:      -7.9      2.527      3.430
REMARK  Name = 
REMARK  5 active torsions:
REMARK  status: ('A' for Active; 'I' for Inactive)
REMARK    1  A    between atoms: C_1  and  N_2
REMARK    2  A    between atoms: C_6  and  C_7
REMARK    3  A    between atoms: C_8  and  N_9
REMARK    4  A    between atoms: C_16  and  C_17
REMARK    5  A    between atoms: C_17  and  C_18
REMARK                            x       y       z     vdW  Elec       q    Type
REMARK                         _______ _______ _______ _____ _____    ______ ____
ROOT
ATOM      1  N   UNL     1       4.542   5.613  17.623  0.00  0.00    +0.000 N 
ATOM      2  C   UNL     1       3.785   6.858  17.523  0.00  0.00    +0.000 C 
ATOM      3  C   UNL     1       2.912   6.840  18.739  0.00  0.00    +0.000 A 
ATOM      4  C   UNL     1       3.132   5.661  19.444  0.00  0.00    +0.000 A 
ATOM      5  C   UNL     1       2.453   5.328  20.600  0.00  0.00    +0.000 A 
ATOM      6  C   UNL     1       1.512   6.234  21.072  0.00  0.00    +0.000 A 
ATOM      7  C   UNL     1       1.277   7.438  20.381  0.00  0.00    +0.000 A 
ATOM      8  C   UNL     1       1.974   7.762  19.198  0.00  0.00    +0.000 A 
ATOM      9  C   UNL     1       4.131   4.867  18.730  0.00  0.00    +0.000 C 
ATOM     10  O   UNL     1       4.401   3.730  19.067  0.00  0.00    +0.000 OA
ENDROOT
BRANCH   1  12
ATOM     11  C   UNL     1       6.765   5.647  16.526  0.00  0.00    +0.000 C 
ATOM     12  C   UNL     1       5.484   5.240  16.685  0.00  0.00    +0.000 C 
ATOM     13  C   UNL     1       5.145   4.234  15.604  0.00  0.00    +0.000 C 
ATOM     14  C   UNL     1       6.420   4.155  14.823  0.00  0.00    +0.000 C 
ATOM     15  C   UNL     1       7.327   4.978  15.364  0.00  0.00    +0.000 C 
BRANCH  11  21
ATOM     16  C   UNL     1       7.930   5.279  19.258  0.00  0.00    +0.000 C 
ATOM     17  N   UNL     1       7.905   6.497  18.491  0.00  0.00    +0.000 N 
ATOM     18  C   UNL     1       8.370   7.708  18.905  0.00  0.00    +0.000 A 
ATOM     19  N   UNL     1       8.205   8.595  17.952  0.00  0.00    +0.000 NA
ATOM     20  N   UNL     1       7.575   7.960  16.905  0.00  0.00    +0.000 NA
ATOM     21  C   UNL     1       7.366   6.701  17.246  0.00  0.00    +0.000 A 
ENDBRANCH  11  21
ENDBRANCH   1  12
BRANCH   8  22
ATOM     22  C   UNL     1       1.698   9.061  18.481  0.00  0.00    +0.000 C 
ATOM     23  C   UNL     1       0.915  10.027  19.356  0.00  0.00    +0.000 C 
ATOM     24  F   UNL     1       2.845   9.688  18.092  0.00  0.00    +0.000 F 
ATOM     25  F   UNL     1       0.986   8.872  17.331  0.00  0.00    +0.000 F 
ENDBRANCH   8  22
TORSDOF 3
ENDMDL
MODEL 6
REMARK VINA RESULT:      -7.9      3.677      5.702
REMARK  Name = 
REMARK  5 active torsions:
REMARK  status: ('A' for Active; 'I' for Inactive)
REMARK    1  A    between atoms: C_1  and  N_2
REMARK    2  A    between atoms: C_6  and  C_7
REMARK    3  A    between atoms: C_8  and  N_9
REMARK    4  A    between atoms: C_16  and  C_17
REMARK    5  A    between atoms: C_17  and  C_18
REMARK                            x       y       z     vdW  Elec       q    Type
REMARK                         _______ _______ _______ _____ _____    ______ ____
ROOT
ATOM      1  N   UNL     1       2.937   6.799  18.546  0.00  0.00    +0.000 N 
ATOM      2  C   UNL     1       2.275   8.019  18.094  0.00  0.00    +0.000 C 
ATOM      3  C   UNL     1       1.550   8.500  19.312  0.00  0.00    +0.000 A 
ATOM      4  C   UNL     1       1.755   7.600  20.353  0.00  0.00    +0.000 A 
ATOM      5  C   UNL     1       1.189   7.744  21.605  0.00  0.00    +0.000 A 
ATOM      6  C   UNL     1       0.384   8.856  21.819  0.00  0.00    +0.000 A 
ATOM      7  C   UNL     1       0.168   9.785  20.785  0.00  0.00    +0.000 A 
ATOM      8  C   UNL     1       0.748   9.622  19.508  0.00  0.00    +0.000 A 
ATOM      9  C   UNL     1       2.598   6.508  19.870  0.00  0.00    +0.000 C 
ATOM     10  O   UNL     1       2.814   5.522  20.548  0.00  0.00    +0.000 OA
ENDROOT
BRANCH   1  12
ATOM     11  C   UNL     1       3.584   4.752  17.306  0.00  0.00    +0.000 C 
ATOM     12  C   UNL     1       3.732   6.033  17.716  0.00  0.00    +0.000 C 
ATOM     13  C   UNL     1       5.004   6.601  17.121  0.00  0.00    +0.000 C 
ATOM     14  C   UNL     1       5.538   5.445  16.332  0.00  0.00    +0.000 C 
ATOM     15  C   UNL     1       4.713   4.398  16.461  0.00  0.00    +0.000 C 
BRANCH  11  21
ATOM     16  C   UNL     1       4.203   2.613  19.306  0.00  0.00    +0.000 C 
ATOM     17  N   UNL     1       2.918   2.900  18.724  0.00  0.00    +0.000 N 
ATOM     18  C   UNL     1       1.767   2.208  18.954  0.00  0.00    +0.000 A 
ATOM     19  N   UNL     1       0.783   2.749  18.276  0.00  0.00    +0.000 NA
ATOM     20  N   UNL     1       1.310   3.792  17.547  0.00  0.00    +0.000 NA
ATOM     21  C   UNL     1       2.605   3.861  17.796  0.00  0.00    +0.000 A 
ENDBRANCH  11  21
ENDBRANCH   1  12
BRANCH   8  22
ATOM     22  C   UNL     1       0.495  10.637  18.420  0.00  0.00    +0.000 C 
ATOM     23  C   UNL     1      -0.281  11.835  18.942  0.00  0.00    +0.000 C 
ATOM     24  F   UNL     1       1.654  11.100  17.869  0.00  0.00    +0.000 F 
ATOM     25  F   UNL     1      -0.210  10.107  17.378  0.00  0.00    +0.000 F 
ENDBRANCH   8  22
TORSDOF 3
ENDMDL
MODEL 7
REMARK VINA RESULT:      -7.5      3.393      5.566
REMARK  Name = 
REMARK  5 active torsions:
REMARK  status: ('A' for Active; 'I' for Inactive)
REMARK    1  A    between atoms: C_1  and  N_2
REMARK    2  A    between atoms: C_6  and  C_7
REMARK    3  A    between atoms: C_8  and  N_9
REMARK    4  A    between atoms: C_16  and  C_17
REMARK    5  A    between atoms: C_17  and  C_18
REMARK                            x       y       z     vdW  Elec       q    Type
REMARK                         _______ _______ _______ _____ _____    ______ ____
ROOT
ATOM      1  N   UNL     1       3.074   6.801  18.955  0.00  0.00    +0.000 N 
ATOM      2  C   UNL     1       2.317   7.174  20.147  0.00  0.00    +0.000 C 
ATOM      3  C   UNL     1       1.548   8.383  19.712  0.00  0.00    +0.000 A 
ATOM      4  C   UNL     1       1.877   8.687  18.395  0.00  0.00    +0.000 A 
ATOM      5  C   UNL     1       1.358   9.770  17.713  0.00  0.00    +0.000 A 
ATOM      6  C   UNL     1       0.456  10.581  18.390  0.00  0.00    +0.000 A 
ATOM      7  C   UNL     1       0.101  10.290  19.720  0.00  0.00    +0.000 A 
ATOM      8  C   UNL     1       0.644   9.183  20.407  0.00  0.00    +0.000 A 
ATOM      9  C   UNL     1       2.863   7.717  17.922  0.00  0.00    +0.000 C 
ATOM     10  O   UNL     1       3.415   7.843  16.846  0.00  0.00    +0.000 OA
ENDROOT
BRANCH   1  12
ATOM     11  C   UNL     1       3.645   4.394  18.795  0.00  0.00    +0.000 C 
ATOM     12  C   UNL     1       3.922   5.712  18.926  0.00  0.00    +0.000 C 
ATOM     13  C   UNL     1       5.420   5.891  19.069  0.00  0.00    +0.000 C 
ATOM     14  C   UNL     1       5.924   4.482  19.006  0.00  0.00    +0.000 C 
ATOM     15  C   UNL     1       4.890   3.645  18.858  0.00  0.00    +0.000 C 
BRANCH  11  21
ATOM     16  C   UNL     1       2.240   3.630  21.325  0.00  0.00    +0.000 C 
ATOM     17  N   UNL     1       1.723   3.516  19.987  0.00  0.00    +0.000 N 
ATOM     18  C   UNL     1       0.513   2.993  19.642  0.00  0.00    +0.000 A 
ATOM     19  N   UNL     1       0.357   3.059  18.341  0.00  0.00    +0.000 NA
ATOM     20  N   UNL     1       1.511   3.597  17.815  0.00  0.00    +0.000 NA
ATOM     21  C   UNL     1       2.346   3.842  18.809  0.00  0.00    +0.000 A 
ENDBRANCH  11  21
ENDBRANCH   1  12
BRANCH   8  22
ATOM     22  C   UNL     1       0.242   8.899  21.834  0.00  0.00    +0.000 C 
ATOM     23  C   UNL     1      -0.458  10.091  22.466  0.00  0.00    +0.000 C 
ATOM     24  F   UNL     1      -0.597   7.826  21.929  0.00  0.00    +0.000 F 
ATOM     25  F   UNL     1       1.315   8.584  22.617  0.00  0.00    +0.000 F 
ENDBRANCH   8  22
TORSDOF 3
ENDMDL
MODEL 8
REMARK VINA RESULT:      -7.5      3.337      4.885
REMARK  Name = 
REMARK  5 active torsions:
REMARK  status: ('A' for Active; 'I' for Inactive)
REMARK    1  A    between atoms: C_1  and  N_2
REMARK    2  A    between atoms: C_6  and  C_7
REMARK    3  A    between atoms: C_8  and  N_9
REMARK    4  A    between atoms: C_16  and  C_17
REMARK    5  A    between atoms: C_17  and  C_18
REMARK                            x       y       z     vdW  Elec       q    Type
REMARK                         _______ _______ _______ _____ _____    ______ ____
ROOT
ATOM      1  N   UNL     1       2.385   5.855  19.031  0.00  0.00    +0.000 N 
ATOM      2  C   UNL     1       2.136   7.132  18.368  0.00  0.00    +0.000 C 
ATOM      3  C   UNL     1       1.717   8.034  19.486  0.00  0.00    +0.000 A 
ATOM      4  C   UNL     1       1.693   7.313  20.675  0.00  0.00    +0.000 A 
ATOM      5  C   UNL     1       1.314   7.856  21.887  0.00  0.00    +0.000 A 
ATOM      6  C   UNL     1       0.949   9.196  21.901  0.00  0.00    +0.000 A 
ATOM      7  C   UNL     1       0.972   9.950  20.713  0.00  0.00    +0.000 A 
ATOM      8  C   UNL     1       1.356   9.380  19.480  0.00  0.00    +0.000 A 
ATOM      9  C   UNL     1       2.079   5.931  20.392  0.00  0.00    +0.000 C 
ATOM     10  O   UNL     1       2.008   5.063  21.241  0.00  0.00    +0.000 OA
ENDROOT
BRANCH   1  12
ATOM     11  C   UNL     1       4.049   4.219  18.193  0.00  0.00    +0.000 C 
ATOM     12  C   UNL     1       2.806   4.732  18.346  0.00  0.00    +0.000 C 
ATOM     13  C   UNL     1       1.817   3.865  17.596  0.00  0.00    +0.000 C 
ATOM     14  C   UNL     1       2.695   2.808  17.002  0.00  0.00    +0.000 C 
ATOM     15  C   UNL     1       3.968   3.037  17.350  0.00  0.00    +0.000 C 
BRANCH  11  21
ATOM     16  C   UNL     1       5.436   6.298  16.545  0.00  0.00    +0.000 C 
ATOM     17  N   UNL     1       5.841   5.817  17.840  0.00  0.00    +0.000 N 
ATOM     18  C   UNL     1       6.960   6.198  18.517  0.00  0.00    +0.000 A 
ATOM     19  N   UNL     1       7.012   5.576  19.671  0.00  0.00    +0.000 NA
ATOM     20  N   UNL     1       5.925   4.732  19.733  0.00  0.00    +0.000 NA
ATOM     21  C   UNL     1       5.237   4.857  18.612  0.00  0.00    +0.000 A 
ENDBRANCH  11  21
ENDBRANCH   1  12
BRANCH   8  22
ATOM     22  C   UNL     1       1.369  10.217  18.224  0.00  0.00    +0.000 C 
ATOM     23  C   UNL     1       1.216  11.697  18.536  0.00  0.00    +0.000 C 
ATOM     24  F   UNL     1       2.523  10.059  17.512  0.00  0.00    +0.000 F 
ATOM     25  F   UNL     1       0.368   9.867  17.364  0.00  0.00    +0.000 F 
ENDBRANCH   8  22
TORSDOF 3
ENDMDL
MODEL 9
REMARK VINA RESULT:      -7.3      2.733      3.811
REMARK  Name = 
REMARK  5 active torsions:
REMARK  status: ('A' for Active; 'I' for Inactive)
REMARK    1  A    between atoms: C_1  and  N_2
REMARK    2  A    between atoms: C_6  and  C_7
REMARK    3  A    between atoms: C_8  and  N_9
REMARK    4  A    between atoms: C_16  and  C_17
REMARK    5  A    between atoms: C_17  and  C_18
REMARK                            x       y       z     vdW  Elec       q    Type
REMARK                         _______ _______ _______ _____ _____    ______ ____
ROOT
ATOM      1  N   UNL     1       4.291   5.849  17.508  0.00  0.00    +0.000 N 
ATOM      2  C   UNL     1       3.603   7.134  17.413  0.00  0.00    +0.000 C 
ATOM      3  C   UNL     1       2.744   7.165  18.639  0.00  0.00    +0.000 A 
ATOM      4  C   UNL     1       2.907   5.977  19.344  0.00  0.00    +0.000 A 
ATOM      5  C   UNL     1       2.224   5.684  20.509  0.00  0.00    +0.000 A 
ATOM      6  C   UNL     1       1.340   6.642  20.990  0.00  0.00    +0.000 A 
ATOM      7  C   UNL     1       1.163   7.855  20.299  0.00  0.00    +0.000 A 
ATOM      8  C   UNL     1       1.863   8.138  19.106  0.00  0.00    +0.000 A 
ATOM      9  C   UNL     1       3.852   5.128  18.622  0.00  0.00    +0.000 C 
ATOM     10  O   UNL     1       4.064   3.979  18.959  0.00  0.00    +0.000 OA
ENDROOT
BRANCH   1  12
ATOM     11  C   UNL     1       6.520   5.148  16.680  0.00  0.00    +0.000 C 
ATOM     12  C   UNL     1       5.200   5.422  16.560  0.00  0.00    +0.000 C 
ATOM     13  C   UNL     1       4.777   5.207  15.122  0.00  0.00    +0.000 C 
ATOM     14  C   UNL     1       6.056   4.783  14.467  0.00  0.00    +0.000 C 
ATOM     15  C   UNL     1       7.038   4.765  15.377  0.00  0.00    +0.000 C 
BRANCH  11  21
ATOM     16  C   UNL     1       7.437   7.893  17.444  0.00  0.00    +0.000 C 
ATOM     17  N   UNL     1       7.683   6.672  18.166  0.00  0.00    +0.000 N 
ATOM     18  C   UNL     1       8.421   6.555  19.306  0.00  0.00    +0.000 A 
ATOM     19  N   UNL     1       8.425   5.306  19.704  0.00  0.00    +0.000 NA
ATOM     20  N   UNL     1       7.710   4.577  18.780  0.00  0.00    +0.000 NA
ATOM     21  C   UNL     1       7.290   5.400  17.836  0.00  0.00    +0.000 A 
ENDBRANCH  11  21
ENDBRANCH   1  12
BRANCH   8  22
ATOM     22  C   UNL     1       1.650   9.449  18.390  0.00  0.00    +0.000 C 
ATOM     23  C   UNL     1       1.011  10.486  19.299  0.00  0.00    +0.000 C 
ATOM     24  F   UNL     1       2.818   9.974  17.918  0.00  0.00    +0.000 F 
ATOM     25  F   UNL     1       0.852   9.310  17.291  0.00  0.00    +0.000 F 
ENDBRANCH   8  22
TORSDOF 3
ENDMDL
