MODEL 1
REMARK VINA RESULT:      -8.3      0.000      0.000
REMARK  Name = 
REMARK  3 active torsions:
REMARK  status: ('A' for Active; 'I' for Inactive)
REMARK    1  A    between atoms: C_2  and  C_14
REMARK    2  A    between atoms: N_3  and  C_4
REMARK    3  A    between atoms: C_17  and  C_18
REMARK                            x       y       z     vdW  Elec       q    Type
REMARK                         _______ _______ _______ _____ _____    ______ ____
ROOT
ATOM      1  O   UNL     1       1.159   9.240  18.010  0.00  0.00    +0.000 OA
ATOM      2  C   UNL     1       1.290   8.973  19.202  0.00  0.00    +0.000 C 
ATOM      3  N   UNL     1       1.941   7.858  19.693  0.00  0.00    +0.000 N 
ATOM      4  H   UNL     1       1.904   7.698  20.701  0.00  0.00    +0.000 HD
ENDROOT
BRANCH   3   5
ATOM      5  C   UNL     1       2.543   6.852  18.901  0.00  0.00    +0.000 A 
ATOM      6  C   UNL     1       2.320   5.490  19.070  0.00  0.00    +0.000 A 
ATOM      7  N   UNL     1       2.930   4.514  18.357  0.00  0.00    +0.000 NA
ATOM      8  C   UNL     1       3.826   4.882  17.435  0.00  0.00    +0.000 A 
ATOM      9  C   UNL     1       4.502   3.892  16.738  0.00  0.00    +0.000 A 
ATOM     10  C   UNL     1       5.468   4.204  15.780  0.00  0.00    +0.000 A 
ATOM     11  C   UNL     1       5.759   5.535  15.503  0.00  0.00    +0.000 A 
ATOM     12  C   UNL     1       5.085   6.551  16.184  0.00  0.00    +0.000 A 
ATOM     13  C   UNL     1       4.117   6.235  17.157  0.00  0.00    +0.000 A 
ATOM     14  C   UNL     1       3.437   7.224  17.897  0.00  0.00    +0.000 A 
ENDBRANCH   3   5
BRANCH   2  15
ATOM     15  C   UNL     1       0.651   9.853  20.225  0.00  0.00    +0.000 A 
ATOM     16  C   UNL     1       0.756  11.187  20.056  0.00  0.00    +0.000 A 
ATOM     17  C   UNL     1       0.086  12.118  20.934  0.00  0.00    +0.000 A 
ATOM     18  C   UNL     1      -0.665  11.652  21.942  0.00  0.00    +0.000 A 
ATOM     19  N   UNL     1      -0.755  10.300  22.164  0.00  0.00    +0.000 N 
ATOM     20  C   UNL     1      -0.137   9.351  21.386  0.00  0.00    +0.000 A 
ATOM     21  O   UNL     1      -0.250   8.150  21.622  0.00  0.00    +0.000 OA
ATOM     22  H   UNL     1      -1.314   9.964  22.937  0.00  0.00    +0.000 HD
BRANCH  18  23
ATOM     23  C   UNL     1      -1.447  12.542  22.802  0.00  0.00    +0.000 A 
ATOM     24  C   UNL     1      -0.923  13.790  23.161  0.00  0.00    +0.000 A 
ATOM     25  C   UNL     1      -1.670  14.667  23.949  0.00  0.00    +0.000 A 
ATOM     26  C   UNL     1      -2.942  14.298  24.385  0.00  0.00    +0.000 A 
ATOM     27  C   UNL     1      -3.465  13.052  24.038  0.00  0.00    +0.000 A 
ATOM     28  C   UNL     1      -2.720  12.173  23.250  0.00  0.00    +0.000 A 
ENDBRANCH  18  23
ENDBRANCH   2  15
TORSDOF 3
ENDMDL
MODEL 2
REMARK VINA RESULT:      -8.2      1.489      2.259
REMARK  Name = 
REMARK  3 active torsions:
REMARK  status: ('A' for Active; 'I' for Inactive)
REMARK    1  A    between atoms: C_2  and  C_14
REMARK    2  A    between atoms: N_3  and  C_4
REMARK    3  A    between atoms: C_17  and  C_18
REMARK                            x       y       z     vdW  Elec       q    Type
REMARK                         _______ _______ _______ _____ _____    ______ ____
ROOT
ATOM      1  O   UNL     1       1.300   9.084  18.925  0.00  0.00    +0.000 OA
ATOM      2  C   UNL     1       1.197   8.831  20.123  0.00  0.00    +0.000 C 
ATOM      3  N   UNL     1       1.610   7.655  20.719  0.00  0.00    +0.000 N 
ATOM      4  H   UNL     1       1.387   7.526  21.707  0.00  0.00    +0.000 HD
ENDROOT
BRANCH   3   5
ATOM      5  C   UNL     1       2.200   6.564  20.041  0.00  0.00    +0.000 A 
ATOM      6  C   UNL     1       3.246   6.684  19.132  0.00  0.00    +0.000 A 
ATOM      7  N   UNL     1       3.784   5.655  18.434  0.00  0.00    +0.000 NA
ATOM      8  C   UNL     1       3.261   4.438  18.616  0.00  0.00    +0.000 A 
ATOM      9  C   UNL     1       3.762   3.385  17.864  0.00  0.00    +0.000 A 
ATOM     10  C   UNL     1       3.247   2.093  17.983  0.00  0.00    +0.000 A 
ATOM     11  C   UNL     1       2.216   1.843  18.881  0.00  0.00    +0.000 A 
ATOM     12  C   UNL     1       1.701   2.884  19.657  0.00  0.00    +0.000 A 
ATOM     13  C   UNL     1       2.214   4.189  19.529  0.00  0.00    +0.000 A 
ATOM     14  C   UNL     1       1.703   5.279  20.262  0.00  0.00    +0.000 A 
ENDBRANCH   3   5
BRANCH   2  15
ATOM     15  C   UNL     1       0.516   9.810  21.023  0.00  0.00    +0.000 A 
ATOM     16  C   UNL     1       0.736  11.122  20.800  0.00  0.00    +0.000 A 
ATOM     17  C   UNL     1       0.044  12.145  21.549  0.00  0.00    +0.000 A 
ATOM     18  C   UNL     1      -0.844  11.789  22.489  0.00  0.00    +0.000 A 
ATOM     19  N   UNL     1      -1.055  10.461  22.767  0.00  0.00    +0.000 N 
ATOM     20  C   UNL     1      -0.427   9.429  22.112  0.00  0.00    +0.000 A 
ATOM     21  O   UNL     1      -0.652   8.254  22.392  0.00  0.00    +0.000 OA
ATOM     22  H   UNL     1      -1.718  10.208  23.488  0.00  0.00    +0.000 HD
BRANCH  18  23
ATOM     23  C   UNL     1      -1.648  12.777  23.209  0.00  0.00    +0.000 A 
ATOM     24  C   UNL     1      -1.081  14.012  23.551  0.00  0.00    +0.000 A 
ATOM     25  C   UNL     1      -1.844  14.980  24.205  0.00  0.00    +0.000 A 
ATOM     26  C   UNL     1      -3.175  14.716  24.525  0.00  0.00    +0.000 A 
ATOM     27  C   UNL     1      -3.742  13.485  24.196  0.00  0.00    +0.000 A 
ATOM     28  C   UNL     1      -2.982  12.514  23.542  0.00  0.00    +0.000 A 
ENDBRANCH  18  23
ENDBRANCH   2  15
TORSDOF 3
ENDMDL
MODEL 3
REMARK VINA RESULT:      -8.2      1.207      1.336
REMARK  Name = 
REMARK  3 active torsions:
REMARK  status: ('A' for Active; 'I' for Inactive)
REMARK    1  A    between atoms: C_2  and  C_14
REMARK    2  A    between atoms: N_3  and  C_4
REMARK    3  A    between atoms: C_17  and  C_18
REMARK                            x       y       z     vdW  Elec       q    Type
REMARK                         _______ _______ _______ _____ _____    ______ ____
ROOT
ATOM      1  O   UNL     1       2.002   9.460  17.387  0.00  0.00    +0.000 OA
ATOM      2  C   UNL     1       1.683   9.046  18.499  0.00  0.00    +0.000 C 
ATOM      3  N   UNL     1       2.007   7.799  18.998  0.00  0.00    +0.000 N 
ATOM      4  H   UNL     1       1.606   7.536  19.900  0.00  0.00    +0.000 HD
ENDROOT
BRANCH   3   5
ATOM      5  C   UNL     1       2.739   6.810  18.304  0.00  0.00    +0.000 A 
ATOM      6  C   UNL     1       2.322   5.491  18.157  0.00  0.00    +0.000 A 
ATOM      7  N   UNL     1       3.038   4.519  17.542  0.00  0.00    +0.000 NA
ATOM      8  C   UNL     1       4.241   4.843  17.058  0.00  0.00    +0.000 A 
ATOM      9  C   UNL     1       5.011   3.845  16.479  0.00  0.00    +0.000 A 
ATOM     10  C   UNL     1       6.286   4.106  15.975  0.00  0.00    +0.000 A 
ATOM     11  C   UNL     1       6.802   5.395  16.040  0.00  0.00    +0.000 A 
ATOM     12  C   UNL     1       6.042   6.420  16.609  0.00  0.00    +0.000 A 
ATOM     13  C   UNL     1       4.760   6.154  17.126  0.00  0.00    +0.000 A 
ATOM     14  C   UNL     1       3.971   7.146  17.743  0.00  0.00    +0.000 A 
ENDBRANCH   3   5
BRANCH   2  15
ATOM     15  C   UNL     1       0.822   9.893  19.377  0.00  0.00    +0.000 A 
ATOM     16  C   UNL     1       0.044  10.821  18.784  0.00  0.00    +0.000 A 
ATOM     17  C   UNL     1      -0.897  11.616  19.536  0.00  0.00    +0.000 A 
ATOM     18  C   UNL     1      -1.009  11.431  20.860  0.00  0.00    +0.000 A 
ATOM     19  N   UNL     1      -0.199  10.524  21.498  0.00  0.00    +0.000 N 
ATOM     20  C   UNL     1       0.731   9.741  20.857  0.00  0.00    +0.000 A 
ATOM     21  O   UNL     1       1.432   8.939  21.470  0.00  0.00    +0.000 OA
ATOM     22  H   UNL     1      -0.285  10.405  22.498  0.00  0.00    +0.000 HD
BRANCH  18  23
ATOM     23  C   UNL     1      -2.014  12.134  21.659  0.00  0.00    +0.000 A 
ATOM     24  C   UNL     1      -2.816  13.111  21.054  0.00  0.00    +0.000 A 
ATOM     25  C   UNL     1      -3.804  13.765  21.791  0.00  0.00    +0.000 A 
ATOM     26  C   UNL     1      -3.991  13.450  23.137  0.00  0.00    +0.000 A 
ATOM     27  C   UNL     1      -3.188  12.486  23.746  0.00  0.00    +0.000 A 
ATOM     28  C   UNL     1      -2.199  11.829  23.012  0.00  0.00    +0.000 A 
ENDBRANCH  18  23
ENDBRANCH   2  15
TORSDOF 3
ENDMDL
MODEL 4
REMARK VINA RESULT:      -8.1      1.382      9.824
REMARK  Name = 
REMARK  3 active torsions:
REMARK  status: ('A' for Active; 'I' for Inactive)
REMARK    1  A    between atoms: C_2  and  C_14
REMARK    2  A    between atoms: N_3  and  C_4
REMARK    3  A    between atoms: C_17  and  C_18
REMARK                            x       y       z     vdW  Elec       q    Type
REMARK                         _______ _______ _______ _____ _____    ______ ____
ROOT
ATOM      1  O   UNL     1      -0.532  10.842  19.043  0.00  0.00    +0.000 OA
ATOM      2  C   UNL     1       0.219  10.307  19.855  0.00  0.00    +0.000 C 
ATOM      3  N   UNL     1       0.364  10.699  21.172  0.00  0.00    +0.000 N 
ATOM      4  H   UNL     1       1.088  10.234  21.723  0.00  0.00    +0.000 HD
ENDROOT
BRANCH   3   5
ATOM      5  C   UNL     1      -0.316  11.780  21.778  0.00  0.00    +0.000 A 
ATOM      6  C   UNL     1       0.156  13.089  21.792  0.00  0.00    +0.000 A 
ATOM      7  N   UNL     1      -0.457  14.123  22.416  0.00  0.00    +0.000 NA
ATOM      8  C   UNL     1      -1.587  13.868  23.083  0.00  0.00    +0.000 A 
ATOM      9  C   UNL     1      -2.194  14.905  23.776  0.00  0.00    +0.000 A 
ATOM     10  C   UNL     1      -3.361  14.705  24.514  0.00  0.00    +0.000 A 
ATOM     11  C   UNL     1      -3.943  13.443  24.554  0.00  0.00    +0.000 A 
ATOM     12  C   UNL     1      -3.357  12.384  23.856  0.00  0.00    +0.000 A 
ATOM     13  C   UNL     1      -2.175  12.585  23.120  0.00  0.00    +0.000 A 
ATOM     14  C   UNL     1      -1.526  11.540  22.430  0.00  0.00    +0.000 A 
ENDBRANCH   3   5
BRANCH   2  15
ATOM     15  C   UNL     1       1.109   9.194  19.408  0.00  0.00    +0.000 A 
ATOM     16  C   UNL     1       1.536   9.210  18.129  0.00  0.00    +0.000 A 
ATOM     17  C   UNL     1       2.480   8.237  17.632  0.00  0.00    +0.000 A 
ATOM     18  C   UNL     1       2.953   7.293  18.458  0.00  0.00    +0.000 A 
ATOM     19  N   UNL     1       2.504   7.226  19.754  0.00  0.00    +0.000 N 
ATOM     20  C   UNL     1       1.597   8.103  20.299  0.00  0.00    +0.000 A 
ATOM     21  O   UNL     1       1.226   8.006  21.466  0.00  0.00    +0.000 OA
ATOM     22  H   UNL     1       2.859   6.500  20.362  0.00  0.00    +0.000 HD
BRANCH  18  23
ATOM     23  C   UNL     1       3.986   6.343  18.041  0.00  0.00    +0.000 A 
ATOM     24  C   UNL     1       4.629   6.521  16.809  0.00  0.00    +0.000 A 
ATOM     25  C   UNL     1       5.642   5.647  16.411  0.00  0.00    +0.000 A 
ATOM     26  C   UNL     1       6.012   4.589  17.240  0.00  0.00    +0.000 A 
ATOM     27  C   UNL     1       5.368   4.402  18.463  0.00  0.00    +0.000 A 
ATOM     28  C   UNL     1       4.355   5.274  18.864  0.00  0.00    +0.000 A 
ENDBRANCH  18  23
ENDBRANCH   2  15
TORSDOF 3
ENDMDL
MODEL 5
REMARK VINA RESULT:      -7.9      1.078      1.633
REMARK  Name = 
REMARK  3 active torsions:
REMARK  status: ('A' for Active; 'I' for Inactive)
REMARK    1  A    between atoms: C_2  and  C_14
REMARK    2  A    between atoms: N_3  and  C_4
REMARK    3  A    between atoms: C_17  and  C_18
REMARK                            x       y       z     vdW  Elec       q    Type
REMARK                         _______ _______ _______ _____ _____    ______ ____
ROOT
ATOM      1  O   UNL     1       1.881   6.894  21.143  0.00  0.00    +0.000 OA
ATOM      2  C   UNL     1       1.519   7.769  20.361  0.00  0.00    +0.000 C 
ATOM      3  N   UNL     1       1.850   7.814  19.020  0.00  0.00    +0.000 N 
ATOM      4  H   UNL     1       1.564   8.642  18.494  0.00  0.00    +0.000 HD
ENDROOT
BRANCH   3   5
ATOM      5  C   UNL     1       2.663   6.871  18.351  0.00  0.00    +0.000 A 
ATOM      6  C   UNL     1       2.312   5.539  18.157  0.00  0.00    +0.000 A 
ATOM      7  N   UNL     1       3.102   4.610  17.567  0.00  0.00    +0.000 NA
ATOM      8  C   UNL     1       4.316   4.995  17.158  0.00  0.00    +0.000 A 
ATOM      9  C   UNL     1       5.160   4.041  16.607  0.00  0.00    +0.000 A 
ATOM     10  C   UNL     1       6.449   4.366  16.182  0.00  0.00    +0.000 A 
ATOM     11  C   UNL     1       6.904   5.674  16.300  0.00  0.00    +0.000 A 
ATOM     12  C   UNL     1       6.070   6.655  16.843  0.00  0.00    +0.000 A 
ATOM     13  C   UNL     1       4.773   6.324  17.280  0.00  0.00    +0.000 A 
ATOM     14  C   UNL     1       3.909   7.270  17.868  0.00  0.00    +0.000 A 
ENDBRANCH   3   5
BRANCH   2  15
ATOM     15  C   UNL     1       0.722   8.925  20.871  0.00  0.00    +0.000 A 
ATOM     16  C   UNL     1       0.026   8.749  22.013  0.00  0.00    +0.000 A 
ATOM     17  C   UNL     1      -0.691   9.835  22.639  0.00  0.00    +0.000 A 
ATOM     18  C   UNL     1      -0.665  11.054  22.080  0.00  0.00    +0.000 A 
ATOM     19  N   UNL     1      -0.000  11.252  20.894  0.00  0.00    +0.000 N 
ATOM     20  C   UNL     1       0.692  10.269  20.228  0.00  0.00    +0.000 A 
ATOM     21  O   UNL     1       1.275  10.494  19.170  0.00  0.00    +0.000 OA
ATOM     22  H   UNL     1      -0.001  12.173  20.477  0.00  0.00    +0.000 HD
BRANCH  18  23
ATOM     23  C   UNL     1      -1.286  12.214  22.720  0.00  0.00    +0.000 A 
ATOM     24  C   UNL     1      -0.600  13.436  22.750  0.00  0.00    +0.000 A 
ATOM     25  C   UNL     1      -1.193  14.562  23.322  0.00  0.00    +0.000 A 
ATOM     26  C   UNL     1      -2.471  14.470  23.872  0.00  0.00    +0.000 A 
ATOM     27  C   UNL     1      -3.154  13.255  23.854  0.00  0.00    +0.000 A 
ATOM     28  C   UNL     1      -2.565  12.126  23.282  0.00  0.00    +0.000 A 
ENDBRANCH  18  23
ENDBRANCH   2  15
TORSDOF 3
ENDMDL
MODEL 6
REMARK VINA RESULT:      -7.9      1.445      9.819
REMARK  Name = 
REMARK  3 active torsions:
REMARK  status: ('A' for Active; 'I' for Inactive)
REMARK    1  A    between atoms: C_2  and  C_14
REMARK    2  A    between atoms: N_3  and  C_4
REMARK    3  A    between atoms: C_17  and  C_18
REMARK                            x       y       z     vdW  Elec       q    Type
REMARK                         _______ _______ _______ _____ _____    ______ ____
ROOT
ATOM      1  O   UNL     1       0.645   7.432  21.321  0.00  0.00    +0.000 OA
ATOM      2  C   UNL     1       1.247   8.153  20.528  0.00  0.00    +0.000 C 
ATOM      3  N   UNL     1       1.059   9.516  20.404  0.00  0.00    +0.000 N 
ATOM      4  H   UNL     1       1.552   9.991  19.645  0.00  0.00    +0.000 HD
ENDROOT
BRANCH   3   5
ATOM      5  C   UNL     1       0.140  10.283  21.157  0.00  0.00    +0.000 A 
ATOM      6  C   UNL     1      -0.022  10.172  22.534  0.00  0.00    +0.000 A 
ATOM      7  N   UNL     1      -0.935  10.859  23.262  0.00  0.00    +0.000 NA
ATOM      8  C   UNL     1      -1.754  11.691  22.609  0.00  0.00    +0.000 A 
ATOM      9  C   UNL     1      -2.733  12.356  23.332  0.00  0.00    +0.000 A 
ATOM     10  C   UNL     1      -3.637  13.219  22.712  0.00  0.00    +0.000 A 
ATOM     11  C   UNL     1      -3.557  13.433  21.341  0.00  0.00    +0.000 A 
ATOM     12  C   UNL     1      -2.574  12.782  20.592  0.00  0.00    +0.000 A 
ATOM     13  C   UNL     1      -1.668  11.904  21.216  0.00  0.00    +0.000 A 
ATOM     14  C   UNL     1      -0.682  11.196  20.498  0.00  0.00    +0.000 A 
ENDBRANCH   3   5
BRANCH   2  15
ATOM     15  C   UNL     1       2.206   7.540  19.562  0.00  0.00    +0.000 A 
ATOM     16  C   UNL     1       2.742   6.345  19.886  0.00  0.00    +0.000 A 
ATOM     17  C   UNL     1       3.599   5.626  18.973  0.00  0.00    +0.000 A 
ATOM     18  C   UNL     1       3.870   6.150  17.769  0.00  0.00    +0.000 A 
ATOM     19  N   UNL     1       3.374   7.385  17.429  0.00  0.00    +0.000 N 
ATOM     20  C   UNL     1       2.566   8.139  18.245  0.00  0.00    +0.000 A 
ATOM     21  O   UNL     1       2.142   9.238  17.897  0.00  0.00    +0.000 OA
ATOM     22  H   UNL     1       3.598   7.774  16.523  0.00  0.00    +0.000 HD
BRANCH  18  23
ATOM     23  C   UNL     1       4.648   5.424  16.764  0.00  0.00    +0.000 A 
ATOM     24  C   UNL     1       5.265   6.132  15.724  0.00  0.00    +0.000 A 
ATOM     25  C   UNL     1       6.041   5.460  14.779  0.00  0.00    +0.000 A 
ATOM     26  C   UNL     1       6.199   4.078  14.865  0.00  0.00    +0.000 A 
ATOM     27  C   UNL     1       5.579   3.366  15.892  0.00  0.00    +0.000 A 
ATOM     28  C   UNL     1       4.802   4.035  16.840  0.00  0.00    +0.000 A 
ENDBRANCH  18  23
ENDBRANCH   2  15
TORSDOF 3
ENDMDL
MODEL 7
REMARK VINA RESULT:      -7.9      1.838      2.610
REMARK  Name = 
REMARK  3 active torsions:
REMARK  status: ('A' for Active; 'I' for Inactive)
REMARK    1  A    between atoms: C_2  and  C_14
REMARK    2  A    between atoms: N_3  and  C_4
REMARK    3  A    between atoms: C_17  and  C_18
REMARK                            x       y       z     vdW  Elec       q    Type
REMARK                         _______ _______ _______ _____ _____    ______ ____
ROOT
ATOM      1  O   UNL     1       1.760   8.835  18.739  0.00  0.00    +0.000 OA
ATOM      2  C   UNL     1       1.368   8.634  19.887  0.00  0.00    +0.000 C 
ATOM      3  N   UNL     1       1.551   7.458  20.588  0.00  0.00    +0.000 N 
ATOM      4  H   UNL     1       1.099   7.380  21.500  0.00  0.00    +0.000 HD
ENDROOT
BRANCH   3   5
ATOM      5  C   UNL     1       2.203   6.306  20.089  0.00  0.00    +0.000 A 
ATOM      6  C   UNL     1       3.478   6.312  19.534  0.00  0.00    +0.000 A 
ATOM      7  N   UNL     1       4.093   5.229  19.002  0.00  0.00    +0.000 NA
ATOM      8  C   UNL     1       3.420   4.073  18.990  0.00  0.00    +0.000 A 
ATOM      9  C   UNL     1       4.014   2.970  18.395  0.00  0.00    +0.000 A 
ATOM     10  C   UNL     1       3.360   1.739  18.325  0.00  0.00    +0.000 A 
ATOM     11  C   UNL     1       2.088   1.602  18.870  0.00  0.00    +0.000 A 
ATOM     12  C   UNL     1       1.473   2.696  19.484  0.00  0.00    +0.000 A 
ATOM     13  C   UNL     1       2.130   3.940  19.546  0.00  0.00    +0.000 A 
ATOM     14  C   UNL     1       1.536   5.082  20.121  0.00  0.00    +0.000 A 
ENDBRANCH   3   5
BRANCH   2  15
ATOM     15  C   UNL     1       0.569   9.686  20.583  0.00  0.00    +0.000 A 
ATOM     16  C   UNL     1      -0.263  10.439  19.834  0.00  0.00    +0.000 A 
ATOM     17  C   UNL     1      -1.150  11.410  20.429  0.00  0.00    +0.000 A 
ATOM     18  C   UNL     1      -1.157  11.571  21.760  0.00  0.00    +0.000 A 
ATOM     19  N   UNL     1      -0.290  10.850  22.544  0.00  0.00    +0.000 N 
ATOM     20  C   UNL     1       0.595   9.919  22.055  0.00  0.00    +0.000 A 
ATOM     21  O   UNL     1       1.350   9.294  22.797  0.00  0.00    +0.000 OA
ATOM     22  H   UNL     1      -0.297  10.992  23.545  0.00  0.00    +0.000 HD
BRANCH  18  23
ATOM     23  C   UNL     1      -2.104  12.465  22.428  0.00  0.00    +0.000 A 
ATOM     24  C   UNL     1      -2.842  11.996  23.523  0.00  0.00    +0.000 A 
ATOM     25  C   UNL     1      -3.721  12.845  24.196  0.00  0.00    +0.000 A 
ATOM     26  C   UNL     1      -3.871  14.166  23.773  0.00  0.00    +0.000 A 
ATOM     27  C   UNL     1      -3.146  14.635  22.678  0.00  0.00    +0.000 A 
ATOM     28  C   UNL     1      -2.265  13.788  22.003  0.00  0.00    +0.000 A 
ENDBRANCH  18  23
ENDBRANCH   2  15
TORSDOF 3
ENDMDL
MODEL 8
REMARK VINA RESULT:      -7.8      1.515      9.851
REMARK  Name = 
REMARK  3 active torsions:
REMARK  status: ('A' for Active; 'I' for Inactive)
REMARK    1  A    between atoms: C_2  and  C_14
REMARK    2  A    between atoms: N_3  and  C_4
REMARK    3  A    between atoms: C_17  and  C_18
REMARK                            x       y       z     vdW  Elec       q    Type
REMARK                         _______ _______ _______ _____ _____    ______ ____
ROOT
ATOM      1  O   UNL     1      -0.413   8.515  21.577  0.00  0.00    +0.000 OA
ATOM      2  C   UNL     1       0.287   9.165  20.804  0.00  0.00    +0.000 C 
ATOM      3  N   UNL     1       0.180  10.527  20.600  0.00  0.00    +0.000 N 
ATOM      4  H   UNL     1       0.756  10.938  19.864  0.00  0.00    +0.000 HD
ENDROOT
BRANCH   3   5
ATOM      5  C   UNL     1      -0.755  11.374  21.238  0.00  0.00    +0.000 A 
ATOM      6  C   UNL     1      -0.708  11.710  22.587  0.00  0.00    +0.000 A 
ATOM      7  N   UNL     1      -1.627  12.475  23.225  0.00  0.00    +0.000 NA
ATOM      8  C   UNL     1      -2.666  12.925  22.512  0.00  0.00    +0.000 A 
ATOM      9  C   UNL     1      -3.645  13.659  23.165  0.00  0.00    +0.000 A 
ATOM     10  C   UNL     1      -4.769  14.138  22.490  0.00  0.00    +0.000 A 
ATOM     11  C   UNL     1      -4.914  13.889  21.130  0.00  0.00    +0.000 A 
ATOM     12  C   UNL     1      -3.936  13.160  20.448  0.00  0.00    +0.000 A 
ATOM     13  C   UNL     1      -2.808  12.669  21.132  0.00  0.00    +0.000 A 
ATOM     14  C   UNL     1      -1.813  11.898  20.496  0.00  0.00    +0.000 A 
ENDBRANCH   3   5
BRANCH   2  15
ATOM     15  C   UNL     1       1.288   8.459  19.950  0.00  0.00    +0.000 A 
ATOM     16  C   UNL     1       1.824   7.317  20.429  0.00  0.00    +0.000 A 
ATOM     17  C   UNL     1       2.722   6.510  19.637  0.00  0.00    +0.000 A 
ATOM     18  C   UNL     1       3.032   6.895  18.391  0.00  0.00    +0.000 A 
ATOM     19  N   UNL     1       2.535   8.075  17.893  0.00  0.00    +0.000 N 
ATOM     20  C   UNL     1       1.690   8.906  18.587  0.00  0.00    +0.000 A 
ATOM     21  O   UNL     1       1.267   9.951  18.098  0.00  0.00    +0.000 OA
ATOM     22  H   UNL     1       2.789   8.359  16.956  0.00  0.00    +0.000 HD
BRANCH  18  23
ATOM     23  C   UNL     1       3.854   6.069  17.506  0.00  0.00    +0.000 A 
ATOM     24  C   UNL     1       3.685   4.678  17.506  0.00  0.00    +0.000 A 
ATOM     25  C   UNL     1       4.433   3.878  16.642  0.00  0.00    +0.000 A 
ATOM     26  C   UNL     1       5.358   4.464  15.778  0.00  0.00    +0.000 A 
ATOM     27  C   UNL     1       5.538   5.846  15.781  0.00  0.00    +0.000 A 
ATOM     28  C   UNL     1       4.790   6.650  16.643  0.00  0.00    +0.000 A 
ENDBRANCH  18  23
ENDBRANCH   2  15
TORSDOF 3
ENDMDL
MODEL 9
REMARK VINA RESULT:      -7.8      1.747      9.933
REMARK  Name = 
REMARK  3 active torsions:
REMARK  status: ('A' for Active; 'I' for Inactive)
REMARK    1  A    between atoms: C_2  and  C_14
REMARK    2  A    between atoms: N_3  and  C_4
REMARK    3  A    between atoms: C_17  and  C_18
REMARK                            x       y       z     vdW  Elec       q    Type
REMARK                         _______ _______ _______ _____ _____    ______ ____
ROOT
ATOM      1  O   UNL     1       1.277  11.517  21.201  0.00  0.00    +0.000 OA
ATOM      2  C   UNL     1       0.573  10.828  20.466  0.00  0.00    +0.000 C 
ATOM      3  N   UNL     1      -0.764  11.064  20.208  0.00  0.00    +0.000 N 
ATOM      4  H   UNL     1      -1.264  10.368  19.653  0.00  0.00    +0.000 HD
ENDROOT
BRANCH   3   5
ATOM      5  C   UNL     1      -1.524  12.121  20.758  0.00  0.00    +0.000 A 
ATOM      6  C   UNL     1      -1.703  13.355  20.142  0.00  0.00    +0.000 A 
ATOM      7  N   UNL     1      -2.382  14.396  20.680  0.00  0.00    +0.000 NA
ATOM      8  C   UNL     1      -2.903  14.235  21.902  0.00  0.00    +0.000 A 
ATOM      9  C   UNL     1      -3.550  15.311  22.491  0.00  0.00    +0.000 A 
ATOM     10  C   UNL     1      -4.095  15.223  23.773  0.00  0.00    +0.000 A 
ATOM     11  C   UNL     1      -4.002  14.029  24.479  0.00  0.00    +0.000 A 
ATOM     12  C   UNL     1      -3.365  12.927  23.904  0.00  0.00    +0.000 A 
ATOM     13  C   UNL     1      -2.807  13.021  22.615  0.00  0.00    +0.000 A 
ATOM     14  C   UNL     1      -2.122  11.949  22.007  0.00  0.00    +0.000 A 
ENDBRANCH   3   5
BRANCH   2  15
ATOM     15  C   UNL     1       1.146   9.597  19.845  0.00  0.00    +0.000 A 
ATOM     16  C   UNL     1       1.391   9.621  18.519  0.00  0.00    +0.000 A 
ATOM     17  C   UNL     1       2.037   8.519  17.846  0.00  0.00    +0.000 A 
ATOM     18  C   UNL     1       2.412   7.442  18.552  0.00  0.00    +0.000 A 
ATOM     19  N   UNL     1       2.136   7.371  19.895  0.00  0.00    +0.000 N 
ATOM     20  C   UNL     1       1.512   8.368  20.605  0.00  0.00    +0.000 A 
ATOM     21  O   UNL     1       1.290   8.262  21.809  0.00  0.00    +0.000 OA
ATOM     22  H   UNL     1       2.412   6.547  20.412  0.00  0.00    +0.000 HD
BRANCH  18  23
ATOM     23  C   UNL     1       3.160   6.340  17.946  0.00  0.00    +0.000 A 
ATOM     24  C   UNL     1       2.673   5.031  18.060  0.00  0.00    +0.000 A 
ATOM     25  C   UNL     1       3.353   3.972  17.457  0.00  0.00    +0.000 A 
ATOM     26  C   UNL     1       4.525   4.216  16.742  0.00  0.00    +0.000 A 
ATOM     27  C   UNL     1       5.019   5.516  16.634  0.00  0.00    +0.000 A 
ATOM     28  C   UNL     1       4.341   6.577  17.235  0.00  0.00    +0.000 A 
ENDBRANCH  18  23
ENDBRANCH   2  15
TORSDOF 3
ENDMDL
