MODEL 1
REMARK VINA RESULT:      -9.7      0.000      0.000
REMARK  Name = 
REMARK  3 active torsions:
REMARK  status: ('A' for Active; 'I' for Inactive)
REMARK    1  A    between atoms: C_2  and  C_3
REMARK    2  A    between atoms: C_3  and  N_4
REMARK    3  A    between atoms: C_18  and  C_19
REMARK                            x       y       z     vdW  Elec       q    Type
REMARK                         _______ _______ _______ _____ _____    ______ ____
ROOT
ATOM      1  O   UNL     1       5.660   6.625  15.260  0.00  0.00    +0.000 OA
ATOM      2  C   UNL     1       5.693   5.606  15.954  0.00  0.00    +0.000 C 
ATOM      3  N   UNL     1       4.808   5.401  17.003  0.00  0.00    +0.000 N 
ATOM      4  C   UNL     1       4.663   4.117  17.680  0.00  0.00    +0.000 C 
ATOM      5  C   UNL     1       3.326   3.900  18.336  0.00  0.00    +0.000 A 
ATOM      6  C   UNL     1       2.802   2.602  18.421  0.00  0.00    +0.000 A 
ATOM      7  C   UNL     1       1.621   2.367  19.121  0.00  0.00    +0.000 A 
ATOM      8  C   UNL     1       0.980   3.418  19.770  0.00  0.00    +0.000 A 
ATOM      9  C   UNL     1       1.498   4.713  19.691  0.00  0.00    +0.000 A 
ATOM     10  C   UNL     1       2.652   4.975  18.941  0.00  0.00    +0.000 A 
ATOM     11  C   UNL     1       3.261   6.361  18.780  0.00  0.00    +0.000 C 
ATOM     12  C   UNL     1       3.901   6.494  17.373  0.00  0.00    +0.000 C 
ENDROOT
BRANCH  11  13
ATOM     13  C   UNL     1       2.309   7.528  19.016  0.00  0.00    +0.000 A 
ATOM     14  C   UNL     1       1.835   7.803  20.309  0.00  0.00    +0.000 A 
ATOM     15  C   UNL     1       0.999   8.896  20.538  0.00  0.00    +0.000 A 
ATOM     16  C   UNL     1       0.622   9.724  19.482  0.00  0.00    +0.000 A 
ATOM     17  C   UNL     1       1.067   9.452  18.192  0.00  0.00    +0.000 A 
ATOM     18  C   UNL     1       1.903   8.360  17.958  0.00  0.00    +0.000 A 
ENDBRANCH  11  13
BRANCH   2  19
ATOM     19  C   UNL     1       6.708   4.510  15.630  0.00  0.00    +0.000 C 
BRANCH  19  20
ATOM     20  N   UNL     1       6.762   4.277  14.205  0.00  0.00    +0.000 N 
ATOM     21  C   UNL     1       5.886   3.593  13.448  0.00  0.00    +0.000 A 
ATOM     22  N   UNL     1       6.081   3.684  12.171  0.00  0.00    +0.000 NA
ATOM     23  N   UNL     1       7.166   4.511  12.065  0.00  0.00    +0.000 N 
ATOM     24  C   UNL     1       7.580   4.928  13.322  0.00  0.00    +0.000 A 
ATOM     25  O   UNL     1       8.465   5.728  13.572  0.00  0.00    +0.000 OA
ATOM     26  H   UNL     1       7.527   4.829  11.176  0.00  0.00    +0.000 HD
ENDBRANCH  19  20
ENDBRANCH   2  19
TORSDOF 3
ENDMDL
MODEL 2
REMARK VINA RESULT:      -9.0      1.005      1.575
REMARK  Name = 
REMARK  3 active torsions:
REMARK  status: ('A' for Active; 'I' for Inactive)
REMARK    1  A    between atoms: C_2  and  C_3
REMARK    2  A    between atoms: C_3  and  N_4
REMARK    3  A    between atoms: C_18  and  C_19
REMARK                            x       y       z     vdW  Elec       q    Type
REMARK                         _______ _______ _______ _____ _____    ______ ____
ROOT
ATOM      1  O   UNL     1       5.295   6.480  15.285  0.00  0.00    +0.000 OA
ATOM      2  C   UNL     1       5.279   5.379  15.843  0.00  0.00    +0.000 C 
ATOM      3  N   UNL     1       4.462   5.120  16.933  0.00  0.00    +0.000 N 
ATOM      4  C   UNL     1       4.241   3.776  17.458  0.00  0.00    +0.000 C 
ATOM      5  C   UNL     1       2.944   3.597  18.200  0.00  0.00    +0.000 A 
ATOM      6  C   UNL     1       2.299   2.353  18.172  0.00  0.00    +0.000 A 
ATOM      7  C   UNL     1       1.159   2.135  18.941  0.00  0.00    +0.000 A 
ATOM      8  C   UNL     1       0.680   3.146  19.769  0.00  0.00    +0.000 A 
ATOM      9  C   UNL     1       1.319   4.387  19.804  0.00  0.00    +0.000 A 
ATOM     10  C   UNL     1       2.432   4.640  18.991  0.00  0.00    +0.000 A 
ATOM     11  C   UNL     1       3.164   5.975  18.947  0.00  0.00    +0.000 C 
ATOM     12  C   UNL     1       3.702   6.233  17.515  0.00  0.00    +0.000 C 
ENDROOT
BRANCH  11  13
ATOM     13  C   UNL     1       2.356   7.182  19.410  0.00  0.00    +0.000 A 
ATOM     14  C   UNL     1       2.077   8.229  18.517  0.00  0.00    +0.000 A 
ATOM     15  C   UNL     1       1.300   9.316  18.921  0.00  0.00    +0.000 A 
ATOM     16  C   UNL     1       0.798   9.374  20.221  0.00  0.00    +0.000 A 
ATOM     17  C   UNL     1       1.085   8.354  21.123  0.00  0.00    +0.000 A 
ATOM     18  C   UNL     1       1.861   7.266  20.723  0.00  0.00    +0.000 A 
ENDBRANCH  11  13
BRANCH   2  19
ATOM     19  C   UNL     1       6.150   4.248  15.296  0.00  0.00    +0.000 C 
BRANCH  19  20
ATOM     20  N   UNL     1       6.726   4.623  14.025  0.00  0.00    +0.000 N 
ATOM     21  C   UNL     1       7.760   5.452  13.802  0.00  0.00    +0.000 A 
ATOM     22  N   UNL     1       8.184   5.479  12.579  0.00  0.00    +0.000 NA
ATOM     23  N   UNL     1       7.379   4.580  11.935  0.00  0.00    +0.000 N 
ATOM     24  C   UNL     1       6.490   4.001  12.829  0.00  0.00    +0.000 A 
ATOM     25  O   UNL     1       5.694   3.108  12.595  0.00  0.00    +0.000 OA
ATOM     26  H   UNL     1       7.506   4.327  10.964  0.00  0.00    +0.000 HD
ENDBRANCH  19  20
ENDBRANCH   2  19
TORSDOF 3
ENDMDL
MODEL 3
REMARK VINA RESULT:      -8.3      7.232     11.257
REMARK  Name = 
REMARK  3 active torsions:
REMARK  status: ('A' for Active; 'I' for Inactive)
REMARK    1  A    between atoms: C_2  and  C_3
REMARK    2  A    between atoms: C_3  and  N_4
REMARK    3  A    between atoms: C_18  and  C_19
REMARK                            x       y       z     vdW  Elec       q    Type
REMARK                         _______ _______ _______ _____ _____    ______ ____
ROOT
ATOM      1  O   UNL     1      -0.968  11.611  23.343  0.00  0.00    +0.000 OA
ATOM      2  C   UNL     1      -1.553  12.191  22.424  0.00  0.00    +0.000 C 
ATOM      3  N   UNL     1      -1.410  11.802  21.100  0.00  0.00    +0.000 N 
ATOM      4  C   UNL     1      -2.264  12.303  20.029  0.00  0.00    +0.000 C 
ATOM      5  C   UNL     1      -2.378  11.390  18.838  0.00  0.00    +0.000 A 
ATOM      6  C   UNL     1      -3.568  11.368  18.097  0.00  0.00    +0.000 A 
ATOM      7  C   UNL     1      -3.654  10.615  16.929  0.00  0.00    +0.000 A 
ATOM      8  C   UNL     1      -2.542   9.912  16.476  0.00  0.00    +0.000 A 
ATOM      9  C   UNL     1      -1.352   9.931  17.208  0.00  0.00    +0.000 A 
ATOM     10  C   UNL     1      -1.270  10.636  18.416  0.00  0.00    +0.000 A 
ATOM     11  C   UNL     1      -0.021  10.681  19.287  0.00  0.00    +0.000 C 
ATOM     12  C   UNL     1      -0.427  10.760  20.783  0.00  0.00    +0.000 C 
ENDROOT
BRANCH  11  13
ATOM     13  C   UNL     1       0.960   9.531  19.088  0.00  0.00    +0.000 A 
ATOM     14  C   UNL     1       1.173   8.599  20.116  0.00  0.00    +0.000 A 
ATOM     15  C   UNL     1       2.036   7.519  19.924  0.00  0.00    +0.000 A 
ATOM     16  C   UNL     1       2.700   7.359  18.709  0.00  0.00    +0.000 A 
ATOM     17  C   UNL     1       2.515   8.287  17.688  0.00  0.00    +0.000 A 
ATOM     18  C   UNL     1       1.653   9.368  17.876  0.00  0.00    +0.000 A 
ENDBRANCH  11  13
BRANCH   2  19
ATOM     19  C   UNL     1      -2.501  13.346  22.749  0.00  0.00    +0.000 C 
BRANCH  19  20
ATOM     20  N   UNL     1      -3.769  12.841  23.223  0.00  0.00    +0.000 N 
ATOM     21  C   UNL     1      -4.075  12.414  24.460  0.00  0.00    +0.000 A 
ATOM     22  N   UNL     1      -5.332  12.176  24.660  0.00  0.00    +0.000 NA
ATOM     23  N   UNL     1      -5.917  12.487  23.462  0.00  0.00    +0.000 N 
ATOM     24  C   UNL     1      -4.964  12.947  22.564  0.00  0.00    +0.000 A 
ATOM     25  O   UNL     1      -5.164  13.378  21.443  0.00  0.00    +0.000 OA
ATOM     26  H   UNL     1      -6.918  12.465  23.319  0.00  0.00    +0.000 HD
ENDBRANCH  19  20
ENDBRANCH   2  19
TORSDOF 3
ENDMDL
MODEL 4
REMARK VINA RESULT:      -8.2      1.122      1.395
REMARK  Name = 
REMARK  3 active torsions:
REMARK  status: ('A' for Active; 'I' for Inactive)
REMARK    1  A    between atoms: C_2  and  C_3
REMARK    2  A    between atoms: C_3  and  N_4
REMARK    3  A    between atoms: C_18  and  C_19
REMARK                            x       y       z     vdW  Elec       q    Type
REMARK                         _______ _______ _______ _____ _____    ______ ____
ROOT
ATOM      1  O   UNL     1       5.904   7.327  16.281  0.00  0.00    +0.000 OA
ATOM      2  C   UNL     1       5.895   6.206  16.798  0.00  0.00    +0.000 C 
ATOM      3  N   UNL     1       4.903   5.815  17.686  0.00  0.00    +0.000 N 
ATOM      4  C   UNL     1       4.728   4.434  18.123  0.00  0.00    +0.000 C 
ATOM      5  C   UNL     1       3.334   4.088  18.570  0.00  0.00    +0.000 A 
ATOM      6  C   UNL     1       2.851   2.786  18.379  0.00  0.00    +0.000 A 
ATOM      7  C   UNL     1       1.607   2.417  18.886  0.00  0.00    +0.000 A 
ATOM      8  C   UNL     1       0.858   3.335  19.616  0.00  0.00    +0.000 A 
ATOM      9  C   UNL     1       1.334   4.633  19.812  0.00  0.00    +0.000 A 
ATOM     10  C   UNL     1       2.557   5.036  19.258  0.00  0.00    +0.000 A 
ATOM     11  C   UNL     1       3.129   6.440  19.399  0.00  0.00    +0.000 C 
ATOM     12  C   UNL     1       3.921   6.816  18.119  0.00  0.00    +0.000 C 
ENDROOT
BRANCH  11  13
ATOM     13  C   UNL     1       2.114   7.535  19.708  0.00  0.00    +0.000 A 
ATOM     14  C   UNL     1       1.534   7.621  20.983  0.00  0.00    +0.000 A 
ATOM     15  C   UNL     1       0.638   8.648  21.285  0.00  0.00    +0.000 A 
ATOM     16  C   UNL     1       0.307   9.596  20.317  0.00  0.00    +0.000 A 
ATOM     17  C   UNL     1       0.858   9.511  19.042  0.00  0.00    +0.000 A 
ATOM     18  C   UNL     1       1.754   8.486  18.737  0.00  0.00    +0.000 A 
ENDBRANCH  11  13
BRANCH   2  19
ATOM     19  C   UNL     1       6.980   5.197  16.423  0.00  0.00    +0.000 C 
BRANCH  19  20
ATOM     20  N   UNL     1       6.787   4.728  15.070  0.00  0.00    +0.000 N 
ATOM     21  C   UNL     1       7.420   5.140  13.957  0.00  0.00    +0.000 A 
ATOM     22  N   UNL     1       7.181   4.432  12.900  0.00  0.00    +0.000 NA
ATOM     23  N   UNL     1       6.332   3.456  13.346  0.00  0.00    +0.000 N 
ATOM     24  C   UNL     1       6.108   3.596  14.708  0.00  0.00    +0.000 A 
ATOM     25  O   UNL     1       5.467   2.848  15.425  0.00  0.00    +0.000 OA
ATOM     26  H   UNL     1       6.010   2.699  12.758  0.00  0.00    +0.000 HD
ENDBRANCH  19  20
ENDBRANCH   2  19
TORSDOF 3
ENDMDL
MODEL 5
REMARK VINA RESULT:      -8.1      7.341     11.415
REMARK  Name = 
REMARK  3 active torsions:
REMARK  status: ('A' for Active; 'I' for Inactive)
REMARK    1  A    between atoms: C_2  and  C_3
REMARK    2  A    between atoms: C_3  and  N_4
REMARK    3  A    between atoms: C_18  and  C_19
REMARK                            x       y       z     vdW  Elec       q    Type
REMARK                         _______ _______ _______ _____ _____    ______ ____
ROOT
ATOM      1  O   UNL     1      -0.861  12.308  23.152  0.00  0.00    +0.000 OA
ATOM      2  C   UNL     1      -1.465  12.788  22.189  0.00  0.00    +0.000 C 
ATOM      3  N   UNL     1      -1.379  12.238  20.918  0.00  0.00    +0.000 N 
ATOM      4  C   UNL     1      -2.259  12.629  19.822  0.00  0.00    +0.000 C 
ATOM      5  C   UNL     1      -2.437  11.582  18.755  0.00  0.00    +0.000 A 
ATOM      6  C   UNL     1      -3.652  11.503  18.062  0.00  0.00    +0.000 A 
ATOM      7  C   UNL     1      -3.797  10.616  16.998  0.00  0.00    +0.000 A 
ATOM      8  C   UNL     1      -2.719   9.833  16.599  0.00  0.00    +0.000 A 
ATOM      9  C   UNL     1      -1.504   9.908  17.283  0.00  0.00    +0.000 A 
ATOM     10  C   UNL     1      -1.362  10.752  18.393  0.00  0.00    +0.000 A 
ATOM     11  C   UNL     1      -0.082  10.868  19.211  0.00  0.00    +0.000 C 
ATOM     12  C   UNL     1      -0.432  11.138  20.698  0.00  0.00    +0.000 C 
ENDROOT
BRANCH  11  13
ATOM     13  C   UNL     1       0.864   9.676  19.122  0.00  0.00    +0.000 A 
ATOM     14  C   UNL     1       1.015   8.811  20.217  0.00  0.00    +0.000 A 
ATOM     15  C   UNL     1       1.846   7.693  20.127  0.00  0.00    +0.000 A 
ATOM     16  C   UNL     1       2.538   7.428  18.946  0.00  0.00    +0.000 A 
ATOM     17  C   UNL     1       2.415   8.288  17.860  0.00  0.00    +0.000 A 
ATOM     18  C   UNL     1       1.586   9.407  17.946  0.00  0.00    +0.000 A 
ENDBRANCH  11  13
BRANCH   2  19
ATOM     19  C   UNL     1      -2.374  14.000  22.401  0.00  0.00    +0.000 C 
BRANCH  19  20
ATOM     20  N   UNL     1      -3.556  13.621  23.140  0.00  0.00    +0.000 N 
ATOM     21  C   UNL     1      -4.544  12.796  22.749  0.00  0.00    +0.000 A 
ATOM     22  N   UNL     1      -5.399  12.493  23.673  0.00  0.00    +0.000 NA
ATOM     23  N   UNL     1      -4.935  13.155  24.776  0.00  0.00    +0.000 N 
ATOM     24  C   UNL     1      -3.760  13.830  24.477  0.00  0.00    +0.000 A 
ATOM     25  O   UNL     1      -3.054  14.448  25.253  0.00  0.00    +0.000 OA
ATOM     26  H   UNL     1      -5.360  13.063  25.690  0.00  0.00    +0.000 HD
ENDBRANCH  19  20
ENDBRANCH   2  19
TORSDOF 3
ENDMDL
MODEL 6
REMARK VINA RESULT:      -8.1      1.277      1.802
REMARK  Name = 
REMARK  3 active torsions:
REMARK  status: ('A' for Active; 'I' for Inactive)
REMARK    1  A    between atoms: C_2  and  C_3
REMARK    2  A    between atoms: C_3  and  N_4
REMARK    3  A    between atoms: C_18  and  C_19
REMARK                            x       y       z     vdW  Elec       q    Type
REMARK                         _______ _______ _______ _____ _____    ______ ____
ROOT
ATOM      1  O   UNL     1       5.443   7.389  15.841  0.00  0.00    +0.000 OA
ATOM      2  C   UNL     1       5.591   6.438  16.613  0.00  0.00    +0.000 C 
ATOM      3  N   UNL     1       4.712   6.197  17.660  0.00  0.00    +0.000 N 
ATOM      4  C   UNL     1       4.719   4.960  18.433  0.00  0.00    +0.000 C 
ATOM      5  C   UNL     1       3.405   4.617  19.082  0.00  0.00    +0.000 A 
ATOM      6  C   UNL     1       3.053   3.273  19.260  0.00  0.00    +0.000 A 
ATOM      7  C   UNL     1       1.894   2.936  19.957  0.00  0.00    +0.000 A 
ATOM      8  C   UNL     1       1.105   3.939  20.511  0.00  0.00    +0.000 A 
ATOM      9  C   UNL     1       1.451   5.281  20.340  0.00  0.00    +0.000 A 
ATOM     10  C   UNL     1       2.581   5.637  19.591  0.00  0.00    +0.000 A 
ATOM     11  C   UNL     1       3.008   7.075  19.332  0.00  0.00    +0.000 C 
ATOM     12  C   UNL     1       3.661   7.185  17.929  0.00  0.00    +0.000 C 
ENDROOT
BRANCH  11  13
ATOM     13  C   UNL     1       1.905   8.121  19.461  0.00  0.00    +0.000 A 
ATOM     14  C   UNL     1       1.466   8.825  18.329  0.00  0.00    +0.000 A 
ATOM     15  C   UNL     1       0.426   9.752  18.432  0.00  0.00    +0.000 A 
ATOM     16  C   UNL     1      -0.182   9.989  19.664  0.00  0.00    +0.000 A 
ATOM     17  C   UNL     1       0.259   9.313  20.799  0.00  0.00    +0.000 A 
ATOM     18  C   UNL     1       1.297   8.387  20.700  0.00  0.00    +0.000 A 
ENDBRANCH  11  13
BRANCH   2  19
ATOM     19  C   UNL     1       6.749   5.464  16.392  0.00  0.00    +0.000 C 
BRANCH  19  20
ATOM     20  N   UNL     1       6.631   4.824  15.101  0.00  0.00    +0.000 N 
ATOM     21  C   UNL     1       7.297   5.120  13.971  0.00  0.00    +0.000 A 
ATOM     22  N   UNL     1       7.128   4.279  13.002  0.00  0.00    +0.000 NA
ATOM     23  N   UNL     1       6.295   3.332  13.534  0.00  0.00    +0.000 N 
ATOM     24  C   UNL     1       6.008   3.630  14.859  0.00  0.00    +0.000 A 
ATOM     25  O   UNL     1       5.363   2.951  15.638  0.00  0.00    +0.000 OA
ATOM     26  H   UNL     1       6.026   2.495  13.034  0.00  0.00    +0.000 HD
ENDBRANCH  19  20
ENDBRANCH   2  19
TORSDOF 3
ENDMDL
MODEL 7
REMARK VINA RESULT:      -8.1      0.903      1.356
REMARK  Name = 
REMARK  3 active torsions:
REMARK  status: ('A' for Active; 'I' for Inactive)
REMARK    1  A    between atoms: C_2  and  C_3
REMARK    2  A    between atoms: C_3  and  N_4
REMARK    3  A    between atoms: C_18  and  C_19
REMARK                            x       y       z     vdW  Elec       q    Type
REMARK                         _______ _______ _______ _____ _____    ______ ____
ROOT
ATOM      1  O   UNL     1       4.756   6.031  15.248  0.00  0.00    +0.000 OA
ATOM      2  C   UNL     1       4.869   5.064  16.006  0.00  0.00    +0.000 C 
ATOM      3  N   UNL     1       4.194   4.997  17.217  0.00  0.00    +0.000 N 
ATOM      4  C   UNL     1       4.115   3.778  18.014  0.00  0.00    +0.000 C 
ATOM      5  C   UNL     1       2.921   3.700  18.927  0.00  0.00    +0.000 A 
ATOM      6  C   UNL     1       2.355   2.451  19.218  0.00  0.00    +0.000 A 
ATOM      7  C   UNL     1       1.321   2.348  20.146  0.00  0.00    +0.000 A 
ATOM      8  C   UNL     1       0.875   3.484  20.813  0.00  0.00    +0.000 A 
ATOM      9  C   UNL     1       1.436   4.731  20.530  0.00  0.00    +0.000 A 
ATOM     10  C   UNL     1       2.435   4.859  19.556  0.00  0.00    +0.000 A 
ATOM     11  C   UNL     1       3.074   6.186  19.167  0.00  0.00    +0.000 C 
ATOM     12  C   UNL     1       3.435   6.173  17.658  0.00  0.00    +0.000 C 
ENDROOT
BRANCH  11  13
ATOM     13  C   UNL     1       2.249   7.429  19.480  0.00  0.00    +0.000 A 
ATOM     14  C   UNL     1       2.001   8.381  18.479  0.00  0.00    +0.000 A 
ATOM     15  C   UNL     1       1.209   9.499  18.747  0.00  0.00    +0.000 A 
ATOM     16  C   UNL     1       0.661   9.682  20.016  0.00  0.00    +0.000 A 
ATOM     17  C   UNL     1       0.916   8.758  21.024  0.00  0.00    +0.000 A 
ATOM     18  C   UNL     1       1.707   7.639  20.760  0.00  0.00    +0.000 A 
ENDBRANCH  11  13
BRANCH   2  19
ATOM     19  C   UNL     1       5.743   3.881  15.589  0.00  0.00    +0.000 C 
BRANCH  19  20
ATOM     20  N   UNL     1       6.608   4.254  14.494  0.00  0.00    +0.000 N 
ATOM     21  C   UNL     1       6.514   3.880  13.206  0.00  0.00    +0.000 A 
ATOM     22  N   UNL     1       7.318   4.497  12.399  0.00  0.00    +0.000 NA
ATOM     23  N   UNL     1       7.991   5.367  13.212  0.00  0.00    +0.000 N 
ATOM     24  C   UNL     1       7.533   5.263  14.517  0.00  0.00    +0.000 A 
ATOM     25  O   UNL     1       7.866   5.949  15.467  0.00  0.00    +0.000 OA
ATOM     26  H   UNL     1       8.655   6.045  12.859  0.00  0.00    +0.000 HD
ENDBRANCH  19  20
ENDBRANCH   2  19
TORSDOF 3
ENDMDL
MODEL 8
REMARK VINA RESULT:      -7.9      1.296      3.762
REMARK  Name = 
REMARK  3 active torsions:
REMARK  status: ('A' for Active; 'I' for Inactive)
REMARK    1  A    between atoms: C_2  and  C_3
REMARK    2  A    between atoms: C_3  and  N_4
REMARK    3  A    between atoms: C_18  and  C_19
REMARK                            x       y       z     vdW  Elec       q    Type
REMARK                         _______ _______ _______ _____ _____    ______ ____
ROOT
ATOM      1  O   UNL     1       7.093   4.078  17.339  0.00  0.00    +0.000 OA
ATOM      2  C   UNL     1       6.512   4.982  16.731  0.00  0.00    +0.000 C 
ATOM      3  N   UNL     1       5.241   5.409  17.087  0.00  0.00    +0.000 N 
ATOM      4  C   UNL     1       4.632   6.622  16.552  0.00  0.00    +0.000 C 
ATOM      5  C   UNL     1       3.579   7.237  17.433  0.00  0.00    +0.000 A 
ATOM      6  C   UNL     1       3.399   8.627  17.426  0.00  0.00    +0.000 A 
ATOM      7  C   UNL     1       2.358   9.205  18.149  0.00  0.00    +0.000 A 
ATOM      8  C   UNL     1       1.470   8.394  18.850  0.00  0.00    +0.000 A 
ATOM      9  C   UNL     1       1.642   7.008  18.860  0.00  0.00    +0.000 A 
ATOM     10  C   UNL     1       2.720   6.418  18.186  0.00  0.00    +0.000 A 
ATOM     11  C   UNL     1       2.993   4.920  18.174  0.00  0.00    +0.000 C 
ATOM     12  C   UNL     1       4.523   4.666  18.130  0.00  0.00    +0.000 C 
ENDROOT
BRANCH  11  13
ATOM     13  C   UNL     1       2.382   4.131  19.327  0.00  0.00    +0.000 A 
ATOM     14  C   UNL     1       2.958   4.189  20.606  0.00  0.00    +0.000 A 
ATOM     15  C   UNL     1       2.378   3.505  21.675  0.00  0.00    +0.000 A 
ATOM     16  C   UNL     1       1.220   2.752  21.480  0.00  0.00    +0.000 A 
ATOM     17  C   UNL     1       0.650   2.669  20.213  0.00  0.00    +0.000 A 
ATOM     18  C   UNL     1       1.228   3.351  19.142  0.00  0.00    +0.000 A 
ENDBRANCH  11  13
BRANCH   2  19
ATOM     19  C   UNL     1       7.224   5.688  15.577  0.00  0.00    +0.000 C 
BRANCH  19  20
ATOM     20  N   UNL     1       7.115   4.910  14.364  0.00  0.00    +0.000 N 
ATOM     21  C   UNL     1       6.170   4.007  14.047  0.00  0.00    +0.000 A 
ATOM     22  N   UNL     1       6.211   3.580  12.825  0.00  0.00    +0.000 NA
ATOM     23  N   UNL     1       7.258   4.268  12.275  0.00  0.00    +0.000 N 
ATOM     24  C   UNL     1       7.809   5.137  13.206  0.00  0.00    +0.000 A 
ATOM     25  O   UNL     1       8.699   5.946  13.015  0.00  0.00    +0.000 OA
ATOM     26  H   UNL     1       7.505   4.200  11.297  0.00  0.00    +0.000 HD
ENDBRANCH  19  20
ENDBRANCH   2  19
TORSDOF 3
ENDMDL
MODEL 9
REMARK VINA RESULT:      -7.6      4.333      7.845
REMARK  Name = 
REMARK  3 active torsions:
REMARK  status: ('A' for Active; 'I' for Inactive)
REMARK    1  A    between atoms: C_2  and  C_3
REMARK    2  A    between atoms: C_3  and  N_4
REMARK    3  A    between atoms: C_18  and  C_19
REMARK                            x       y       z     vdW  Elec       q    Type
REMARK                         _______ _______ _______ _____ _____    ______ ____
ROOT
ATOM      1  O   UNL     1       2.021   9.191  19.924  0.00  0.00    +0.000 OA
ATOM      2  C   UNL     1       1.428   8.166  20.273  0.00  0.00    +0.000 C 
ATOM      3  N   UNL     1       1.880   6.901  19.927  0.00  0.00    +0.000 N 
ATOM      4  C   UNL     1       1.347   5.678  20.519  0.00  0.00    +0.000 C 
ATOM      5  C   UNL     1       2.292   4.507  20.498  0.00  0.00    +0.000 A 
ATOM      6  C   UNL     1       2.237   3.558  21.529  0.00  0.00    +0.000 A 
ATOM      7  C   UNL     1       3.025   2.411  21.470  0.00  0.00    +0.000 A 
ATOM      8  C   UNL     1       3.842   2.190  20.365  0.00  0.00    +0.000 A 
ATOM      9  C   UNL     1       3.900   3.130  19.334  0.00  0.00    +0.000 A 
ATOM     10  C   UNL     1       3.158   4.316  19.408  0.00  0.00    +0.000 A 
ATOM     11  C   UNL     1       3.191   5.404  18.342  0.00  0.00    +0.000 C 
ATOM     12  C   UNL     1       3.017   6.795  19.006  0.00  0.00    +0.000 C 
ENDROOT
BRANCH  11  13
ATOM     13  C   UNL     1       4.430   5.417  17.455  0.00  0.00    +0.000 A 
ATOM     14  C   UNL     1       5.524   6.234  17.781  0.00  0.00    +0.000 A 
ATOM     15  C   UNL     1       6.679   6.217  16.997  0.00  0.00    +0.000 A 
ATOM     16  C   UNL     1       6.754   5.390  15.878  0.00  0.00    +0.000 A 
ATOM     17  C   UNL     1       5.670   4.590  15.530  0.00  0.00    +0.000 A 
ATOM     18  C   UNL     1       4.514   4.604  16.311  0.00  0.00    +0.000 A 
ENDBRANCH  11  13
BRANCH   2  19
ATOM     19  C   UNL     1       0.181   8.283  21.151  0.00  0.00    +0.000 C 
BRANCH  19  20
ATOM     20  N   UNL     1      -0.121   9.670  21.418  0.00  0.00    +0.000 N 
ATOM     21  C   UNL     1      -0.679  10.567  20.587  0.00  0.00    +0.000 A 
ATOM     22  N   UNL     1      -0.997  11.696  21.136  0.00  0.00    +0.000 NA
ATOM     23  N   UNL     1      -0.639  11.533  22.446  0.00  0.00    +0.000 N 
ATOM     24  C   UNL     1      -0.131  10.259  22.654  0.00  0.00    +0.000 A 
ATOM     25  O   UNL     1       0.204   9.769  23.718  0.00  0.00    +0.000 OA
ATOM     26  H   UNL     1      -0.825  12.230  23.156  0.00  0.00    +0.000 HD
ENDBRANCH  19  20
ENDBRANCH   2  19
TORSDOF 3
ENDMDL
