MODEL 1
REMARK VINA RESULT:      -8.7      0.000      0.000
REMARK  Name = 
REMARK  4 active torsions:
REMARK  status: ('A' for Active; 'I' for Inactive)
REMARK    1  A    between atoms: C_2  and  C_4
REMARK    2  A    between atoms: C_6  and  N_7
REMARK    3  A    between atoms: C_8  and  C_10
REMARK    4  A    between atoms: C_10  and  C_11
REMARK                            x       y       z     vdW  Elec       q    Type
REMARK                         _______ _______ _______ _____ _____    ______ ____
ROOT
ATOM      1  N   UNL     1       3.167   6.046  18.799  0.00  0.00    +0.000 N 
ATOM      2  C   UNL     1       2.614   4.913  18.207  0.00  0.00    +0.000 C 
ATOM      3  O   UNL     1       1.487   4.884  17.701  0.00  0.00    +0.000 OA
ATOM      4  H   UNL     1       4.156   6.021  19.007  0.00  0.00    +0.000 HD
ENDROOT
BRANCH   1   7
ATOM      5  C   UNL     1       1.181   8.887  20.228  0.00  0.00    +0.000 A 
ATOM      6  C   UNL     1       1.909   7.692  20.150  0.00  0.00    +0.000 A 
ATOM      7  C   UNL     1       2.501   7.288  18.948  0.00  0.00    +0.000 A 
ATOM      8  C   UNL     1       2.419   8.139  17.839  0.00  0.00    +0.000 A 
ATOM      9  C   UNL     1       1.708   9.340  17.919  0.00  0.00    +0.000 A 
ATOM     10  C   UNL     1       1.081   9.702  19.108  0.00  0.00    +0.000 A 
ATOM     11  F   UNL     1       0.390  10.852  19.142  0.00  0.00    +0.000 F 
BRANCH   5  13
ATOM     12  N   UNL     1      -0.564   8.488  21.876  0.00  0.00    +0.000 N 
ATOM     13  C   UNL     1       0.527   9.223  21.517  0.00  0.00    +0.000 C 
ATOM     14  O   UNL     1       0.962  10.103  22.250  0.00  0.00    +0.000 OA
ATOM     15  H   UNL     1      -1.018   8.712  22.751  0.00  0.00    +0.000 HD
ATOM     16  H   UNL     1      -0.967   7.774  21.283  0.00  0.00    +0.000 HD
ENDBRANCH   5  13
ENDBRANCH   1   7
BRANCH   2  17
ATOM     17  C   UNL     1       3.551   3.642  18.150  0.00  0.00    +0.000 C 
ATOM     18  C   UNL     1       2.780   2.364  17.622  0.00  0.00    +0.000 C 
ATOM     19  C   UNL     1       3.540   1.529  18.655  0.00  0.00    +0.000 C 
ATOM     20  C   UNL     1       3.732   2.817  19.474  0.00  0.00    +0.000 C 
BRANCH  17  21
ATOM     21  C   UNL     1       4.856   4.059  17.281  0.00  0.00    +0.000 A 
ATOM     22  C   UNL     1       6.079   4.367  17.926  0.00  0.00    +0.000 A 
ATOM     23  C   UNL     1       7.243   4.698  17.222  0.00  0.00    +0.000 A 
ATOM     24  C   UNL     1       7.219   4.744  15.836  0.00  0.00    +0.000 A 
ATOM     25  C   UNL     1       6.034   4.461  15.175  0.00  0.00    +0.000 A 
ATOM     26  F   UNL     1       6.001   4.503  13.836  0.00  0.00    +0.000 F 
ATOM     27  C   UNL     1       4.873   4.124  15.875  0.00  0.00    +0.000 A 
ENDBRANCH  17  21
ENDBRANCH   2  17
TORSDOF 4
ENDMDL
MODEL 2
REMARK VINA RESULT:      -8.6      1.026      1.416
REMARK  Name = 
REMARK  4 active torsions:
REMARK  status: ('A' for Active; 'I' for Inactive)
REMARK    1  A    between atoms: C_2  and  C_4
REMARK    2  A    between atoms: C_6  and  N_7
REMARK    3  A    between atoms: C_8  and  C_10
REMARK    4  A    between atoms: C_10  and  C_11
REMARK                            x       y       z     vdW  Elec       q    Type
REMARK                         _______ _______ _______ _____ _____    ______ ____
ROOT
ATOM      1  N   UNL     1       3.076   5.963  18.907  0.00  0.00    +0.000 N 
ATOM      2  C   UNL     1       2.528   4.859  18.258  0.00  0.00    +0.000 C 
ATOM      3  O   UNL     1       1.418   4.863  17.715  0.00  0.00    +0.000 OA
ATOM      4  H   UNL     1       4.057   5.917  19.146  0.00  0.00    +0.000 HD
ENDROOT
BRANCH   1   7
ATOM      5  C   UNL     1       1.182   8.828  20.411  0.00  0.00    +0.000 A 
ATOM      6  C   UNL     1       1.902   7.630  20.307  0.00  0.00    +0.000 A 
ATOM      7  C   UNL     1       2.421   7.207  19.077  0.00  0.00    +0.000 A 
ATOM      8  C   UNL     1       2.274   8.043  17.963  0.00  0.00    +0.000 A 
ATOM      9  C   UNL     1       1.571   9.247  18.068  0.00  0.00    +0.000 A 
ATOM     10  C   UNL     1       1.017   9.627  19.288  0.00  0.00    +0.000 A 
ATOM     11  F   UNL     1       0.330  10.779  19.346  0.00  0.00    +0.000 F 
BRANCH   5  13
ATOM     12  N   UNL     1      -0.632   8.696  22.027  0.00  0.00    +0.000 N 
ATOM     13  C   UNL     1       0.607   9.183  21.731  0.00  0.00    +0.000 C 
ATOM     14  O   UNL     1       1.226   9.862  22.542  0.00  0.00    +0.000 OA
ATOM     15  H   UNL     1      -1.033   8.936  22.924  0.00  0.00    +0.000 HD
ATOM     16  H   UNL     1      -1.183   8.158  21.372  0.00  0.00    +0.000 HD
ENDBRANCH   5  13
ENDBRANCH   1   7
BRANCH   2  17
ATOM     17  C   UNL     1       3.449   3.578  18.187  0.00  0.00    +0.000 C 
ATOM     18  C   UNL     1       2.706   2.352  17.513  0.00  0.00    +0.000 C 
ATOM     19  C   UNL     1       3.371   1.435  18.543  0.00  0.00    +0.000 C 
ATOM     20  C   UNL     1       3.514   2.661  19.461  0.00  0.00    +0.000 C 
BRANCH  17  21
ATOM     21  C   UNL     1       4.824   4.028  17.454  0.00  0.00    +0.000 A 
ATOM     22  C   UNL     1       4.887   4.126  16.043  0.00  0.00    +0.000 A 
ATOM     23  C   UNL     1       6.036   4.545  15.363  0.00  0.00    +0.000 A 
ATOM     24  C   UNL     1       7.179   4.871  16.080  0.00  0.00    +0.000 A 
ATOM     25  C   UNL     1       7.155   4.773  17.462  0.00  0.00    +0.000 A 
ATOM     26  F   UNL     1       8.253   5.085  18.163  0.00  0.00    +0.000 F 
ATOM     27  C   UNL     1       6.007   4.362  18.142  0.00  0.00    +0.000 A 
ENDBRANCH  17  21
ENDBRANCH   2  17
TORSDOF 4
ENDMDL
MODEL 3
REMARK VINA RESULT:      -8.2      2.023      3.465
REMARK  Name = 
REMARK  4 active torsions:
REMARK  status: ('A' for Active; 'I' for Inactive)
REMARK    1  A    between atoms: C_2  and  C_4
REMARK    2  A    between atoms: C_6  and  N_7
REMARK    3  A    between atoms: C_8  and  C_10
REMARK    4  A    between atoms: C_10  and  C_11
REMARK                            x       y       z     vdW  Elec       q    Type
REMARK                         _______ _______ _______ _____ _____    ______ ____
ROOT
ATOM      1  N   UNL     1       3.127   6.453  17.998  0.00  0.00    +0.000 N 
ATOM      2  C   UNL     1       4.441   6.446  17.533  0.00  0.00    +0.000 C 
ATOM      3  O   UNL     1       5.178   7.437  17.544  0.00  0.00    +0.000 OA
ATOM      4  H   UNL     1       2.678   5.557  18.123  0.00  0.00    +0.000 HD
ENDROOT
BRANCH   1   7
ATOM      5  C   UNL     1       1.307   8.833  20.251  0.00  0.00    +0.000 A 
ATOM      6  C   UNL     1       2.054   7.727  19.826  0.00  0.00    +0.000 A 
ATOM      7  C   UNL     1       2.451   7.596  18.490  0.00  0.00    +0.000 A 
ATOM      8  C   UNL     1       2.153   8.633  17.597  0.00  0.00    +0.000 A 
ATOM      9  C   UNL     1       1.423   9.747  18.022  0.00  0.00    +0.000 A 
ATOM     10  C   UNL     1       0.992   9.836  19.343  0.00  0.00    +0.000 A 
ATOM     11  F   UNL     1       0.275  10.909  19.710  0.00  0.00    +0.000 F 
BRANCH   5  13
ATOM     12  N   UNL     1      -0.395   8.440  21.944  0.00  0.00    +0.000 N 
ATOM     13  C   UNL     1       0.867   8.876  21.667  0.00  0.00    +0.000 C 
ATOM     14  O   UNL     1       1.611   9.258  22.562  0.00  0.00    +0.000 OA
ATOM     15  H   UNL     1      -0.704   8.469  22.906  0.00  0.00    +0.000 HD
ATOM     16  H   UNL     1      -1.046   8.145  21.229  0.00  0.00    +0.000 HD
ENDBRANCH   5  13
ENDBRANCH   1   7
BRANCH   2  17
ATOM     17  C   UNL     1       4.984   5.048  17.035  0.00  0.00    +0.000 C 
ATOM     18  C   UNL     1       6.558   4.945  17.172  0.00  0.00    +0.000 C 
ATOM     19  C   UNL     1       6.585   4.204  15.832  0.00  0.00    +0.000 C 
ATOM     20  C   UNL     1       5.244   4.879  15.495  0.00  0.00    +0.000 C 
BRANCH  17  21
ATOM     21  C   UNL     1       4.153   3.909  17.837  0.00  0.00    +0.000 A 
ATOM     22  C   UNL     1       3.044   3.270  17.232  0.00  0.00    +0.000 A 
ATOM     23  C   UNL     1       2.315   2.257  17.866  0.00  0.00    +0.000 A 
ATOM     24  C   UNL     1       2.668   1.853  19.145  0.00  0.00    +0.000 A 
ATOM     25  C   UNL     1       3.741   2.468  19.771  0.00  0.00    +0.000 A 
ATOM     26  F   UNL     1       4.089   2.086  21.007  0.00  0.00    +0.000 F 
ATOM     27  C   UNL     1       4.473   3.475  19.138  0.00  0.00    +0.000 A 
ENDBRANCH  17  21
ENDBRANCH   2  17
TORSDOF 4
ENDMDL
MODEL 4
REMARK VINA RESULT:      -8.2      1.030      1.187
REMARK  Name = 
REMARK  4 active torsions:
REMARK  status: ('A' for Active; 'I' for Inactive)
REMARK    1  A    between atoms: C_2  and  C_4
REMARK    2  A    between atoms: C_6  and  N_7
REMARK    3  A    between atoms: C_8  and  C_10
REMARK    4  A    between atoms: C_10  and  C_11
REMARK                            x       y       z     vdW  Elec       q    Type
REMARK                         _______ _______ _______ _____ _____    ______ ____
ROOT
ATOM      1  N   UNL     1       2.863   6.311  18.555  0.00  0.00    +0.000 N 
ATOM      2  C   UNL     1       2.627   5.083  19.167  0.00  0.00    +0.000 C 
ATOM      3  O   UNL     1       1.789   4.911  20.059  0.00  0.00    +0.000 OA
ATOM      4  H   UNL     1       3.424   6.306  17.714  0.00  0.00    +0.000 HD
ENDROOT
BRANCH   1   7
ATOM      5  C   UNL     1       1.139   9.010  20.504  0.00  0.00    +0.000 A 
ATOM      6  C   UNL     1       1.854   7.839  20.217  0.00  0.00    +0.000 A 
ATOM      7  C   UNL     1       2.221   7.525  18.903  0.00  0.00    +0.000 A 
ATOM      8  C   UNL     1       1.929   8.442  17.886  0.00  0.00    +0.000 A 
ATOM      9  C   UNL     1       1.231   9.619  18.173  0.00  0.00    +0.000 A 
ATOM     10  C   UNL     1       0.828   9.891  19.477  0.00  0.00    +0.000 A 
ATOM     11  F   UNL     1       0.142  11.020  19.712  0.00  0.00    +0.000 F 
BRANCH   5  13
ATOM     12  N   UNL     1      -0.553   8.929  22.250  0.00  0.00    +0.000 N 
ATOM     13  C   UNL     1       0.728   9.249  21.909  0.00  0.00    +0.000 C 
ATOM     14  O   UNL     1       1.510   9.688  22.744  0.00  0.00    +0.000 OA
ATOM     15  H   UNL     1      -0.843   9.091  23.205  0.00  0.00    +0.000 HD
ATOM     16  H   UNL     1      -1.233   8.592  21.582  0.00  0.00    +0.000 HD
ENDBRANCH   5  13
ENDBRANCH   1   7
BRANCH   2  17
ATOM     17  C   UNL     1       3.461   3.864  18.605  0.00  0.00    +0.000 C 
ATOM     18  C   UNL     1       2.728   3.158  17.392  0.00  0.00    +0.000 C 
ATOM     19  C   UNL     1       3.192   1.809  17.950  0.00  0.00    +0.000 C 
ATOM     20  C   UNL     1       3.300   2.480  19.330  0.00  0.00    +0.000 C 
BRANCH  17  21
ATOM     21  C   UNL     1       4.946   4.426  18.271  0.00  0.00    +0.000 A 
ATOM     22  C   UNL     1       5.718   5.056  19.278  0.00  0.00    +0.000 A 
ATOM     23  C   UNL     1       7.017   5.526  19.053  0.00  0.00    +0.000 A 
ATOM     24  C   UNL     1       7.589   5.391  17.796  0.00  0.00    +0.000 A 
ATOM     25  C   UNL     1       6.854   4.790  16.784  0.00  0.00    +0.000 A 
ATOM     26  F   UNL     1       7.397   4.656  15.567  0.00  0.00    +0.000 F 
ATOM     27  C   UNL     1       5.560   4.315  17.010  0.00  0.00    +0.000 A 
ENDBRANCH  17  21
ENDBRANCH   2  17
TORSDOF 4
ENDMDL
MODEL 5
REMARK VINA RESULT:      -8.1      1.493      1.956
REMARK  Name = 
REMARK  4 active torsions:
REMARK  status: ('A' for Active; 'I' for Inactive)
REMARK    1  A    between atoms: C_2  and  C_4
REMARK    2  A    between atoms: C_6  and  N_7
REMARK    3  A    between atoms: C_8  and  C_10
REMARK    4  A    between atoms: C_10  and  C_11
REMARK                            x       y       z     vdW  Elec       q    Type
REMARK                         _______ _______ _______ _____ _____    ______ ____
ROOT
ATOM      1  N   UNL     1       3.028   5.645  19.377  0.00  0.00    +0.000 N 
ATOM      2  C   UNL     1       2.626   4.672  18.465  0.00  0.00    +0.000 C 
ATOM      3  O   UNL     1       1.587   4.742  17.801  0.00  0.00    +0.000 OA
ATOM      4  H   UNL     1       3.977   5.589  19.722  0.00  0.00    +0.000 HD
ENDROOT
BRANCH   1   7
ATOM      5  C   UNL     1       1.451   9.042  19.211  0.00  0.00    +0.000 A 
ATOM      6  C   UNL     1       2.119   7.875  18.816  0.00  0.00    +0.000 A 
ATOM      7  C   UNL     1       2.283   6.805  19.703  0.00  0.00    +0.000 A 
ATOM      8  C   UNL     1       1.700   6.889  20.973  0.00  0.00    +0.000 A 
ATOM      9  C   UNL     1       1.018   8.045  21.364  0.00  0.00    +0.000 A 
ATOM     10  C   UNL     1       0.909   9.121  20.487  0.00  0.00    +0.000 A 
ATOM     11  F   UNL     1       0.265  10.223  20.904  0.00  0.00    +0.000 F 
BRANCH   5  13
ATOM     12  N   UNL     1       0.128  10.508  17.790  0.00  0.00    +0.000 N 
ATOM     13  C   UNL     1       1.368  10.161  18.241  0.00  0.00    +0.000 C 
ATOM     14  O   UNL     1       2.364  10.774  17.877  0.00  0.00    +0.000 OA
ATOM     15  H   UNL     1       0.063  11.268  17.126  0.00  0.00    +0.000 HD
ATOM     16  H   UNL     1      -0.712  10.007  18.046  0.00  0.00    +0.000 HD
ENDBRANCH   5  13
ENDBRANCH   1   7
BRANCH   2  17
ATOM     17  C   UNL     1       3.627   3.467  18.262  0.00  0.00    +0.000 C 
ATOM     18  C   UNL     1       2.900   2.189  17.671  0.00  0.00    +0.000 C 
ATOM     19  C   UNL     1       3.759   1.323  18.597  0.00  0.00    +0.000 C 
ATOM     20  C   UNL     1       3.923   2.554  19.506  0.00  0.00    +0.000 C 
BRANCH  17  21
ATOM     21  C   UNL     1       4.859   4.025  17.367  0.00  0.00    +0.000 A 
ATOM     22  C   UNL     1       6.057   4.460  17.986  0.00  0.00    +0.000 A 
ATOM     23  C   UNL     1       7.162   4.917  17.259  0.00  0.00    +0.000 A 
ATOM     24  C   UNL     1       7.102   4.965  15.874  0.00  0.00    +0.000 A 
ATOM     25  C   UNL     1       5.939   4.559  15.238  0.00  0.00    +0.000 A 
ATOM     26  F   UNL     1       5.871   4.604  13.901  0.00  0.00    +0.000 F 
ATOM     27  C   UNL     1       4.838   4.098  15.961  0.00  0.00    +0.000 A 
ENDBRANCH  17  21
ENDBRANCH   2  17
TORSDOF 4
ENDMDL
MODEL 6
REMARK VINA RESULT:      -8.0      1.807      2.407
REMARK  Name = 
REMARK  4 active torsions:
REMARK  status: ('A' for Active; 'I' for Inactive)
REMARK    1  A    between atoms: C_2  and  C_4
REMARK    2  A    between atoms: C_6  and  N_7
REMARK    3  A    between atoms: C_8  and  C_10
REMARK    4  A    between atoms: C_10  and  C_11
REMARK                            x       y       z     vdW  Elec       q    Type
REMARK                         _______ _______ _______ _____ _____    ______ ____
ROOT
ATOM      1  N   UNL     1       2.966   5.743  19.395  0.00  0.00    +0.000 N 
ATOM      2  C   UNL     1       2.549   4.749  18.513  0.00  0.00    +0.000 C 
ATOM      3  O   UNL     1       1.491   4.798  17.876  0.00  0.00    +0.000 OA
ATOM      4  H   UNL     1       3.925   5.702  19.715  0.00  0.00    +0.000 HD
ENDROOT
BRANCH   1   7
ATOM      5  C   UNL     1       1.417   9.153  19.236  0.00  0.00    +0.000 A 
ATOM      6  C   UNL     1       2.087   7.988  18.842  0.00  0.00    +0.000 A 
ATOM      7  C   UNL     1       2.220   6.903  19.717  0.00  0.00    +0.000 A 
ATOM      8  C   UNL     1       1.603   6.974  20.972  0.00  0.00    +0.000 A 
ATOM      9  C   UNL     1       0.919   8.128  21.362  0.00  0.00    +0.000 A 
ATOM     10  C   UNL     1       0.840   9.218  20.498  0.00  0.00    +0.000 A 
ATOM     11  F   UNL     1       0.193  10.318  20.913  0.00  0.00    +0.000 F 
BRANCH   5  13
ATOM     12  N   UNL     1       0.136  10.721  17.887  0.00  0.00    +0.000 N 
ATOM     13  C   UNL     1       1.367  10.287  18.280  0.00  0.00    +0.000 C 
ATOM     14  O   UNL     1       2.386  10.836  17.879  0.00  0.00    +0.000 OA
ATOM     15  H   UNL     1       0.093  11.492  17.234  0.00  0.00    +0.000 HD
ATOM     16  H   UNL     1      -0.724  10.274  18.175  0.00  0.00    +0.000 HD
ENDBRANCH   5  13
ENDBRANCH   1   7
BRANCH   2  17
ATOM     17  C   UNL     1       3.554   3.548  18.307  0.00  0.00    +0.000 C 
ATOM     18  C   UNL     1       2.858   2.310  17.605  0.00  0.00    +0.000 C 
ATOM     19  C   UNL     1       3.654   1.389  18.533  0.00  0.00    +0.000 C 
ATOM     20  C   UNL     1       3.768   2.568  19.516  0.00  0.00    +0.000 C 
BRANCH  17  21
ATOM     21  C   UNL     1       4.842   4.143  17.521  0.00  0.00    +0.000 A 
ATOM     22  C   UNL     1       4.884   4.139  16.106  0.00  0.00    +0.000 A 
ATOM     23  C   UNL     1       5.954   4.672  15.378  0.00  0.00    +0.000 A 
ATOM     24  C   UNL     1       7.036   5.223  16.050  0.00  0.00    +0.000 A 
ATOM     25  C   UNL     1       7.032   5.231  17.436  0.00  0.00    +0.000 A 
ATOM     26  F   UNL     1       8.072   5.760  18.094  0.00  0.00    +0.000 F 
ATOM     27  C   UNL     1       5.962   4.705  18.163  0.00  0.00    +0.000 A 
ENDBRANCH  17  21
ENDBRANCH   2  17
TORSDOF 4
ENDMDL
MODEL 7
REMARK VINA RESULT:      -8.0      1.952      3.334
REMARK  Name = 
REMARK  4 active torsions:
REMARK  status: ('A' for Active; 'I' for Inactive)
REMARK    1  A    between atoms: C_2  and  C_4
REMARK    2  A    between atoms: C_6  and  N_7
REMARK    3  A    between atoms: C_8  and  C_10
REMARK    4  A    between atoms: C_10  and  C_11
REMARK                            x       y       z     vdW  Elec       q    Type
REMARK                         _______ _______ _______ _____ _____    ______ ____
ROOT
ATOM      1  N   UNL     1       2.866   6.385  18.219  0.00  0.00    +0.000 N 
ATOM      2  C   UNL     1       4.112   6.292  17.603  0.00  0.00    +0.000 C 
ATOM      3  O   UNL     1       4.863   7.258  17.426  0.00  0.00    +0.000 OA
ATOM      4  H   UNL     1       2.418   5.519  18.487  0.00  0.00    +0.000 HD
ENDROOT
BRANCH   1   7
ATOM      5  C   UNL     1       1.251   8.976  20.396  0.00  0.00    +0.000 A 
ATOM      6  C   UNL     1       1.916   7.805  20.007  0.00  0.00    +0.000 A 
ATOM      7  C   UNL     1       2.275   7.591  18.672  0.00  0.00    +0.000 A 
ATOM      8  C   UNL     1       2.027   8.605  17.738  0.00  0.00    +0.000 A 
ATOM      9  C   UNL     1       1.380   9.782  18.126  0.00  0.00    +0.000 A 
ATOM     10  C   UNL     1       0.983   9.956  19.449  0.00  0.00    +0.000 A 
ATOM     11  F   UNL     1       0.345  11.089  19.781  0.00  0.00    +0.000 F 
BRANCH   5  13
ATOM     12  N   UNL     1      -0.440   8.778  22.133  0.00  0.00    +0.000 N 
ATOM     13  C   UNL     1       0.845   9.109  21.816  0.00  0.00    +0.000 C 
ATOM     14  O   UNL     1       1.632   9.472  22.681  0.00  0.00    +0.000 OA
ATOM     15  H   UNL     1      -0.726   8.869  23.099  0.00  0.00    +0.000 HD
ATOM     16  H   UNL     1      -1.125   8.502  21.442  0.00  0.00    +0.000 HD
ENDBRANCH   5  13
ENDBRANCH   1   7
BRANCH   2  17
ATOM     17  C   UNL     1       4.565   4.837  17.187  0.00  0.00    +0.000 C 
ATOM     18  C   UNL     1       6.139   4.670  17.244  0.00  0.00    +0.000 C 
ATOM     19  C   UNL     1       6.055   3.831  15.966  0.00  0.00    +0.000 C 
ATOM     20  C   UNL     1       4.726   4.540  15.653  0.00  0.00    +0.000 C 
BRANCH  17  21
ATOM     21  C   UNL     1       3.734   3.802  18.120  0.00  0.00    +0.000 A 
ATOM     22  C   UNL     1       4.295   3.314  19.325  0.00  0.00    +0.000 A 
ATOM     23  C   UNL     1       3.608   2.448  20.184  0.00  0.00    +0.000 A 
ATOM     24  C   UNL     1       2.327   2.029  19.856  0.00  0.00    +0.000 A 
ATOM     25  C   UNL     1       1.753   2.478  18.677  0.00  0.00    +0.000 A 
ATOM     26  F   UNL     1       0.517   2.078  18.351  0.00  0.00    +0.000 F 
ATOM     27  C   UNL     1       2.436   3.347  17.822  0.00  0.00    +0.000 A 
ENDBRANCH  17  21
ENDBRANCH   2  17
TORSDOF 4
ENDMDL
MODEL 8
REMARK VINA RESULT:      -7.9      1.370      1.713
REMARK  Name = 
REMARK  4 active torsions:
REMARK  status: ('A' for Active; 'I' for Inactive)
REMARK    1  A    between atoms: C_2  and  C_4
REMARK    2  A    between atoms: C_6  and  N_7
REMARK    3  A    between atoms: C_8  and  C_10
REMARK    4  A    between atoms: C_10  and  C_11
REMARK                            x       y       z     vdW  Elec       q    Type
REMARK                         _______ _______ _______ _____ _____    ______ ____
ROOT
ATOM      1  N   UNL     1       2.214   6.360  18.411  0.00  0.00    +0.000 N 
ATOM      2  C   UNL     1       3.187   5.522  18.952  0.00  0.00    +0.000 C 
ATOM      3  O   UNL     1       3.813   5.777  19.986  0.00  0.00    +0.000 OA
ATOM      4  H   UNL     1       1.631   5.977  17.679  0.00  0.00    +0.000 HD
ENDROOT
BRANCH   1   7
ATOM      5  C   UNL     1       1.101   9.073  20.747  0.00  0.00    +0.000 A 
ATOM      6  C   UNL     1       1.540   7.824  20.286  0.00  0.00    +0.000 A 
ATOM      7  C   UNL     1       1.853   7.625  18.937  0.00  0.00    +0.000 A 
ATOM      8  C   UNL     1       1.793   8.719  18.064  0.00  0.00    +0.000 A 
ATOM      9  C   UNL     1       1.371   9.970  18.524  0.00  0.00    +0.000 A 
ATOM     10  C   UNL     1       1.013  10.137  19.860  0.00  0.00    +0.000 A 
ATOM     11  F   UNL     1       0.593  11.347  20.261  0.00  0.00    +0.000 F 
BRANCH   5  13
ATOM     12  N   UNL     1      -0.559   8.892  22.517  0.00  0.00    +0.000 N 
ATOM     13  C   UNL     1       0.727   9.197  22.177  0.00  0.00    +0.000 C 
ATOM     14  O   UNL     1       1.541   9.529  23.029  0.00  0.00    +0.000 OA
ATOM     15  H   UNL     1      -0.823   8.977  23.489  0.00  0.00    +0.000 HD
ATOM     16  H   UNL     1      -1.264   8.643  21.837  0.00  0.00    +0.000 HD
ENDBRANCH   5  13
ENDBRANCH   1   7
BRANCH   2  17
ATOM     17  C   UNL     1       3.414   4.155  18.193  0.00  0.00    +0.000 C 
ATOM     18  C   UNL     1       2.143   3.732  17.347  0.00  0.00    +0.000 C 
ATOM     19  C   UNL     1       2.394   2.283  17.772  0.00  0.00    +0.000 C 
ATOM     20  C   UNL     1       3.152   2.830  18.994  0.00  0.00    +0.000 C 
BRANCH  17  21
ATOM     21  C   UNL     1       4.781   4.316  17.335  0.00  0.00    +0.000 A 
ATOM     22  C   UNL     1       4.730   4.574  15.944  0.00  0.00    +0.000 A 
ATOM     23  C   UNL     1       5.878   4.757  15.164  0.00  0.00    +0.000 A 
ATOM     24  C   UNL     1       7.130   4.675  15.755  0.00  0.00    +0.000 A 
ATOM     25  C   UNL     1       7.216   4.411  17.114  0.00  0.00    +0.000 A 
ATOM     26  F   UNL     1       8.421   4.330  17.693  0.00  0.00    +0.000 F 
ATOM     27  C   UNL     1       6.071   4.235  17.893  0.00  0.00    +0.000 A 
ENDBRANCH  17  21
ENDBRANCH   2  17
TORSDOF 4
ENDMDL
MODEL 9
REMARK VINA RESULT:      -7.8      2.341      2.909
REMARK  Name = 
REMARK  4 active torsions:
REMARK  status: ('A' for Active; 'I' for Inactive)
REMARK    1  A    between atoms: C_2  and  C_4
REMARK    2  A    between atoms: C_6  and  N_7
REMARK    3  A    between atoms: C_8  and  C_10
REMARK    4  A    between atoms: C_10  and  C_11
REMARK                            x       y       z     vdW  Elec       q    Type
REMARK                         _______ _______ _______ _____ _____    ______ ____
ROOT
ATOM      1  N   UNL     1       2.681   6.654  19.862  0.00  0.00    +0.000 N 
ATOM      2  C   UNL     1       2.589   5.816  18.753  0.00  0.00    +0.000 C 
ATOM      3  O   UNL     1       1.757   5.959  17.851  0.00  0.00    +0.000 OA
ATOM      4  H   UNL     1       3.508   6.569  20.437  0.00  0.00    +0.000 HD
ENDROOT
BRANCH   1   7
ATOM      5  C   UNL     1       0.892   9.941  19.631  0.00  0.00    +0.000 A 
ATOM      6  C   UNL     1       1.698   8.848  19.283  0.00  0.00    +0.000 A 
ATOM      7  C   UNL     1       1.810   7.739  20.129  0.00  0.00    +0.000 A 
ATOM      8  C   UNL     1       1.039   7.705  21.298  0.00  0.00    +0.000 A 
ATOM      9  C   UNL     1       0.221   8.785  21.639  0.00  0.00    +0.000 A 
ATOM     10  C   UNL     1       0.161   9.904  20.812  0.00  0.00    +0.000 A 
ATOM     11  F   UNL     1      -0.618  10.932  21.181  0.00  0.00    +0.000 F 
BRANCH   5  13
ATOM     12  N   UNL     1      -0.298  11.368  18.061  0.00  0.00    +0.000 N 
ATOM     13  C   UNL     1       0.869  11.110  18.718  0.00  0.00    +0.000 C 
ATOM     14  O   UNL     1       1.844  11.837  18.577  0.00  0.00    +0.000 OA
ATOM     15  H   UNL     1      -0.322  12.161  17.434  0.00  0.00    +0.000 HD
ATOM     16  H   UNL     1      -1.113  10.774  18.131  0.00  0.00    +0.000 HD
ENDBRANCH   5  13
ENDBRANCH   1   7
BRANCH   2  17
ATOM     17  C   UNL     1       3.678   4.673  18.665  0.00  0.00    +0.000 C 
ATOM     18  C   UNL     1       3.297   3.577  17.587  0.00  0.00    +0.000 C 
ATOM     19  C   UNL     1       3.829   2.509  18.546  0.00  0.00    +0.000 C 
ATOM     20  C   UNL     1       3.576   3.495  19.699  0.00  0.00    +0.000 C 
BRANCH  17  21
ATOM     21  C   UNL     1       5.105   5.404  18.421  0.00  0.00    +0.000 A 
ATOM     22  C   UNL     1       5.252   6.368  17.394  0.00  0.00    +0.000 A 
ATOM     23  C   UNL     1       6.450   7.053  17.164  0.00  0.00    +0.000 A 
ATOM     24  C   UNL     1       7.559   6.784  17.955  0.00  0.00    +0.000 A 
ATOM     25  C   UNL     1       7.453   5.835  18.960  0.00  0.00    +0.000 A 
ATOM     26  F   UNL     1       8.517   5.568  19.728  0.00  0.00    +0.000 F 
ATOM     27  C   UNL     1       6.255   5.156  19.195  0.00  0.00    +0.000 A 
ENDBRANCH  17  21
ENDBRANCH   2  17
TORSDOF 4
ENDMDL
