MODEL 1
REMARK VINA RESULT:      -9.7      0.000      0.000
REMARK  Name = 
REMARK  6 active torsions:
REMARK  status: ('A' for Active; 'I' for Inactive)
REMARK    1  A    between atoms: C_1  and  C_2
REMARK    2  A    between atoms: C_2  and  N_3
REMARK    3  A    between atoms: C_2  and  C_19
REMARK    4  A    between atoms: C_2  and  C_25
REMARK    5  A    between atoms: N_6  and  C_7
REMARK    6  A    between atoms: C_11  and  N_12
REMARK                            x       y       z     vdW  Elec       q    Type
REMARK                         _______ _______ _______ _____ _____    ______ ____
ROOT
ATOM      1  N   UNL     1       6.978   7.429  17.046  0.00  0.00    +0.000 N 
ATOM      2  C   UNL     1       7.845   8.085  17.894  0.00  0.00    +0.000 C 
ATOM      3  O   UNL     1       8.398   7.503  18.820  0.00  0.00    +0.000 OA
ATOM      4  N   UNL     1       8.006   9.424  17.574  0.00  0.00    +0.000 N 
ATOM      5  H   UNL     1       6.308   7.999  16.561  0.00  0.00    +0.000 HD
ATOM      6  H   UNL     1       7.461   9.783  16.808  0.00  0.00    +0.000 HD
ENDROOT
BRANCH   4   7
ATOM      7  C   UNL     1       8.826  10.351  18.279  0.00  0.00    +0.000 A 
ATOM      8  C   UNL     1       9.303  10.089  19.566  0.00  0.00    +0.000 A 
ATOM      9  C   UNL     1      10.077  11.019  20.250  0.00  0.00    +0.000 A 
ATOM     10  C   UNL     1      10.415  12.218  19.640  0.00  0.00    +0.000 A 
ATOM     11  C   UNL     1       9.989  12.513  18.342  0.00  0.00    +0.000 A 
ATOM     12  C   UNL     1       9.175  11.574  17.669  0.00  0.00    +0.000 A 
BRANCH  11  13
ATOM     13  N   UNL     1      10.363  13.750  17.763  0.00  0.00    +0.000 N 
ATOM     14  C   UNL     1       9.634  14.987  17.920  0.00  0.00    +0.000 C 
ATOM     15  C   UNL     1      10.663  16.045  17.528  0.00  0.00    +0.000 C 
ATOM     16  N   UNL     1      11.564  15.329  16.677  0.00  0.00    +0.000 N 
ATOM     17  C   UNL     1      11.502  13.968  16.958  0.00  0.00    +0.000 C 
ATOM     18  O   UNL     1      12.330  13.176  16.540  0.00  0.00    +0.000 OA
ATOM     19  H   UNL     1      12.421  15.689  16.275  0.00  0.00    +0.000 HD
ENDBRANCH  11  13
ENDBRANCH   4   7
BRANCH   1  21
ATOM     20  C   UNL     1       7.637   5.256  18.095  0.00  0.00    +0.000 C 
ATOM     21  C   UNL     1       6.550   6.023  17.290  0.00  0.00    +0.000 C 
BRANCH  21  22
ATOM     22  C   UNL     1       6.500   5.267  15.925  0.00  0.00    +0.000 A 
ATOM     23  C   UNL     1       7.491   5.448  14.942  0.00  0.00    +0.000 A 
ATOM     24  C   UNL     1       7.397   4.823  13.691  0.00  0.00    +0.000 A 
ATOM     25  C   UNL     1       6.302   4.020  13.394  0.00  0.00    +0.000 A 
ATOM     26  C   UNL     1       5.296   3.844  14.339  0.00  0.00    +0.000 A 
ATOM     27  C   UNL     1       5.389   4.467  15.582  0.00  0.00    +0.000 A 
ENDBRANCH  21  22
BRANCH  21  28
ATOM     28  C   UNL     1       5.166   6.051  17.993  0.00  0.00    +0.000 A 
ATOM     29  C   UNL     1       4.111   6.874  17.552  0.00  0.00    +0.000 A 
ATOM     30  C   UNL     1       2.864   6.866  18.183  0.00  0.00    +0.000 A 
ATOM     31  C   UNL     1       2.639   6.032  19.272  0.00  0.00    +0.000 A 
ATOM     32  C   UNL     1       3.660   5.204  19.729  0.00  0.00    +0.000 A 
ATOM     33  C   UNL     1       4.909   5.212  19.097  0.00  0.00    +0.000 A 
ENDBRANCH  21  28
ENDBRANCH   1  21
TORSDOF 5
ENDMDL
MODEL 2
REMARK VINA RESULT:      -9.5      1.009      1.458
REMARK  Name = 
REMARK  6 active torsions:
REMARK  status: ('A' for Active; 'I' for Inactive)
REMARK    1  A    between atoms: C_1  and  C_2
REMARK    2  A    between atoms: C_2  and  N_3
REMARK    3  A    between atoms: C_2  and  C_19
REMARK    4  A    between atoms: C_2  and  C_25
REMARK    5  A    between atoms: N_6  and  C_7
REMARK    6  A    between atoms: C_11  and  N_12
REMARK                            x       y       z     vdW  Elec       q    Type
REMARK                         _______ _______ _______ _____ _____    ______ ____
ROOT
ATOM      1  N   UNL     1       7.048   7.406  16.897  0.00  0.00    +0.000 N 
ATOM      2  C   UNL     1       7.826   8.056  17.832  0.00  0.00    +0.000 C 
ATOM      3  O   UNL     1       8.254   7.477  18.823  0.00  0.00    +0.000 OA
ATOM      4  N   UNL     1       8.055   9.386  17.515  0.00  0.00    +0.000 N 
ATOM      5  H   UNL     1       6.453   7.983  16.330  0.00  0.00    +0.000 HD
ATOM      6  H   UNL     1       7.611   9.745  16.687  0.00  0.00    +0.000 HD
ENDROOT
BRANCH   4   7
ATOM      7  C   UNL     1       8.809  10.306  18.298  0.00  0.00    +0.000 A 
ATOM      8  C   UNL     1       9.290   9.977  19.569  0.00  0.00    +0.000 A 
ATOM      9  C   UNL     1       9.998  10.899  20.331  0.00  0.00    +0.000 A 
ATOM     10  C   UNL     1      10.267  12.159  19.817  0.00  0.00    +0.000 A 
ATOM     11  C   UNL     1       9.834  12.525  18.538  0.00  0.00    +0.000 A 
ATOM     12  C   UNL     1       9.087  11.591  17.786  0.00  0.00    +0.000 A 
BRANCH  11  13
ATOM     13  N   UNL     1      10.136  13.822  18.059  0.00  0.00    +0.000 N 
ATOM     14  C   UNL     1      11.447  14.264  17.647  0.00  0.00    +0.000 C 
ATOM     15  C   UNL     1      11.145  15.505  16.810  0.00  0.00    +0.000 C 
ATOM     16  N   UNL     1       9.879  15.943  17.313  0.00  0.00    +0.000 N 
ATOM     17  C   UNL     1       9.208  14.875  17.901  0.00  0.00    +0.000 C 
ATOM     18  O   UNL     1       8.026  14.928  18.194  0.00  0.00    +0.000 OA
ATOM     19  H   UNL     1       9.322  16.707  16.952  0.00  0.00    +0.000 HD
ENDBRANCH  11  13
ENDBRANCH   4   7
BRANCH   1  21
ATOM     20  C   UNL     1       7.636   5.170  17.852  0.00  0.00    +0.000 C 
ATOM     21  C   UNL     1       6.563   6.014  17.108  0.00  0.00    +0.000 C 
BRANCH  21  22
ATOM     22  C   UNL     1       6.434   5.309  15.721  0.00  0.00    +0.000 A 
ATOM     23  C   UNL     1       5.398   4.397  15.447  0.00  0.00    +0.000 A 
ATOM     24  C   UNL     1       5.335   3.714  14.225  0.00  0.00    +0.000 A 
ATOM     25  C   UNL     1       6.316   3.917  13.262  0.00  0.00    +0.000 A 
ATOM     26  C   UNL     1       7.365   4.795  13.516  0.00  0.00    +0.000 A 
ATOM     27  C   UNL     1       7.429   5.473  14.732  0.00  0.00    +0.000 A 
ENDBRANCH  21  22
BRANCH  21  28
ATOM     28  C   UNL     1       5.203   6.081  17.856  0.00  0.00    +0.000 A 
ATOM     29  C   UNL     1       4.164   6.944  17.458  0.00  0.00    +0.000 A 
ATOM     30  C   UNL     1       2.938   6.971  18.129  0.00  0.00    +0.000 A 
ATOM     31  C   UNL     1       2.720   6.134  19.218  0.00  0.00    +0.000 A 
ATOM     32  C   UNL     1       3.727   5.268  19.633  0.00  0.00    +0.000 A 
ATOM     33  C   UNL     1       4.954   5.240  18.961  0.00  0.00    +0.000 A 
ENDBRANCH  21  28
ENDBRANCH   1  21
TORSDOF 5
ENDMDL
MODEL 3
REMARK VINA RESULT:      -9.5      1.049      1.485
REMARK  Name = 
REMARK  6 active torsions:
REMARK  status: ('A' for Active; 'I' for Inactive)
REMARK    1  A    between atoms: C_1  and  C_2
REMARK    2  A    between atoms: C_2  and  N_3
REMARK    3  A    between atoms: C_2  and  C_19
REMARK    4  A    between atoms: C_2  and  C_25
REMARK    5  A    between atoms: N_6  and  C_7
REMARK    6  A    between atoms: C_11  and  N_12
REMARK                            x       y       z     vdW  Elec       q    Type
REMARK                         _______ _______ _______ _____ _____    ______ ____
ROOT
ATOM      1  N   UNL     1       7.151   7.234  16.871  0.00  0.00    +0.000 N 
ATOM      2  C   UNL     1       7.846   7.919  17.846  0.00  0.00    +0.000 C 
ATOM      3  O   UNL     1       8.186   7.377  18.891  0.00  0.00    +0.000 OA
ATOM      4  N   UNL     1       8.101   9.237  17.503  0.00  0.00    +0.000 N 
ATOM      5  H   UNL     1       6.608   7.788  16.234  0.00  0.00    +0.000 HD
ATOM      6  H   UNL     1       7.730   9.566  16.627  0.00  0.00    +0.000 HD
ENDROOT
BRANCH   4   7
ATOM      7  C   UNL     1       8.784  10.187  18.315  0.00  0.00    +0.000 A 
ATOM      8  C   UNL     1       9.203   9.886  19.615  0.00  0.00    +0.000 A 
ATOM      9  C   UNL     1       9.841  10.836  20.403  0.00  0.00    +0.000 A 
ATOM     10  C   UNL     1      10.103  12.097  19.889  0.00  0.00    +0.000 A 
ATOM     11  C   UNL     1       9.732  12.437  18.584  0.00  0.00    +0.000 A 
ATOM     12  C   UNL     1       9.054  11.473  17.804  0.00  0.00    +0.000 A 
BRANCH  11  13
ATOM     13  N   UNL     1      10.023  13.737  18.106  0.00  0.00    +0.000 N 
ATOM     14  C   UNL     1      11.334  14.195  17.712  0.00  0.00    +0.000 C 
ATOM     15  C   UNL     1      11.028  15.430  16.868  0.00  0.00    +0.000 C 
ATOM     16  N   UNL     1       9.749  15.852  17.353  0.00  0.00    +0.000 N 
ATOM     17  C   UNL     1       9.084  14.777  17.933  0.00  0.00    +0.000 C 
ATOM     18  O   UNL     1       7.897  14.815  18.210  0.00  0.00    +0.000 OA
ATOM     19  H   UNL     1       9.187  16.609  16.982  0.00  0.00    +0.000 HD
ENDBRANCH  11  13
ENDBRANCH   4   7
BRANCH   1  21
ATOM     20  C   UNL     1       7.702   5.003  17.859  0.00  0.00    +0.000 C 
ATOM     21  C   UNL     1       6.649   5.848  17.089  0.00  0.00    +0.000 C 
BRANCH  21  22
ATOM     22  C   UNL     1       6.537   5.130  15.707  0.00  0.00    +0.000 A 
ATOM     23  C   UNL     1       7.461   5.366  14.673  0.00  0.00    +0.000 A 
ATOM     24  C   UNL     1       7.309   4.774  13.412  0.00  0.00    +0.000 A 
ATOM     25  C   UNL     1       6.220   3.949  13.157  0.00  0.00    +0.000 A 
ATOM     26  C   UNL     1       5.278   3.718  14.154  0.00  0.00    +0.000 A 
ATOM     27  C   UNL     1       5.429   4.308  15.407  0.00  0.00    +0.000 A 
ENDBRANCH  21  22
BRANCH  21  28
ATOM     28  C   UNL     1       5.279   5.936  17.814  0.00  0.00    +0.000 A 
ATOM     29  C   UNL     1       4.966   5.143  18.936  0.00  0.00    +0.000 A 
ATOM     30  C   UNL     1       3.736   5.256  19.590  0.00  0.00    +0.000 A 
ATOM     31  C   UNL     1       2.786   6.167  19.140  0.00  0.00    +0.000 A 
ATOM     32  C   UNL     1       3.068   6.967  18.037  0.00  0.00    +0.000 A 
ATOM     33  C   UNL     1       4.300   6.855  17.381  0.00  0.00    +0.000 A 
ENDBRANCH  21  28
ENDBRANCH   1  21
TORSDOF 5
ENDMDL
MODEL 4
REMARK VINA RESULT:      -9.4      6.196      8.621
REMARK  Name = 
REMARK  6 active torsions:
REMARK  status: ('A' for Active; 'I' for Inactive)
REMARK    1  A    between atoms: C_1  and  C_2
REMARK    2  A    between atoms: C_2  and  N_3
REMARK    3  A    between atoms: C_2  and  C_19
REMARK    4  A    between atoms: C_2  and  C_25
REMARK    5  A    between atoms: N_6  and  C_7
REMARK    6  A    between atoms: C_11  and  N_12
REMARK                            x       y       z     vdW  Elec       q    Type
REMARK                         _______ _______ _______ _____ _____    ______ ____
ROOT
ATOM      1  N   UNL     1       3.041   7.070  17.635  0.00  0.00    +0.000 N 
ATOM      2  C   UNL     1       2.229   7.840  18.442  0.00  0.00    +0.000 C 
ATOM      3  O   UNL     1       2.161   7.648  19.651  0.00  0.00    +0.000 OA
ATOM      4  N   UNL     1       1.537   8.815  17.742  0.00  0.00    +0.000 N 
ATOM      5  H   UNL     1       2.795   7.029  16.662  0.00  0.00    +0.000 HD
ATOM      6  H   UNL     1       1.657   8.837  16.743  0.00  0.00    +0.000 HD
ENDROOT
BRANCH   4   7
ATOM      7  C   UNL     1       0.618   9.745  18.306  0.00  0.00    +0.000 A 
ATOM      8  C   UNL     1       0.943  10.527  19.418  0.00  0.00    +0.000 A 
ATOM      9  C   UNL     1       0.021  11.407  19.973  0.00  0.00    +0.000 A 
ATOM     10  C   UNL     1      -1.235  11.544  19.401  0.00  0.00    +0.000 A 
ATOM     11  C   UNL     1      -1.597  10.807  18.269  0.00  0.00    +0.000 A 
ATOM     12  C   UNL     1      -0.663   9.891  17.733  0.00  0.00    +0.000 A 
BRANCH  11  13
ATOM     13  N   UNL     1      -2.890  10.984  17.722  0.00  0.00    +0.000 N 
ATOM     14  C   UNL     1      -4.065  11.339  18.483  0.00  0.00    +0.000 C 
ATOM     15  C   UNL     1      -5.027  11.851  17.413  0.00  0.00    +0.000 C 
ATOM     16  N   UNL     1      -4.568  11.205  16.221  0.00  0.00    +0.000 N 
ATOM     17  C   UNL     1      -3.229  10.853  16.358  0.00  0.00    +0.000 C 
ATOM     18  O   UNL     1      -2.545  10.505  15.410  0.00  0.00    +0.000 OA
ATOM     19  H   UNL     1      -4.922  11.355  15.284  0.00  0.00    +0.000 HD
ENDBRANCH  11  13
ENDBRANCH   4   7
BRANCH   1  21
ATOM     20  C   UNL     1       4.798   6.297  19.238  0.00  0.00    +0.000 C 
ATOM     21  C   UNL     1       3.765   5.877  18.155  0.00  0.00    +0.000 C 
BRANCH  21  22
ATOM     22  C   UNL     1       4.647   5.285  17.011  0.00  0.00    +0.000 A 
ATOM     23  C   UNL     1       5.103   6.078  15.942  0.00  0.00    +0.000 A 
ATOM     24  C   UNL     1       5.832   5.521  14.883  0.00  0.00    +0.000 A 
ATOM     25  C   UNL     1       6.102   4.158  14.864  0.00  0.00    +0.000 A 
ATOM     26  C   UNL     1       5.642   3.346  15.896  0.00  0.00    +0.000 A 
ATOM     27  C   UNL     1       4.917   3.900  16.949  0.00  0.00    +0.000 A 
ENDBRANCH  21  22
BRANCH  21  28
ATOM     28  C   UNL     1       2.713   4.857  18.669  0.00  0.00    +0.000 A 
ATOM     29  C   UNL     1       1.742   4.283  17.825  0.00  0.00    +0.000 A 
ATOM     30  C   UNL     1       0.820   3.347  18.302  0.00  0.00    +0.000 A 
ATOM     31  C   UNL     1       0.847   2.958  19.637  0.00  0.00    +0.000 A 
ATOM     32  C   UNL     1       1.798   3.504  20.494  0.00  0.00    +0.000 A 
ATOM     33  C   UNL     1       2.721   4.441  20.017  0.00  0.00    +0.000 A 
ENDBRANCH  21  28
ENDBRANCH   1  21
TORSDOF 5
ENDMDL
MODEL 5
REMARK VINA RESULT:      -9.4      0.711      1.151
REMARK  Name = 
REMARK  6 active torsions:
REMARK  status: ('A' for Active; 'I' for Inactive)
REMARK    1  A    between atoms: C_1  and  C_2
REMARK    2  A    between atoms: C_2  and  N_3
REMARK    3  A    between atoms: C_2  and  C_19
REMARK    4  A    between atoms: C_2  and  C_25
REMARK    5  A    between atoms: N_6  and  C_7
REMARK    6  A    between atoms: C_11  and  N_12
REMARK                            x       y       z     vdW  Elec       q    Type
REMARK                         _______ _______ _______ _____ _____    ______ ____
ROOT
ATOM      1  N   UNL     1       7.233   7.157  16.694  0.00  0.00    +0.000 N 
ATOM      2  C   UNL     1       7.800   7.888  17.717  0.00  0.00    +0.000 C 
ATOM      3  O   UNL     1       7.979   7.404  18.828  0.00  0.00    +0.000 OA
ATOM      4  N   UNL     1       8.131   9.180  17.339  0.00  0.00    +0.000 N 
ATOM      5  H   UNL     1       6.796   7.681  15.956  0.00  0.00    +0.000 HD
ATOM      6  H   UNL     1       7.894   9.461  16.402  0.00  0.00    +0.000 HD
ENDROOT
BRANCH   4   7
ATOM      7  C   UNL     1       8.716  10.165  18.184  0.00  0.00    +0.000 A 
ATOM      8  C   UNL     1       9.253   9.845  19.434  0.00  0.00    +0.000 A 
ATOM      9  C   UNL     1       9.793  10.827  20.258  0.00  0.00    +0.000 A 
ATOM     10  C   UNL     1       9.834  12.144  19.827  0.00  0.00    +0.000 A 
ATOM     11  C   UNL     1       9.338  12.510  18.572  0.00  0.00    +0.000 A 
ATOM     12  C   UNL     1       8.762  11.509  17.757  0.00  0.00    +0.000 A 
BRANCH  11  13
ATOM     13  N   UNL     1       9.405  13.868  18.178  0.00  0.00    +0.000 N 
ATOM     14  C   UNL     1       8.319  14.813  18.291  0.00  0.00    +0.000 C 
ATOM     15  C   UNL     1       9.027  16.163  18.192  0.00  0.00    +0.000 C 
ATOM     16  N   UNL     1      10.226  15.855  17.475  0.00  0.00    +0.000 N 
ATOM     17  C   UNL     1      10.537  14.508  17.628  0.00  0.00    +0.000 C 
ATOM     18  O   UNL     1      11.623  14.048  17.315  0.00  0.00    +0.000 OA
ATOM     19  H   UNL     1      10.986  16.494  17.277  0.00  0.00    +0.000 HD
ENDBRANCH  11  13
ENDBRANCH   4   7
BRANCH   1  21
ATOM     20  C   UNL     1       7.723   4.883  17.614  0.00  0.00    +0.000 C 
ATOM     21  C   UNL     1       6.674   5.794  16.917  0.00  0.00    +0.000 C 
BRANCH  21  22
ATOM     22  C   UNL     1       6.450   5.108  15.533  0.00  0.00    +0.000 A 
ATOM     23  C   UNL     1       5.395   4.202  15.318  0.00  0.00    +0.000 A 
ATOM     24  C   UNL     1       5.248   3.535  14.094  0.00  0.00    +0.000 A 
ATOM     25  C   UNL     1       6.162   3.750  13.069  0.00  0.00    +0.000 A 
ATOM     26  C   UNL     1       7.228   4.622  13.263  0.00  0.00    +0.000 A 
ATOM     27  C   UNL     1       7.375   5.284  14.481  0.00  0.00    +0.000 A 
ENDBRANCH  21  22
BRANCH  21  28
ATOM     28  C   UNL     1       5.351   5.937  17.718  0.00  0.00    +0.000 A 
ATOM     29  C   UNL     1       4.317   6.807  17.320  0.00  0.00    +0.000 A 
ATOM     30  C   UNL     1       3.123   6.902  18.041  0.00  0.00    +0.000 A 
ATOM     31  C   UNL     1       2.932   6.128  19.180  0.00  0.00    +0.000 A 
ATOM     32  C   UNL     1       3.934   5.257  19.597  0.00  0.00    +0.000 A 
ATOM     33  C   UNL     1       5.129   5.161  18.875  0.00  0.00    +0.000 A 
ENDBRANCH  21  28
ENDBRANCH   1  21
TORSDOF 5
ENDMDL
MODEL 6
REMARK VINA RESULT:      -9.4      6.187      8.661
REMARK  Name = 
REMARK  6 active torsions:
REMARK  status: ('A' for Active; 'I' for Inactive)
REMARK    1  A    between atoms: C_1  and  C_2
REMARK    2  A    between atoms: C_2  and  N_3
REMARK    3  A    between atoms: C_2  and  C_19
REMARK    4  A    between atoms: C_2  and  C_25
REMARK    5  A    between atoms: N_6  and  C_7
REMARK    6  A    between atoms: C_11  and  N_12
REMARK                            x       y       z     vdW  Elec       q    Type
REMARK                         _______ _______ _______ _____ _____    ______ ____
ROOT
ATOM      1  N   UNL     1       3.071   7.040  17.637  0.00  0.00    +0.000 N 
ATOM      2  C   UNL     1       2.254   7.791  18.454  0.00  0.00    +0.000 C 
ATOM      3  O   UNL     1       2.181   7.578  19.659  0.00  0.00    +0.000 OA
ATOM      4  N   UNL     1       1.561   8.777  17.768  0.00  0.00    +0.000 N 
ATOM      5  H   UNL     1       2.830   7.015  16.661  0.00  0.00    +0.000 HD
ATOM      6  H   UNL     1       1.686   8.818  16.770  0.00  0.00    +0.000 HD
ENDROOT
BRANCH   4   7
ATOM      7  C   UNL     1       0.636   9.693  18.345  0.00  0.00    +0.000 A 
ATOM      8  C   UNL     1       0.951  10.449  19.479  0.00  0.00    +0.000 A 
ATOM      9  C   UNL     1       0.024  11.316  20.045  0.00  0.00    +0.000 A 
ATOM     10  C   UNL     1      -1.227  11.466  19.465  0.00  0.00    +0.000 A 
ATOM     11  C   UNL     1      -1.578  10.756  18.312  0.00  0.00    +0.000 A 
ATOM     12  C   UNL     1      -0.639   9.853  17.764  0.00  0.00    +0.000 A 
BRANCH  11  13
ATOM     13  N   UNL     1      -2.866  10.946  17.757  0.00  0.00    +0.000 N 
ATOM     14  C   UNL     1      -4.024  11.392  18.496  0.00  0.00    +0.000 C 
ATOM     15  C   UNL     1      -4.970  11.870  17.397  0.00  0.00    +0.000 C 
ATOM     16  N   UNL     1      -4.541  11.133  16.248  0.00  0.00    +0.000 N 
ATOM     17  C   UNL     1      -3.215  10.741  16.405  0.00  0.00    +0.000 C 
ATOM     18  O   UNL     1      -2.549  10.308  15.480  0.00  0.00    +0.000 OA
ATOM     19  H   UNL     1      -4.893  11.236  15.304  0.00  0.00    +0.000 HD
ENDBRANCH  11  13
ENDBRANCH   4   7
BRANCH   1  21
ATOM     20  C   UNL     1       4.899   6.255  19.153  0.00  0.00    +0.000 C 
ATOM     21  C   UNL     1       3.797   5.840  18.138  0.00  0.00    +0.000 C 
BRANCH  21  22
ATOM     22  C   UNL     1       4.601   5.207  16.958  0.00  0.00    +0.000 A 
ATOM     23  C   UNL     1       4.936   3.840  16.940  0.00  0.00    +0.000 A 
ATOM     24  C   UNL     1       5.720   3.298  15.914  0.00  0.00    +0.000 A 
ATOM     25  C   UNL     1       6.199   4.115  14.897  0.00  0.00    +0.000 A 
ATOM     26  C   UNL     1       5.904   5.475  14.904  0.00  0.00    +0.000 A 
ATOM     27  C   UNL     1       5.124   6.014  15.925  0.00  0.00    +0.000 A 
ENDBRANCH  21  22
BRANCH  21  28
ATOM     28  C   UNL     1       2.754   4.853  18.730  0.00  0.00    +0.000 A 
ATOM     29  C   UNL     1       2.739   4.498  20.093  0.00  0.00    +0.000 A 
ATOM     30  C   UNL     1       1.775   3.627  20.611  0.00  0.00    +0.000 A 
ATOM     31  C   UNL     1       0.801   3.089  19.778  0.00  0.00    +0.000 A 
ATOM     32  C   UNL     1       0.787   3.424  18.427  0.00  0.00    +0.000 A 
ATOM     33  C   UNL     1       1.752   4.296  17.908  0.00  0.00    +0.000 A 
ENDBRANCH  21  28
ENDBRANCH   1  21
TORSDOF 5
ENDMDL
MODEL 7
REMARK VINA RESULT:      -9.2      6.224      8.590
REMARK  Name = 
REMARK  6 active torsions:
REMARK  status: ('A' for Active; 'I' for Inactive)
REMARK    1  A    between atoms: C_1  and  C_2
REMARK    2  A    between atoms: C_2  and  N_3
REMARK    3  A    between atoms: C_2  and  C_19
REMARK    4  A    between atoms: C_2  and  C_25
REMARK    5  A    between atoms: N_6  and  C_7
REMARK    6  A    between atoms: C_11  and  N_12
REMARK                            x       y       z     vdW  Elec       q    Type
REMARK                         _______ _______ _______ _____ _____    ______ ____
ROOT
ATOM      1  N   UNL     1       3.115   7.004  17.750  0.00  0.00    +0.000 N 
ATOM      2  C   UNL     1       2.327   7.723  18.623  0.00  0.00    +0.000 C 
ATOM      3  O   UNL     1       2.264   7.438  19.813  0.00  0.00    +0.000 OA
ATOM      4  N   UNL     1       1.652   8.766  18.008  0.00  0.00    +0.000 N 
ATOM      5  H   UNL     1       2.862   7.045  16.778  0.00  0.00    +0.000 HD
ATOM      6  H   UNL     1       1.765   8.865  17.013  0.00  0.00    +0.000 HD
ENDROOT
BRANCH   4   7
ATOM      7  C   UNL     1       0.757   9.667  18.653  0.00  0.00    +0.000 A 
ATOM      8  C   UNL     1       1.031  10.209  19.912  0.00  0.00    +0.000 A 
ATOM      9  C   UNL     1       0.131  11.064  20.539  0.00  0.00    +0.000 A 
ATOM     10  C   UNL     1      -1.046  11.418  19.897  0.00  0.00    +0.000 A 
ATOM     11  C   UNL     1      -1.351  10.928  18.623  0.00  0.00    +0.000 A 
ATOM     12  C   UNL     1      -0.444  10.033  18.010  0.00  0.00    +0.000 A 
BRANCH  11  13
ATOM     13  N   UNL     1      -2.565  11.321  18.011  0.00  0.00    +0.000 N 
ATOM     14  C   UNL     1      -2.877  11.145  16.612  0.00  0.00    +0.000 C 
ATOM     15  C   UNL     1      -4.398  11.281  16.579  0.00  0.00    +0.000 C 
ATOM     16  N   UNL     1      -4.684  12.065  17.741  0.00  0.00    +0.000 N 
ATOM     17  C   UNL     1      -3.654  11.933  18.668  0.00  0.00    +0.000 C 
ATOM     18  O   UNL     1      -3.763  12.308  19.823  0.00  0.00    +0.000 OA
ATOM     19  H   UNL     1      -5.604  12.305  18.091  0.00  0.00    +0.000 HD
ENDBRANCH  11  13
ENDBRANCH   4   7
BRANCH   1  21
ATOM     20  C   UNL     1       4.927   6.080  19.206  0.00  0.00    +0.000 C 
ATOM     21  C   UNL     1       3.817   5.758  18.167  0.00  0.00    +0.000 C 
BRANCH  21  22
ATOM     22  C   UNL     1       4.608   5.191  16.945  0.00  0.00    +0.000 A 
ATOM     23  C   UNL     1       4.958   3.831  16.857  0.00  0.00    +0.000 A 
ATOM     24  C   UNL     1       5.732   3.348  15.794  0.00  0.00    +0.000 A 
ATOM     25  C   UNL     1       6.184   4.218  14.809  0.00  0.00    +0.000 A 
ATOM     26  C   UNL     1       5.872   5.572  14.885  0.00  0.00    +0.000 A 
ATOM     27  C   UNL     1       5.104   6.053  15.943  0.00  0.00    +0.000 A 
ENDBRANCH  21  22
BRANCH  21  28
ATOM     28  C   UNL     1       2.754   4.754  18.691  0.00  0.00    +0.000 A 
ATOM     29  C   UNL     1       1.700   4.281  17.884  0.00  0.00    +0.000 A 
ATOM     30  C   UNL     1       0.768   3.357  18.367  0.00  0.00    +0.000 A 
ATOM     31  C   UNL     1       0.867   2.881  19.670  0.00  0.00    +0.000 A 
ATOM     32  C   UNL     1       1.900   3.327  20.489  0.00  0.00    +0.000 A 
ATOM     33  C   UNL     1       2.834   4.251  20.006  0.00  0.00    +0.000 A 
ENDBRANCH  21  28
ENDBRANCH   1  21
TORSDOF 5
ENDMDL
MODEL 8
REMARK VINA RESULT:      -9.1      6.213      8.530
REMARK  Name = 
REMARK  6 active torsions:
REMARK  status: ('A' for Active; 'I' for Inactive)
REMARK    1  A    between atoms: C_1  and  C_2
REMARK    2  A    between atoms: C_2  and  N_3
REMARK    3  A    between atoms: C_2  and  C_19
REMARK    4  A    between atoms: C_2  and  C_25
REMARK    5  A    between atoms: N_6  and  C_7
REMARK    6  A    between atoms: C_11  and  N_12
REMARK                            x       y       z     vdW  Elec       q    Type
REMARK                         _______ _______ _______ _____ _____    ______ ____
ROOT
ATOM      1  N   UNL     1       3.301   6.950  17.785  0.00  0.00    +0.000 N 
ATOM      2  C   UNL     1       2.443   7.601  18.646  0.00  0.00    +0.000 C 
ATOM      3  O   UNL     1       2.302   7.235  19.807  0.00  0.00    +0.000 OA
ATOM      4  N   UNL     1       1.797   8.676  18.057  0.00  0.00    +0.000 N 
ATOM      5  H   UNL     1       3.115   7.054  16.803  0.00  0.00    +0.000 HD
ATOM      6  H   UNL     1       1.978   8.844  17.081  0.00  0.00    +0.000 HD
ENDROOT
BRANCH   4   7
ATOM      7  C   UNL     1       0.847   9.522  18.696  0.00  0.00    +0.000 A 
ATOM      8  C   UNL     1       1.018   9.970  20.009  0.00  0.00    +0.000 A 
ATOM      9  C   UNL     1       0.064  10.771  20.626  0.00  0.00    +0.000 A 
ATOM     10  C   UNL     1      -1.065  11.166  19.924  0.00  0.00    +0.000 A 
ATOM     11  C   UNL     1      -1.267  10.770  18.598  0.00  0.00    +0.000 A 
ATOM     12  C   UNL     1      -0.307   9.929  17.992  0.00  0.00    +0.000 A 
BRANCH  11  13
ATOM     13  N   UNL     1      -2.435  11.202  17.925  0.00  0.00    +0.000 N 
ATOM     14  C   UNL     1      -2.685  11.027  16.514  0.00  0.00    +0.000 C 
ATOM     15  C   UNL     1      -4.197  11.217  16.406  0.00  0.00    +0.000 C 
ATOM     16  N   UNL     1      -4.511  12.019  17.549  0.00  0.00    +0.000 N 
ATOM     17  C   UNL     1      -3.532  11.857  18.525  0.00  0.00    +0.000 C 
ATOM     18  O   UNL     1      -3.683  12.245  19.671  0.00  0.00    +0.000 OA
ATOM     19  H   UNL     1      -5.437  12.294  17.851  0.00  0.00    +0.000 HD
ENDBRANCH  11  13
ENDBRANCH   4   7
BRANCH   1  21
ATOM     20  C   UNL     1       5.076   5.962  19.244  0.00  0.00    +0.000 C 
ATOM     21  C   UNL     1       3.990   5.686  18.165  0.00  0.00    +0.000 C 
BRANCH  21  22
ATOM     22  C   UNL     1       4.809   5.169  16.941  0.00  0.00    +0.000 A 
ATOM     23  C   UNL     1       5.176   6.021  15.883  0.00  0.00    +0.000 A 
ATOM     24  C   UNL     1       5.846   5.531  14.754  0.00  0.00    +0.000 A 
ATOM     25  C   UNL     1       6.144   4.177  14.653  0.00  0.00    +0.000 A 
ATOM     26  C   UNL     1       5.770   3.308  15.673  0.00  0.00    +0.000 A 
ATOM     27  C   UNL     1       5.104   3.795  16.796  0.00  0.00    +0.000 A 
ENDBRANCH  21  22
BRANCH  21  28
ATOM     28  C   UNL     1       2.914   4.664  18.622  0.00  0.00    +0.000 A 
ATOM     29  C   UNL     1       2.967   4.019  19.873  0.00  0.00    +0.000 A 
ATOM     30  C   UNL     1       1.973   3.121  20.276  0.00  0.00    +0.000 A 
ATOM     31  C   UNL     1       0.900   2.845  19.437  0.00  0.00    +0.000 A 
ATOM     32  C   UNL     1       0.818   3.470  18.195  0.00  0.00    +0.000 A 
ATOM     33  C   UNL     1       1.812   4.369  17.792  0.00  0.00    +0.000 A 
ENDBRANCH  21  28
ENDBRANCH   1  21
TORSDOF 5
ENDMDL
MODEL 9
REMARK VINA RESULT:      -9.1      5.894      8.018
REMARK  Name = 
REMARK  6 active torsions:
REMARK  status: ('A' for Active; 'I' for Inactive)
REMARK    1  A    between atoms: C_1  and  C_2
REMARK    2  A    between atoms: C_2  and  N_3
REMARK    3  A    between atoms: C_2  and  C_19
REMARK    4  A    between atoms: C_2  and  C_25
REMARK    5  A    between atoms: N_6  and  C_7
REMARK    6  A    between atoms: C_11  and  N_12
REMARK                            x       y       z     vdW  Elec       q    Type
REMARK                         _______ _______ _______ _____ _____    ______ ____
ROOT
ATOM      1  N   UNL     1       2.746   6.782  20.049  0.00  0.00    +0.000 N 
ATOM      2  C   UNL     1       1.803   7.784  20.151  0.00  0.00    +0.000 C 
ATOM      3  O   UNL     1       1.088   8.089  19.204  0.00  0.00    +0.000 OA
ATOM      4  N   UNL     1       1.769   8.368  21.407  0.00  0.00    +0.000 N 
ATOM      5  H   UNL     1       3.511   6.819  20.700  0.00  0.00    +0.000 HD
ATOM      6  H   UNL     1       2.440   8.046  22.085  0.00  0.00    +0.000 HD
ENDROOT
BRANCH   4   7
ATOM      7  C   UNL     1       0.910   9.434  21.801  0.00  0.00    +0.000 A 
ATOM      8  C   UNL     1       0.001   9.302  22.855  0.00  0.00    +0.000 A 
ATOM      9  C   UNL     1      -0.850  10.344  23.206  0.00  0.00    +0.000 A 
ATOM     10  C   UNL     1      -0.782  11.550  22.525  0.00  0.00    +0.000 A 
ATOM     11  C   UNL     1       0.132  11.742  21.484  0.00  0.00    +0.000 A 
ATOM     12  C   UNL     1       0.970  10.665  21.115  0.00  0.00    +0.000 A 
BRANCH  11  13
ATOM     13  N   UNL     1       0.163  12.993  20.823  0.00  0.00    +0.000 N 
ATOM     14  C   UNL     1      -0.648  13.341  19.680  0.00  0.00    +0.000 C 
ATOM     15  C   UNL     1      -0.586  14.867  19.667  0.00  0.00    +0.000 C 
ATOM     16  N   UNL     1       0.638  15.154  20.351  0.00  0.00    +0.000 N 
ATOM     17  C   UNL     1       0.978  14.090  21.180  0.00  0.00    +0.000 C 
ATOM     18  O   UNL     1       1.841  14.179  22.037  0.00  0.00    +0.000 OA
ATOM     19  H   UNL     1       0.985  16.073  20.597  0.00  0.00    +0.000 HD
ENDBRANCH  11  13
ENDBRANCH   4   7
BRANCH   1  21
ATOM     20  C   UNL     1       2.269   6.799  17.594  0.00  0.00    +0.000 C 
ATOM     21  C   UNL     1       3.051   6.117  18.752  0.00  0.00    +0.000 C 
BRANCH  21  22
ATOM     22  C   UNL     1       2.476   4.666  18.783  0.00  0.00    +0.000 A 
ATOM     23  C   UNL     1       2.738   3.744  17.752  0.00  0.00    +0.000 A 
ATOM     24  C   UNL     1       2.157   2.469  17.752  0.00  0.00    +0.000 A 
ATOM     25  C   UNL     1       1.288   2.099  18.772  0.00  0.00    +0.000 A 
ATOM     26  C   UNL     1       0.993   2.999  19.790  0.00  0.00    +0.000 A 
ATOM     27  C   UNL     1       1.570   4.267  19.790  0.00  0.00    +0.000 A 
ENDBRANCH  21  22
BRANCH  21  28
ATOM     28  C   UNL     1       4.590   6.130  18.549  0.00  0.00    +0.000 A 
ATOM     29  C   UNL     1       5.470   5.421  19.391  0.00  0.00    +0.000 A 
ATOM     30  C   UNL     1       6.851   5.426  19.176  0.00  0.00    +0.000 A 
ATOM     31  C   UNL     1       7.389   6.140  18.111  0.00  0.00    +0.000 A 
ATOM     32  C   UNL     1       6.545   6.846  17.259  0.00  0.00    +0.000 A 
ATOM     33  C   UNL     1       5.162   6.842  17.474  0.00  0.00    +0.000 A 
ENDBRANCH  21  28
ENDBRANCH   1  21
TORSDOF 5
ENDMDL
