MODEL 1
REMARK VINA RESULT:      -8.5      0.000      0.000
REMARK  Name = 
REMARK  4 active torsions:
REMARK  status: ('A' for Active; 'I' for Inactive)
REMARK    1  A    between atoms: C_2  and  C_17
REMARK    2  A    between atoms: N_3  and  C_4
REMARK    3  A    between atoms: C_4  and  C_5
REMARK    4  A    between atoms: C_7  and  C_8
REMARK                            x       y       z     vdW  Elec       q    Type
REMARK                         _______ _______ _______ _____ _____    ______ ____
ROOT
ATOM      1  O   UNL     1       5.760   4.506  16.877  0.00  0.00    +0.000 OA
ATOM      2  C   UNL     1       5.556   4.607  18.092  0.00  0.00    +0.000 C 
ATOM      3  N   UNL     1       6.529   5.045  18.953  0.00  0.00    +0.000 N 
ATOM      4  H   UNL     1       6.318   5.255  19.923  0.00  0.00    +0.000 HD
ENDROOT
BRANCH   2   5
ATOM      5  C   UNL     1       4.220   4.280  18.644  0.00  0.00    +0.000 A 
ATOM      6  C   UNL     1       3.097   4.712  17.919  0.00  0.00    +0.000 A 
ATOM      7  C   UNL     1       1.796   4.470  18.369  0.00  0.00    +0.000 A 
ATOM      8  C   UNL     1       1.678   3.778  19.573  0.00  0.00    +0.000 A 
ATOM      9  N   UNL     1       0.587   3.404  20.316  0.00  0.00    +0.000 N 
ATOM     10  C   UNL     1       1.040   2.765  21.435  0.00  0.00    +0.000 A 
ATOM     11  N   UNL     1       2.353   2.687  21.452  0.00  0.00    +0.000 NA
ATOM     12  C   UNL     1       2.768   3.321  20.307  0.00  0.00    +0.000 A 
ATOM     13  C   UNL     1       4.070   3.565  19.844  0.00  0.00    +0.000 A 
ATOM     14  H   UNL     1      -0.379   3.590  20.089  0.00  0.00    +0.000 HD
ENDBRANCH   2   5
BRANCH   3  15
ATOM     15  C   UNL     1       7.835   5.392  18.436  0.00  0.00    +0.000 C 
BRANCH  15  16
ATOM     16  C   UNL     1       7.919   6.840  18.112  0.00  0.00    +0.000 A 
ATOM     17  N   UNL     1       8.669   7.764  18.680  0.00  0.00    +0.000 NA
ATOM     18  C   UNL     1       8.196   8.948  18.152  0.00  0.00    +0.000 A 
ATOM     19  N   UNL     1       7.212   8.784  17.254  0.00  0.00    +0.000 NA
ATOM     20  N   UNL     1       7.077   7.449  17.225  0.00  0.00    +0.000 N 
ATOM     21  H   UNL     1       6.374   7.031  16.621  0.00  0.00    +0.000 HD
BRANCH  18  22
ATOM     22  C   UNL     1       8.702  10.252  18.572  0.00  0.00    +0.000 A 
ATOM     23  C   UNL     1       9.349  10.399  19.810  0.00  0.00    +0.000 A 
ATOM     24  C   UNL     1       9.856  11.642  20.199  0.00  0.00    +0.000 A 
ATOM     25  C   UNL     1       9.702  12.740  19.360  0.00  0.00    +0.000 A 
ATOM     26  F   UNL     1      10.194  13.928  19.731  0.00  0.00    +0.000 F 
ATOM     27  C   UNL     1       9.049  12.622  18.140  0.00  0.00    +0.000 A 
ATOM     28  C   UNL     1       8.550  11.378  17.746  0.00  0.00    +0.000 A 
ENDBRANCH  18  22
ENDBRANCH  15  16
ENDBRANCH   3  15
TORSDOF 4
ENDMDL
MODEL 2
REMARK VINA RESULT:      -8.4      0.359      1.030
REMARK  Name = 
REMARK  4 active torsions:
REMARK  status: ('A' for Active; 'I' for Inactive)
REMARK    1  A    between atoms: C_2  and  C_17
REMARK    2  A    between atoms: N_3  and  C_4
REMARK    3  A    between atoms: C_4  and  C_5
REMARK    4  A    between atoms: C_7  and  C_8
REMARK                            x       y       z     vdW  Elec       q    Type
REMARK                         _______ _______ _______ _____ _____    ______ ____
ROOT
ATOM      1  O   UNL     1       5.495   4.459  16.666  0.00  0.00    +0.000 OA
ATOM      2  C   UNL     1       5.401   4.408  17.897  0.00  0.00    +0.000 C 
ATOM      3  N   UNL     1       6.460   4.709  18.714  0.00  0.00    +0.000 N 
ATOM      4  H   UNL     1       6.342   4.799  19.718  0.00  0.00    +0.000 HD
ENDROOT
BRANCH   2   5
ATOM      5  C   UNL     1       4.108   4.045  18.522  0.00  0.00    +0.000 A 
ATOM      6  C   UNL     1       2.946   4.208  17.750  0.00  0.00    +0.000 A 
ATOM      7  C   UNL     1       1.678   3.913  18.259  0.00  0.00    +0.000 A 
ATOM      8  C   UNL     1       1.633   3.448  19.572  0.00  0.00    +0.000 A 
ATOM      9  N   UNL     1       0.588   3.102  20.391  0.00  0.00    +0.000 N 
ATOM     10  C   UNL     1       1.106   2.737  21.600  0.00  0.00    +0.000 A 
ATOM     11  N   UNL     1       2.419   2.808  21.609  0.00  0.00    +0.000 NA
ATOM     12  C   UNL     1       2.765   3.259  20.359  0.00  0.00    +0.000 A 
ATOM     13  C   UNL     1       4.033   3.554  19.837  0.00  0.00    +0.000 A 
ATOM     14  H   UNL     1      -0.392   3.135  20.149  0.00  0.00    +0.000 HD
ENDBRANCH   2   5
BRANCH   3  15
ATOM     15  C   UNL     1       7.727   5.090  18.128  0.00  0.00    +0.000 C 
BRANCH  15  16
ATOM     16  C   UNL     1       7.797   6.556  17.899  0.00  0.00    +0.000 A 
ATOM     17  N   UNL     1       8.577   7.441  18.488  0.00  0.00    +0.000 NA
ATOM     18  C   UNL     1       8.080   8.657  18.067  0.00  0.00    +0.000 A 
ATOM     19  N   UNL     1       7.050   8.552  17.213  0.00  0.00    +0.000 NA
ATOM     20  N   UNL     1       6.911   7.222  17.100  0.00  0.00    +0.000 N 
ATOM     21  H   UNL     1       6.177   6.845  16.506  0.00  0.00    +0.000 HD
BRANCH  18  22
ATOM     22  C   UNL     1       8.610   9.930  18.547  0.00  0.00    +0.000 A 
ATOM     23  C   UNL     1       8.575  11.069  17.727  0.00  0.00    +0.000 A 
ATOM     24  C   UNL     1       9.058  12.294  18.196  0.00  0.00    +0.000 A 
ATOM     25  C   UNL     1       9.591  12.375  19.478  0.00  0.00    +0.000 A 
ATOM     26  F   UNL     1      10.047  13.550  19.929  0.00  0.00    +0.000 F 
ATOM     27  C   UNL     1       9.654  11.258  20.299  0.00  0.00    +0.000 A 
ATOM     28  C   UNL     1       9.163  10.036  19.835  0.00  0.00    +0.000 A 
ENDBRANCH  18  22
ENDBRANCH  15  16
ENDBRANCH   3  15
TORSDOF 4
ENDMDL
MODEL 3
REMARK VINA RESULT:      -8.4      0.929      1.154
REMARK  Name = 
REMARK  4 active torsions:
REMARK  status: ('A' for Active; 'I' for Inactive)
REMARK    1  A    between atoms: C_2  and  C_17
REMARK    2  A    between atoms: N_3  and  C_4
REMARK    3  A    between atoms: C_4  and  C_5
REMARK    4  A    between atoms: C_7  and  C_8
REMARK                            x       y       z     vdW  Elec       q    Type
REMARK                         _______ _______ _______ _____ _____    ______ ____
ROOT
ATOM      1  O   UNL     1       6.524   4.140  18.288  0.00  0.00    +0.000 OA
ATOM      2  C   UNL     1       5.508   4.808  18.062  0.00  0.00    +0.000 C 
ATOM      3  N   UNL     1       5.543   5.930  17.276  0.00  0.00    +0.000 N 
ATOM      4  H   UNL     1       4.690   6.395  16.983  0.00  0.00    +0.000 HD
ENDROOT
BRANCH   2   5
ATOM      5  C   UNL     1       4.205   4.378  18.622  0.00  0.00    +0.000 A 
ATOM      6  C   UNL     1       3.052   4.673  17.877  0.00  0.00    +0.000 A 
ATOM      7  C   UNL     1       1.776   4.327  18.331  0.00  0.00    +0.000 A 
ATOM      8  C   UNL     1       1.715   3.676  19.562  0.00  0.00    +0.000 A 
ATOM      9  N   UNL     1       0.659   3.230  20.317  0.00  0.00    +0.000 N 
ATOM     10  C   UNL     1       1.163   2.683  21.462  0.00  0.00    +0.000 A 
ATOM     11  N   UNL     1       2.477   2.731  21.486  0.00  0.00    +0.000 NA
ATOM     12  C   UNL     1       2.838   3.355  20.318  0.00  0.00    +0.000 A 
ATOM     13  C   UNL     1       4.115   3.701  19.850  0.00  0.00    +0.000 A 
ATOM     14  H   UNL     1      -0.319   3.315  20.079  0.00  0.00    +0.000 HD
ENDBRANCH   2   5
BRANCH   3  15
ATOM     15  C   UNL     1       6.800   6.357  16.698  0.00  0.00    +0.000 C 
BRANCH  15  16
ATOM     16  C   UNL     1       7.462   7.383  17.545  0.00  0.00    +0.000 A 
ATOM     17  N   UNL     1       7.588   8.676  17.317  0.00  0.00    +0.000 NA
ATOM     18  C   UNL     1       8.462   9.103  18.295  0.00  0.00    +0.000 A 
ATOM     19  N   UNL     1       8.847   8.131  19.137  0.00  0.00    +0.000 NA
ATOM     20  N   UNL     1       8.182   7.066  18.662  0.00  0.00    +0.000 N 
ATOM     21  H   UNL     1       8.297   6.164  19.114  0.00  0.00    +0.000 HD
BRANCH  18  22
ATOM     22  C   UNL     1       8.945  10.479  18.368  0.00  0.00    +0.000 A 
ATOM     23  C   UNL     1      10.067  10.797  19.151  0.00  0.00    +0.000 A 
ATOM     24  C   UNL     1      10.546  12.110  19.200  0.00  0.00    +0.000 A 
ATOM     25  C   UNL     1       9.892  13.106  18.482  0.00  0.00    +0.000 A 
ATOM     26  F   UNL     1      10.355  14.361  18.525  0.00  0.00    +0.000 F 
ATOM     27  C   UNL     1       8.770  12.817  17.717  0.00  0.00    +0.000 A 
ATOM     28  C   UNL     1       8.297  11.505  17.660  0.00  0.00    +0.000 A 
ENDBRANCH  18  22
ENDBRANCH  15  16
ENDBRANCH   3  15
TORSDOF 4
ENDMDL
MODEL 4
REMARK VINA RESULT:      -8.3      7.046      9.437
REMARK  Name = 
REMARK  4 active torsions:
REMARK  status: ('A' for Active; 'I' for Inactive)
REMARK    1  A    between atoms: C_2  and  C_17
REMARK    2  A    between atoms: N_3  and  C_4
REMARK    3  A    between atoms: C_4  and  C_5
REMARK    4  A    between atoms: C_7  and  C_8
REMARK                            x       y       z     vdW  Elec       q    Type
REMARK                         _______ _______ _______ _____ _____    ______ ____
ROOT
ATOM      1  O   UNL     1       0.062  10.964  19.624  0.00  0.00    +0.000 OA
ATOM      2  C   UNL     1      -0.285  10.585  18.500  0.00  0.00    +0.000 C 
ATOM      3  N   UNL     1       0.598   9.992  17.635  0.00  0.00    +0.000 N 
ATOM      4  H   UNL     1       0.282   9.561  16.772  0.00  0.00    +0.000 HD
ENDROOT
BRANCH   2   5
ATOM      5  C   UNL     1      -1.696  10.737  18.075  0.00  0.00    +0.000 A 
ATOM      6  C   UNL     1      -2.092  10.082  16.897  0.00  0.00    +0.000 A 
ATOM      7  C   UNL     1      -3.396  10.183  16.403  0.00  0.00    +0.000 A 
ATOM      8  C   UNL     1      -4.277  10.968  17.144  0.00  0.00    +0.000 A 
ATOM      9  N   UNL     1      -5.590  11.314  16.948  0.00  0.00    +0.000 N 
ATOM     10  C   UNL     1      -5.966  12.134  17.972  0.00  0.00    +0.000 A 
ATOM     11  N   UNL     1      -4.985  12.326  18.827  0.00  0.00    +0.000 NA
ATOM     12  C   UNL     1      -3.922  11.617  18.323  0.00  0.00    +0.000 A 
ATOM     13  C   UNL     1      -2.613  11.505  18.813  0.00  0.00    +0.000 A 
ATOM     14  H   UNL     1      -6.169  11.031  16.170  0.00  0.00    +0.000 HD
ENDBRANCH   2   5
BRANCH   3  15
ATOM     15  C   UNL     1       1.976   9.811  18.037  0.00  0.00    +0.000 C 
BRANCH  15  16
ATOM     16  C   UNL     1       2.183   8.483  18.671  0.00  0.00    +0.000 A 
ATOM     17  N   UNL     1       2.653   7.379  18.125  0.00  0.00    +0.000 NA
ATOM     18  C   UNL     1       2.427   6.411  19.082  0.00  0.00    +0.000 A 
ATOM     19  N   UNL     1       1.871   6.885  20.208  0.00  0.00    +0.000 NA
ATOM     20  N   UNL     1       1.755   8.194  19.936  0.00  0.00    +0.000 N 
ATOM     21  H   UNL     1       1.344   8.814  20.629  0.00  0.00    +0.000 HD
BRANCH  18  22
ATOM     22  C   UNL     1       2.731   5.000  18.859  0.00  0.00    +0.000 A 
ATOM     23  C   UNL     1       3.396   4.252  19.844  0.00  0.00    +0.000 A 
ATOM     24  C   UNL     1       3.664   2.895  19.642  0.00  0.00    +0.000 A 
ATOM     25  C   UNL     1       3.282   2.292  18.448  0.00  0.00    +0.000 A 
ATOM     26  F   UNL     1       3.533   0.991  18.257  0.00  0.00    +0.000 F 
ATOM     27  C   UNL     1       2.641   3.016  17.452  0.00  0.00    +0.000 A 
ATOM     28  C   UNL     1       2.365   4.370  17.658  0.00  0.00    +0.000 A 
ENDBRANCH  18  22
ENDBRANCH  15  16
ENDBRANCH   3  15
TORSDOF 4
ENDMDL
MODEL 5
REMARK VINA RESULT:      -8.3      1.194      1.611
REMARK  Name = 
REMARK  4 active torsions:
REMARK  status: ('A' for Active; 'I' for Inactive)
REMARK    1  A    between atoms: C_2  and  C_17
REMARK    2  A    between atoms: N_3  and  C_4
REMARK    3  A    between atoms: C_4  and  C_5
REMARK    4  A    between atoms: C_7  and  C_8
REMARK                            x       y       z     vdW  Elec       q    Type
REMARK                         _______ _______ _______ _____ _____    ______ ____
ROOT
ATOM      1  O   UNL     1       6.763   4.297  18.482  0.00  0.00    +0.000 OA
ATOM      2  C   UNL     1       5.789   5.015  18.228  0.00  0.00    +0.000 C 
ATOM      3  N   UNL     1       5.906   6.144  17.460  0.00  0.00    +0.000 N 
ATOM      4  H   UNL     1       5.087   6.653  17.142  0.00  0.00    +0.000 HD
ENDROOT
BRANCH   2   5
ATOM      5  C   UNL     1       4.448   4.641  18.735  0.00  0.00    +0.000 A 
ATOM      6  C   UNL     1       3.334   5.227  18.112  0.00  0.00    +0.000 A 
ATOM      7  C   UNL     1       2.029   4.954  18.532  0.00  0.00    +0.000 A 
ATOM      8  C   UNL     1       1.898   4.069  19.600  0.00  0.00    +0.000 A 
ATOM      9  N   UNL     1       0.802   3.607  20.284  0.00  0.00    +0.000 N 
ATOM     10  C   UNL     1       1.243   2.771  21.269  0.00  0.00    +0.000 A 
ATOM     11  N   UNL     1       2.552   2.649  21.254  0.00  0.00    +0.000 NA
ATOM     12  C   UNL     1       2.978   3.458  20.229  0.00  0.00    +0.000 A 
ATOM     13  C   UNL     1       4.284   3.735  19.796  0.00  0.00    +0.000 A 
ATOM     14  H   UNL     1      -0.160   3.860  20.106  0.00  0.00    +0.000 HD
ENDBRANCH   2   5
BRANCH   3  15
ATOM     15  C   UNL     1       7.201   6.518  16.934  0.00  0.00    +0.000 C 
BRANCH  15  16
ATOM     16  C   UNL     1       7.749   7.704  17.642  0.00  0.00    +0.000 A 
ATOM     17  N   UNL     1       7.840   8.946  17.209  0.00  0.00    +0.000 NA
ATOM     18  C   UNL     1       8.612   9.576  18.162  0.00  0.00    +0.000 A 
ATOM     19  N   UNL     1       8.967   8.779  19.182  0.00  0.00    +0.000 NA
ATOM     20  N   UNL     1       8.387   7.616  18.846  0.00  0.00    +0.000 N 
ATOM     21  H   UNL     1       8.502   6.808  19.452  0.00  0.00    +0.000 HD
BRANCH  18  22
ATOM     22  C   UNL     1       9.032  10.970  18.038  0.00  0.00    +0.000 A 
ATOM     23  C   UNL     1       8.090  11.972  17.755  0.00  0.00    +0.000 A 
ATOM     24  C   UNL     1       8.488  13.309  17.663  0.00  0.00    +0.000 A 
ATOM     25  C   UNL     1       9.827  13.640  17.836  0.00  0.00    +0.000 A 
ATOM     26  F   UNL     1      10.206  14.922  17.754  0.00  0.00    +0.000 F 
ATOM     27  C   UNL     1      10.778  12.663  18.097  0.00  0.00    +0.000 A 
ATOM     28  C   UNL     1      10.380  11.328  18.199  0.00  0.00    +0.000 A 
ENDBRANCH  18  22
ENDBRANCH  15  16
ENDBRANCH   3  15
TORSDOF 4
ENDMDL
MODEL 6
REMARK VINA RESULT:      -8.3      3.714      9.168
REMARK  Name = 
REMARK  4 active torsions:
REMARK  status: ('A' for Active; 'I' for Inactive)
REMARK    1  A    between atoms: C_2  and  C_17
REMARK    2  A    between atoms: N_3  and  C_4
REMARK    3  A    between atoms: C_4  and  C_5
REMARK    4  A    between atoms: C_7  and  C_8
REMARK                            x       y       z     vdW  Elec       q    Type
REMARK                         _______ _______ _______ _____ _____    ______ ____
ROOT
ATOM      1  O   UNL     1       8.604   7.410  19.059  0.00  0.00    +0.000 OA
ATOM      2  C   UNL     1       8.272   8.297  18.264  0.00  0.00    +0.000 C 
ATOM      3  N   UNL     1       7.501   8.028  17.164  0.00  0.00    +0.000 N 
ATOM      4  H   UNL     1       7.118   8.775  16.592  0.00  0.00    +0.000 HD
ENDROOT
BRANCH   2   5
ATOM      5  C   UNL     1       8.684   9.699  18.511  0.00  0.00    +0.000 A 
ATOM      6  C   UNL     1       8.235  10.675  17.607  0.00  0.00    +0.000 A 
ATOM      7  C   UNL     1       8.588  12.021  17.745  0.00  0.00    +0.000 A 
ATOM      8  C   UNL     1       9.409  12.337  18.826  0.00  0.00    +0.000 A 
ATOM      9  N   UNL     1       9.969  13.518  19.243  0.00  0.00    +0.000 N 
ATOM     10  C   UNL     1      10.715  13.258  20.356  0.00  0.00    +0.000 A 
ATOM     11  N   UNL     1      10.657  11.989  20.696  0.00  0.00    +0.000 NA
ATOM     12  C   UNL     1       9.858  11.397  19.749  0.00  0.00    +0.000 A 
ATOM     13  C   UNL     1       9.493  10.050  19.606  0.00  0.00    +0.000 A 
ATOM     14  H   UNL     1       9.868  14.415  18.791  0.00  0.00    +0.000 HD
ENDBRANCH   2   5
BRANCH   3  15
ATOM     15  C   UNL     1       7.066   6.671  16.913  0.00  0.00    +0.000 C 
BRANCH  15  16
ATOM     16  C   UNL     1       5.727   6.415  17.506  0.00  0.00    +0.000 A 
ATOM     17  N   UNL     1       5.417   5.632  18.520  0.00  0.00    +0.000 NA
ATOM     18  C   UNL     1       4.038   5.596  18.503  0.00  0.00    +0.000 A 
ATOM     19  N   UNL     1       3.489   6.357  17.543  0.00  0.00    +0.000 NA
ATOM     20  N   UNL     1       4.571   6.884  16.949  0.00  0.00    +0.000 N 
ATOM     21  H   UNL     1       4.451   7.511  16.158  0.00  0.00    +0.000 HD
BRANCH  18  22
ATOM     22  C   UNL     1       3.263   4.770  19.426  0.00  0.00    +0.000 A 
ATOM     23  C   UNL     1       2.014   5.208  19.894  0.00  0.00    +0.000 A 
ATOM     24  C   UNL     1       1.261   4.406  20.756  0.00  0.00    +0.000 A 
ATOM     25  C   UNL     1       1.764   3.174  21.161  0.00  0.00    +0.000 A 
ATOM     26  F   UNL     1       1.039   2.403  21.981  0.00  0.00    +0.000 F 
ATOM     27  C   UNL     1       3.005   2.729  20.725  0.00  0.00    +0.000 A 
ATOM     28  C   UNL     1       3.754   3.526  19.857  0.00  0.00    +0.000 A 
ENDBRANCH  18  22
ENDBRANCH  15  16
ENDBRANCH   3  15
TORSDOF 4
ENDMDL
MODEL 7
REMARK VINA RESULT:      -8.2      5.316      6.765
REMARK  Name = 
REMARK  4 active torsions:
REMARK  status: ('A' for Active; 'I' for Inactive)
REMARK    1  A    between atoms: C_2  and  C_17
REMARK    2  A    between atoms: N_3  and  C_4
REMARK    3  A    between atoms: C_4  and  C_5
REMARK    4  A    between atoms: C_7  and  C_8
REMARK                            x       y       z     vdW  Elec       q    Type
REMARK                         _______ _______ _______ _____ _____    ______ ____
ROOT
ATOM      1  O   UNL     1       2.150   4.936  18.934  0.00  0.00    +0.000 OA
ATOM      2  C   UNL     1       2.813   5.893  19.351  0.00  0.00    +0.000 C 
ATOM      3  N   UNL     1       4.159   5.788  19.589  0.00  0.00    +0.000 N 
ATOM      4  H   UNL     1       4.722   6.606  19.799  0.00  0.00    +0.000 HD
ENDROOT
BRANCH   2   5
ATOM      5  C   UNL     1       2.156   7.202  19.572  0.00  0.00    +0.000 A 
ATOM      6  C   UNL     1       2.075   8.079  18.478  0.00  0.00    +0.000 A 
ATOM      7  C   UNL     1       1.492   9.345  18.592  0.00  0.00    +0.000 A 
ATOM      8  C   UNL     1       0.999   9.685  19.851  0.00  0.00    +0.000 A 
ATOM      9  N   UNL     1       0.408  10.827  20.330  0.00  0.00    +0.000 N 
ATOM     10  C   UNL     1       0.139  10.636  21.655  0.00  0.00    +0.000 A 
ATOM     11  N   UNL     1       0.501   9.437  22.057  0.00  0.00    +0.000 NA
ATOM     12  C   UNL     1       1.048   8.834  20.951  0.00  0.00    +0.000 A 
ATOM     13  C   UNL     1       1.630   7.564  20.823  0.00  0.00    +0.000 A 
ATOM     14  H   UNL     1       0.228  11.669  19.803  0.00  0.00    +0.000 HD
ENDBRANCH   2   5
BRANCH   3  15
ATOM     15  C   UNL     1       4.828   4.526  19.359  0.00  0.00    +0.000 C 
BRANCH  15  16
ATOM     16  C   UNL     1       5.783   4.622  18.224  0.00  0.00    +0.000 A 
ATOM     17  N   UNL     1       5.518   4.751  16.939  0.00  0.00    +0.000 NA
ATOM     18  C   UNL     1       6.741   4.568  16.327  0.00  0.00    +0.000 A 
ATOM     19  N   UNL     1       7.751   4.369  17.188  0.00  0.00    +0.000 NA
ATOM     20  N   UNL     1       7.128   4.437  18.375  0.00  0.00    +0.000 N 
ATOM     21  H   UNL     1       7.665   4.308  19.228  0.00  0.00    +0.000 HD
BRANCH  18  22
ATOM     22  C   UNL     1       6.897   4.554  14.875  0.00  0.00    +0.000 A 
ATOM     23  C   UNL     1       6.137   3.674  14.087  0.00  0.00    +0.000 A 
ATOM     24  C   UNL     1       6.268   3.680  12.695  0.00  0.00    +0.000 A 
ATOM     25  C   UNL     1       7.170   4.551  12.094  0.00  0.00    +0.000 A 
ATOM     26  F   UNL     1       7.290   4.560  10.761  0.00  0.00    +0.000 F 
ATOM     27  C   UNL     1       7.945   5.416  12.855  0.00  0.00    +0.000 A 
ATOM     28  C   UNL     1       7.808   5.418  14.245  0.00  0.00    +0.000 A 
ENDBRANCH  18  22
ENDBRANCH  15  16
ENDBRANCH   3  15
TORSDOF 4
ENDMDL
MODEL 8
REMARK VINA RESULT:      -8.2      0.918      1.163
REMARK  Name = 
REMARK  4 active torsions:
REMARK  status: ('A' for Active; 'I' for Inactive)
REMARK    1  A    between atoms: C_2  and  C_17
REMARK    2  A    between atoms: N_3  and  C_4
REMARK    3  A    between atoms: C_4  and  C_5
REMARK    4  A    between atoms: C_7  and  C_8
REMARK                            x       y       z     vdW  Elec       q    Type
REMARK                         _______ _______ _______ _____ _____    ______ ____
ROOT
ATOM      1  O   UNL     1       6.033   4.530  17.097  0.00  0.00    +0.000 OA
ATOM      2  C   UNL     1       5.704   4.741  18.270  0.00  0.00    +0.000 C 
ATOM      3  N   UNL     1       6.583   5.265  19.182  0.00  0.00    +0.000 N 
ATOM      4  H   UNL     1       6.273   5.563  20.102  0.00  0.00    +0.000 HD
ENDROOT
BRANCH   2   5
ATOM      5  C   UNL     1       4.318   4.456  18.708  0.00  0.00    +0.000 A 
ATOM      6  C   UNL     1       3.784   5.258  19.729  0.00  0.00    +0.000 A 
ATOM      7  C   UNL     1       2.493   5.053  20.225  0.00  0.00    +0.000 A 
ATOM      8  C   UNL     1       1.769   4.010  19.650  0.00  0.00    +0.000 A 
ATOM      9  N   UNL     1       0.518   3.508  19.902  0.00  0.00    +0.000 N 
ATOM     10  C   UNL     1       0.310   2.454  19.059  0.00  0.00    +0.000 A 
ATOM     11  N   UNL     1       1.339   2.256  18.266  0.00  0.00    +0.000 NA
ATOM     12  C   UNL     1       2.262   3.206  18.626  0.00  0.00    +0.000 A 
ATOM     13  C   UNL     1       3.557   3.425  18.132  0.00  0.00    +0.000 A 
ATOM     14  H   UNL     1      -0.126   3.843  20.605  0.00  0.00    +0.000 HD
ENDBRANCH   2   5
BRANCH   3  15
ATOM     15  C   UNL     1       7.936   5.575  18.772  0.00  0.00    +0.000 C 
BRANCH  15  16
ATOM     16  C   UNL     1       8.060   6.993  18.346  0.00  0.00    +0.000 A 
ATOM     17  N   UNL     1       8.751   7.961  18.913  0.00  0.00    +0.000 NA
ATOM     18  C   UNL     1       8.341   9.098  18.248  0.00  0.00    +0.000 A 
ATOM     19  N   UNL     1       7.454   8.860  17.268  0.00  0.00    +0.000 NA
ATOM     20  N   UNL     1       7.316   7.526  17.331  0.00  0.00    +0.000 N 
ATOM     21  H   UNL     1       6.679   7.060  16.692  0.00  0.00    +0.000 HD
BRANCH  18  22
ATOM     22  C   UNL     1       8.807  10.433  18.613  0.00  0.00    +0.000 A 
ATOM     23  C   UNL     1       9.435  10.653  19.850  0.00  0.00    +0.000 A 
ATOM     24  C   UNL     1       9.904  11.926  20.188  0.00  0.00    +0.000 A 
ATOM     25  C   UNL     1       9.729  12.980  19.298  0.00  0.00    +0.000 A 
ATOM     26  F   UNL     1      10.184  14.197  19.620  0.00  0.00    +0.000 F 
ATOM     27  C   UNL     1       9.094  12.790  18.078  0.00  0.00    +0.000 A 
ATOM     28  C   UNL     1       8.634  11.516  17.735  0.00  0.00    +0.000 A 
ENDBRANCH  18  22
ENDBRANCH  15  16
ENDBRANCH   3  15
TORSDOF 4
ENDMDL
MODEL 9
REMARK VINA RESULT:      -8.2      1.166      1.367
REMARK  Name = 
REMARK  4 active torsions:
REMARK  status: ('A' for Active; 'I' for Inactive)
REMARK    1  A    between atoms: C_2  and  C_17
REMARK    2  A    between atoms: N_3  and  C_4
REMARK    3  A    between atoms: C_4  and  C_5
REMARK    4  A    between atoms: C_7  and  C_8
REMARK                            x       y       z     vdW  Elec       q    Type
REMARK                         _______ _______ _______ _____ _____    ______ ____
ROOT
ATOM      1  O   UNL     1       4.280   7.053  17.713  0.00  0.00    +0.000 OA
ATOM      2  C   UNL     1       4.386   5.821  17.694  0.00  0.00    +0.000 C 
ATOM      3  N   UNL     1       5.425   5.197  17.054  0.00  0.00    +0.000 N 
ATOM      4  H   UNL     1       5.583   4.199  17.155  0.00  0.00    +0.000 HD
ENDROOT
BRANCH   2   5
ATOM      5  C   UNL     1       3.390   4.986  18.404  0.00  0.00    +0.000 A 
ATOM      6  C   UNL     1       2.217   4.645  17.711  0.00  0.00    +0.000 A 
ATOM      7  C   UNL     1       1.210   3.878  18.303  0.00  0.00    +0.000 A 
ATOM      8  C   UNL     1       1.435   3.473  19.617  0.00  0.00    +0.000 A 
ATOM      9  N   UNL     1       0.671   2.758  20.504  0.00  0.00    +0.000 N 
ATOM     10  C   UNL     1       1.364   2.667  21.677  0.00  0.00    +0.000 A 
ATOM     11  N   UNL     1       2.534   3.261  21.598  0.00  0.00    +0.000 NA
ATOM     12  C   UNL     1       2.592   3.778  20.328  0.00  0.00    +0.000 A 
ATOM     13  C   UNL     1       3.600   4.544  19.722  0.00  0.00    +0.000 A 
ATOM     14  H   UNL     1      -0.251   2.386  20.329  0.00  0.00    +0.000 HD
ENDBRANCH   2   5
BRANCH   3  15
ATOM     15  C   UNL     1       6.424   5.992  16.372  0.00  0.00    +0.000 C 
BRANCH  15  16
ATOM     16  C   UNL     1       7.122   6.905  17.314  0.00  0.00    +0.000 A 
ATOM     17  N   UNL     1       7.280   8.210  17.224  0.00  0.00    +0.000 NA
ATOM     18  C   UNL     1       8.176   8.508  18.230  0.00  0.00    +0.000 A 
ATOM     19  N   UNL     1       8.543   7.442  18.959  0.00  0.00    +0.000 NA
ATOM     20  N   UNL     1       7.844   6.452  18.382  0.00  0.00    +0.000 N 
ATOM     21  H   UNL     1       7.939   5.503  18.734  0.00  0.00    +0.000 HD
BRANCH  18  22
ATOM     22  C   UNL     1       8.697   9.855  18.444  0.00  0.00    +0.000 A 
ATOM     23  C   UNL     1       9.569  10.119  19.513  0.00  0.00    +0.000 A 
ATOM     24  C   UNL     1      10.089  11.402  19.701  0.00  0.00    +0.000 A 
ATOM     25  C   UNL     1       9.724  12.425  18.832  0.00  0.00    +0.000 A 
ATOM     26  F   UNL     1      10.227  13.653  19.010  0.00  0.00    +0.000 F 
ATOM     27  C   UNL     1       8.848  12.192  17.780  0.00  0.00    +0.000 A 
ATOM     28  C   UNL     1       8.336  10.907  17.585  0.00  0.00    +0.000 A 
ENDBRANCH  18  22
ENDBRANCH  15  16
ENDBRANCH   3  15
TORSDOF 4
ENDMDL
