MODEL 1
REMARK VINA RESULT:      -8.3      0.000      0.000
REMARK  Name = 
REMARK  2 active torsions:
REMARK  status: ('A' for Active; 'I' for Inactive)
REMARK    1  A    between atoms: C_2  and  C_4
REMARK    2  A    between atoms: C_14  and  C_16
REMARK                            x       y       z     vdW  Elec       q    Type
REMARK                         _______ _______ _______ _____ _____    ______ ____
ROOT
ATOM      1  C   UNL     1       3.511   5.764  19.084  0.00  0.00    +0.000 C 
ATOM      2  C   UNL     1       4.966   5.818  18.636  0.00  0.00    +0.000 A 
ATOM      3  C   UNL     1       6.004   5.245  19.383  0.00  0.00    +0.000 A 
ATOM      4  C   UNL     1       7.322   5.342  18.937  0.00  0.00    +0.000 A 
ATOM      5  C   UNL     1       7.616   5.999  17.740  0.00  0.00    +0.000 A 
ATOM      6  C   UNL     1       6.592   6.573  16.989  0.00  0.00    +0.000 A 
ATOM      7  C   UNL     1       5.273   6.500  17.443  0.00  0.00    +0.000 A 
ATOM      8  C   UNL     1       4.135   7.168  16.720  0.00  0.00    +0.000 C 
ATOM      9  C   UNL     1       3.240   7.877  17.748  0.00  0.00    +0.000 C 
ATOM     10  N   UNL     1       2.874   7.092  18.943  0.00  0.00    +0.000 N 
ATOM     11  C   UNL     1       1.873   7.417  19.873  0.00  0.00    +0.000 C 
ATOM     12  O   UNL     1       1.646   6.683  20.838  0.00  0.00    +0.000 OA
ENDROOT
BRANCH  11  13
ATOM     13  C   UNL     1       1.052   8.664  19.733  0.00  0.00    +0.000 A 
ATOM     14  C   UNL     1       0.956   9.283  18.481  0.00  0.00    +0.000 A 
ATOM     15  C   UNL     1       0.163  10.408  18.300  0.00  0.00    +0.000 A 
ATOM     16  C   UNL     1      -0.462  10.986  19.398  0.00  0.00    +0.000 A 
ATOM     17  C   UNL     1      -0.311  10.474  20.675  0.00  0.00    +0.000 A 
ATOM     18  N   UNL     1      -0.895  11.165  21.669  0.00  0.00    +0.000 NA
ATOM     19  C   UNL     1      -0.757  10.711  22.929  0.00  0.00    +0.000 A 
ATOM     20  C   UNL     1      -0.079   9.555  23.248  0.00  0.00    +0.000 A 
ATOM     21  C   UNL     1       0.507   8.835  22.211  0.00  0.00    +0.000 A 
ATOM     22  C   UNL     1       0.435   9.287  20.871  0.00  0.00    +0.000 A 
ENDBRANCH  11  13
BRANCH   1  24
ATOM     23  N   UNL     1       3.257   3.496  18.070  0.00  0.00    +0.000 N 
ATOM     24  C   UNL     1       2.686   4.724  18.261  0.00  0.00    +0.000 C 
ATOM     25  O   UNL     1       1.575   4.943  17.775  0.00  0.00    +0.000 OA
ATOM     26  H   UNL     1       2.752   2.841  17.487  0.00  0.00    +0.000 HD
ATOM     27  H   UNL     1       4.205   3.281  18.341  0.00  0.00    +0.000 HD
ENDBRANCH   1  24
TORSDOF 2
ENDMDL
MODEL 2
REMARK VINA RESULT:      -8.1      5.780      8.539
REMARK  Name = 
REMARK  2 active torsions:
REMARK  status: ('A' for Active; 'I' for Inactive)
REMARK    1  A    between atoms: C_2  and  C_4
REMARK    2  A    between atoms: C_14  and  C_16
REMARK                            x       y       z     vdW  Elec       q    Type
REMARK                         _______ _______ _______ _____ _____    ______ ____
ROOT
ATOM      1  C   UNL     1      -0.834  13.049  21.276  0.00  0.00    +0.000 C 
ATOM      2  C   UNL     1      -0.652  11.564  21.562  0.00  0.00    +0.000 A 
ATOM      3  C   UNL     1      -0.762  11.029  22.853  0.00  0.00    +0.000 A 
ATOM      4  C   UNL     1      -0.564   9.665  23.063  0.00  0.00    +0.000 A 
ATOM      5  C   UNL     1      -0.268   8.821  21.991  0.00  0.00    +0.000 A 
ATOM      6  C   UNL     1      -0.154   9.341  20.703  0.00  0.00    +0.000 A 
ATOM      7  C   UNL     1      -0.328  10.711  20.491  0.00  0.00    +0.000 A 
ATOM      8  C   UNL     1      -0.140  11.345  19.139  0.00  0.00    +0.000 C 
ATOM      9  C   UNL     1       0.672  12.638  19.304  0.00  0.00    +0.000 C 
ATOM     10  N   UNL     1       0.241  13.543  20.389  0.00  0.00    +0.000 N 
ATOM     11  C   UNL     1       0.646  14.876  20.565  0.00  0.00    +0.000 C 
ATOM     12  O   UNL     1       0.218  15.546  21.507  0.00  0.00    +0.000 OA
ENDROOT
BRANCH  11  13
ATOM     13  C   UNL     1       1.613  15.530  19.623  0.00  0.00    +0.000 A 
ATOM     14  C   UNL     1       2.984  15.291  19.776  0.00  0.00    +0.000 A 
ATOM     15  C   UNL     1       3.905  15.835  18.891  0.00  0.00    +0.000 A 
ATOM     16  C   UNL     1       3.470  16.709  17.904  0.00  0.00    +0.000 A 
ATOM     17  C   UNL     1       2.138  17.060  17.778  0.00  0.00    +0.000 A 
ATOM     18  N   UNL     1       1.847  17.977  16.839  0.00  0.00    +0.000 NA
ATOM     19  C   UNL     1       0.564  18.360  16.696  0.00  0.00    +0.000 A 
ATOM     20  C   UNL     1      -0.471  17.836  17.439  0.00  0.00    +0.000 A 
ATOM     21  C   UNL     1      -0.164  16.873  18.396  0.00  0.00    +0.000 A 
ATOM     22  C   UNL     1       1.172  16.464  18.624  0.00  0.00    +0.000 A 
ENDBRANCH  11  13
BRANCH   1  24
ATOM     23  N   UNL     1      -2.397  14.609  20.109  0.00  0.00    +0.000 N 
ATOM     24  C   UNL     1      -2.213  13.348  20.604  0.00  0.00    +0.000 C 
ATOM     25  O   UNL     1      -3.132  12.533  20.504  0.00  0.00    +0.000 OA
ATOM     26  H   UNL     1      -3.309  14.824  19.727  0.00  0.00    +0.000 HD
ATOM     27  H   UNL     1      -1.736  15.359  20.251  0.00  0.00    +0.000 HD
ENDBRANCH   1  24
TORSDOF 2
ENDMDL
MODEL 3
REMARK VINA RESULT:      -7.9      3.877      6.520
REMARK  Name = 
REMARK  2 active torsions:
REMARK  status: ('A' for Active; 'I' for Inactive)
REMARK    1  A    between atoms: C_2  and  C_4
REMARK    2  A    between atoms: C_14  and  C_16
REMARK                            x       y       z     vdW  Elec       q    Type
REMARK                         _______ _______ _______ _____ _____    ______ ____
ROOT
ATOM      1  C   UNL     1       0.737  11.462  19.142  0.00  0.00    +0.000 C 
ATOM      2  C   UNL     1       1.322  10.060  19.036  0.00  0.00    +0.000 A 
ATOM      3  C   UNL     1       1.928   9.586  17.864  0.00  0.00    +0.000 A 
ATOM      4  C   UNL     1       2.428   8.285  17.815  0.00  0.00    +0.000 A 
ATOM      5  C   UNL     1       2.340   7.451  18.932  0.00  0.00    +0.000 A 
ATOM      6  C   UNL     1       1.739   7.912  20.102  0.00  0.00    +0.000 A 
ATOM      7  C   UNL     1       1.215   9.205  20.149  0.00  0.00    +0.000 A 
ATOM      8  C   UNL     1       0.483   9.733  21.354  0.00  0.00    +0.000 C 
ATOM      9  C   UNL     1      -0.780  10.471  20.886  0.00  0.00    +0.000 C 
ATOM     10  N   UNL     1      -0.602  11.421  19.770  0.00  0.00    +0.000 N 
ATOM     11  C   UNL     1      -1.529  12.390  19.351  0.00  0.00    +0.000 C 
ATOM     12  O   UNL     1      -1.275  13.139  18.406  0.00  0.00    +0.000 OA
ENDROOT
BRANCH  11  13
ATOM     13  C   UNL     1      -2.858  12.543  20.029  0.00  0.00    +0.000 A 
ATOM     14  C   UNL     1      -2.906  13.026  21.342  0.00  0.00    +0.000 A 
ATOM     15  C   UNL     1      -4.120  13.232  21.982  0.00  0.00    +0.000 A 
ATOM     16  C   UNL     1      -5.298  12.858  21.349  0.00  0.00    +0.000 A 
ATOM     17  C   UNL     1      -5.297  12.277  20.093  0.00  0.00    +0.000 A 
ATOM     18  N   UNL     1      -6.489  11.880  19.617  0.00  0.00    +0.000 NA
ATOM     19  C   UNL     1      -6.530  11.293  18.406  0.00  0.00    +0.000 A 
ATOM     20  C   UNL     1      -5.417  11.109  17.614  0.00  0.00    +0.000 A 
ATOM     21  C   UNL     1      -4.188  11.540  18.107  0.00  0.00    +0.000 A 
ATOM     22  C   UNL     1      -4.076  12.122  19.393  0.00  0.00    +0.000 A 
ENDBRANCH  11  13
BRANCH   1  24
ATOM     23  N   UNL     1       2.598  13.122  19.288  0.00  0.00    +0.000 N 
ATOM     24  C   UNL     1       1.652  12.415  19.977  0.00  0.00    +0.000 C 
ATOM     25  O   UNL     1       1.581  12.556  21.199  0.00  0.00    +0.000 OA
ATOM     26  H   UNL     1       3.231  13.692  19.832  0.00  0.00    +0.000 HD
ATOM     27  H   UNL     1       2.789  12.976  18.307  0.00  0.00    +0.000 HD
ENDBRANCH   1  24
TORSDOF 2
ENDMDL
MODEL 4
REMARK VINA RESULT:      -7.9      6.143      8.854
REMARK  Name = 
REMARK  2 active torsions:
REMARK  status: ('A' for Active; 'I' for Inactive)
REMARK    1  A    between atoms: C_2  and  C_4
REMARK    2  A    between atoms: C_14  and  C_16
REMARK                            x       y       z     vdW  Elec       q    Type
REMARK                         _______ _______ _______ _____ _____    ______ ____
ROOT
ATOM      1  C   UNL     1      -1.616  13.508  21.122  0.00  0.00    +0.000 C 
ATOM      2  C   UNL     1      -1.126  12.073  21.263  0.00  0.00    +0.000 A 
ATOM      3  C   UNL     1      -0.856  11.491  22.509  0.00  0.00    +0.000 A 
ATOM      4  C   UNL     1      -0.388  10.179  22.580  0.00  0.00    +0.000 A 
ATOM      5  C   UNL     1      -0.197   9.432  21.416  0.00  0.00    +0.000 A 
ATOM      6  C   UNL     1      -0.461  10.001  20.171  0.00  0.00    +0.000 A 
ATOM      7  C   UNL     1      -0.907  11.322  20.093  0.00  0.00    +0.000 A 
ATOM      8  C   UNL     1      -1.133  12.018  18.777  0.00  0.00    +0.000 C 
ATOM      9  C   UNL     1      -0.535  13.431  18.852  0.00  0.00    +0.000 C 
ATOM     10  N   UNL     1      -0.863  14.212  20.061  0.00  0.00    +0.000 N 
ATOM     11  C   UNL     1      -0.662  15.591  20.235  0.00  0.00    +0.000 C 
ATOM     12  O   UNL     1      -0.978  16.146  21.290  0.00  0.00    +0.000 OA
ENDROOT
BRANCH  11  13
ATOM     13  C   UNL     1      -0.052  16.434  19.155  0.00  0.00    +0.000 A 
ATOM     14  C   UNL     1      -0.888  17.166  18.304  0.00  0.00    +0.000 A 
ATOM     15  C   UNL     1      -0.359  17.999  17.328  0.00  0.00    +0.000 A 
ATOM     16  C   UNL     1       1.015  18.028  17.127  0.00  0.00    +0.000 A 
ATOM     17  C   UNL     1       1.877  17.243  17.872  0.00  0.00    +0.000 A 
ATOM     18  N   UNL     1       3.176  17.293  17.532  0.00  0.00    +0.000 NA
ATOM     19  C   UNL     1       4.046  16.530  18.221  0.00  0.00    +0.000 A 
ATOM     20  C   UNL     1       3.679  15.726  19.277  0.00  0.00    +0.000 A 
ATOM     21  C   UNL     1       2.333  15.694  19.635  0.00  0.00    +0.000 A 
ATOM     22  C   UNL     1       1.365  16.439  18.919  0.00  0.00    +0.000 A 
ENDBRANCH  11  13
BRANCH   1  24
ATOM     23  N   UNL     1      -3.629  14.783  20.374  0.00  0.00    +0.000 N 
ATOM     24  C   UNL     1      -3.140  13.572  20.779  0.00  0.00    +0.000 C 
ATOM     25  O   UNL     1      -3.914  12.617  20.862  0.00  0.00    +0.000 OA
ATOM     26  H   UNL     1      -4.626  14.843  20.210  0.00  0.00    +0.000 HD
ATOM     27  H   UNL     1      -3.083  15.632  20.389  0.00  0.00    +0.000 HD
ENDBRANCH   1  24
TORSDOF 2
ENDMDL
MODEL 5
REMARK VINA RESULT:      -7.8      2.453      4.180
REMARK  Name = 
REMARK  2 active torsions:
REMARK  status: ('A' for Active; 'I' for Inactive)
REMARK    1  A    between atoms: C_2  and  C_4
REMARK    2  A    between atoms: C_14  and  C_16
REMARK                            x       y       z     vdW  Elec       q    Type
REMARK                         _______ _______ _______ _____ _____    ______ ____
ROOT
ATOM      1  C   UNL     1       2.519   6.311  18.276  0.00  0.00    +0.000 C 
ATOM      2  C   UNL     1       1.971   4.971  18.749  0.00  0.00    +0.000 A 
ATOM      3  C   UNL     1       1.663   3.931  17.862  0.00  0.00    +0.000 A 
ATOM      4  C   UNL     1       1.142   2.731  18.346  0.00  0.00    +0.000 A 
ATOM      5  C   UNL     1       0.936   2.553  19.716  0.00  0.00    +0.000 A 
ATOM      6  C   UNL     1       1.238   3.581  20.608  0.00  0.00    +0.000 A 
ATOM      7  C   UNL     1       1.736   4.792  20.125  0.00  0.00    +0.000 A 
ATOM      8  C   UNL     1       2.006   5.967  21.027  0.00  0.00    +0.000 C 
ATOM      9  C   UNL     1       1.464   7.241  20.361  0.00  0.00    +0.000 C 
ATOM     10  N   UNL     1       1.807   7.427  18.937  0.00  0.00    +0.000 N 
ATOM     11  C   UNL     1       1.659   8.612  18.198  0.00  0.00    +0.000 C 
ATOM     12  O   UNL     1       1.984   8.658  17.009  0.00  0.00    +0.000 OA
ENDROOT
BRANCH  11  13
ATOM     13  C   UNL     1       1.096   9.855  18.819  0.00  0.00    +0.000 A 
ATOM     14  C   UNL     1       1.830  10.517  19.811  0.00  0.00    +0.000 A 
ATOM     15  C   UNL     1       1.367  11.700  20.370  0.00  0.00    +0.000 A 
ATOM     16  C   UNL     1       0.112  12.177  20.016  0.00  0.00    +0.000 A 
ATOM     17  C   UNL     1      -0.698  11.502  19.120  0.00  0.00    +0.000 A 
ATOM     18  N   UNL     1      -1.924  12.015  18.917  0.00  0.00    +0.000 NA
ATOM     19  C   UNL     1      -2.750  11.378  18.066  0.00  0.00    +0.000 A 
ATOM     20  C   UNL     1      -2.392  10.247  17.366  0.00  0.00    +0.000 A 
ATOM     21  C   UNL     1      -1.114   9.732  17.567  0.00  0.00    +0.000 A 
ATOM     22  C   UNL     1      -0.217  10.332  18.484  0.00  0.00    +0.000 A 
ENDBRANCH  11  13
BRANCH   1  24
ATOM     23  N   UNL     1       4.766   7.251  17.723  0.00  0.00    +0.000 N 
ATOM     24  C   UNL     1       4.048   6.451  18.568  0.00  0.00    +0.000 C 
ATOM     25  O   UNL     1       4.636   5.886  19.492  0.00  0.00    +0.000 OA
ATOM     26  H   UNL     1       5.766   7.296  17.873  0.00  0.00    +0.000 HD
ATOM     27  H   UNL     1       4.378   7.656  16.884  0.00  0.00    +0.000 HD
ENDBRANCH   1  24
TORSDOF 2
ENDMDL
MODEL 6
REMARK VINA RESULT:      -7.8      5.821     10.807
REMARK  Name = 
REMARK  2 active torsions:
REMARK  status: ('A' for Active; 'I' for Inactive)
REMARK    1  A    between atoms: C_2  and  C_4
REMARK    2  A    between atoms: C_14  and  C_16
REMARK                            x       y       z     vdW  Elec       q    Type
REMARK                         _______ _______ _______ _____ _____    ______ ____
ROOT
ATOM      1  C   UNL     1      -4.492  13.992  23.111  0.00  0.00    +0.000 C 
ATOM      2  C   UNL     1      -4.697  15.354  23.760  0.00  0.00    +0.000 A 
ATOM      3  C   UNL     1      -5.779  16.185  23.436  0.00  0.00    +0.000 A 
ATOM      4  C   UNL     1      -5.907  17.433  24.044  0.00  0.00    +0.000 A 
ATOM      5  C   UNL     1      -4.968  17.860  24.986  0.00  0.00    +0.000 A 
ATOM      6  C   UNL     1      -3.888  17.044  25.315  0.00  0.00    +0.000 A 
ATOM      7  C   UNL     1      -3.742  15.803  24.691  0.00  0.00    +0.000 A 
ATOM      8  C   UNL     1      -2.555  14.911  24.943  0.00  0.00    +0.000 C 
ATOM      9  C   UNL     1      -2.053  14.360  23.600  0.00  0.00    +0.000 C 
ATOM     10  N   UNL     1      -3.084  13.822  22.691  0.00  0.00    +0.000 N 
ATOM     11  C   UNL     1      -2.853  13.039  21.548  0.00  0.00    +0.000 C 
ATOM     12  O   UNL     1      -3.793  12.637  20.859  0.00  0.00    +0.000 OA
ENDROOT
BRANCH  11  13
ATOM     13  C   UNL     1      -1.463  12.670  21.121  0.00  0.00    +0.000 A 
ATOM     14  C   UNL     1      -0.878  13.342  20.041  0.00  0.00    +0.000 A 
ATOM     15  C   UNL     1       0.425  13.066  19.652  0.00  0.00    +0.000 A 
ATOM     16  C   UNL     1       1.121  12.040  20.276  0.00  0.00    +0.000 A 
ATOM     17  C   UNL     1       0.550  11.276  21.277  0.00  0.00    +0.000 A 
ATOM     18  N   UNL     1       1.289  10.258  21.749  0.00  0.00    +0.000 NA
ATOM     19  C   UNL     1       0.762   9.478  22.712  0.00  0.00    +0.000 A 
ATOM     20  C   UNL     1      -0.482   9.690  23.263  0.00  0.00    +0.000 A 
ATOM     21  C   UNL     1      -1.235  10.758  22.782  0.00  0.00    +0.000 A 
ATOM     22  C   UNL     1      -0.753  11.585  21.739  0.00  0.00    +0.000 A 
ENDBRANCH  11  13
BRANCH   1  24
ATOM     23  N   UNL     1      -6.124  12.851  24.619  0.00  0.00    +0.000 N 
ATOM     24  C   UNL     1      -4.868  12.823  24.079  0.00  0.00    +0.000 C 
ATOM     25  O   UNL     1      -4.111  11.902  24.387  0.00  0.00    +0.000 OA
ATOM     26  H   UNL     1      -6.349  12.130  25.292  0.00  0.00    +0.000 HD
ATOM     27  H   UNL     1      -6.758  13.628  24.502  0.00  0.00    +0.000 HD
ENDBRANCH   1  24
TORSDOF 2
ENDMDL
MODEL 7
REMARK VINA RESULT:      -7.8      3.635      5.914
REMARK  Name = 
REMARK  2 active torsions:
REMARK  status: ('A' for Active; 'I' for Inactive)
REMARK    1  A    between atoms: C_2  and  C_4
REMARK    2  A    between atoms: C_14  and  C_16
REMARK                            x       y       z     vdW  Elec       q    Type
REMARK                         _______ _______ _______ _____ _____    ______ ____
ROOT
ATOM      1  C   UNL     1       0.785  11.079  18.871  0.00  0.00    +0.000 C 
ATOM      2  C   UNL     1       1.442   9.706  18.892  0.00  0.00    +0.000 A 
ATOM      3  C   UNL     1       2.214   9.226  17.825  0.00  0.00    +0.000 A 
ATOM      4  C   UNL     1       2.775   7.951  17.887  0.00  0.00    +0.000 A 
ATOM      5  C   UNL     1       2.583   7.148  19.013  0.00  0.00    +0.000 A 
ATOM      6  C   UNL     1       1.816   7.614  20.080  0.00  0.00    +0.000 A 
ATOM      7  C   UNL     1       1.232   8.881  20.013  0.00  0.00    +0.000 A 
ATOM      8  C   UNL     1       0.329   9.408  21.096  0.00  0.00    +0.000 C 
ATOM      9  C   UNL     1      -0.896  10.068  20.444  0.00  0.00    +0.000 C 
ATOM     10  N   UNL     1      -0.620  10.991  19.326  0.00  0.00    +0.000 N 
ATOM     11  C   UNL     1      -1.529  11.899  18.758  0.00  0.00    +0.000 C 
ATOM     12  O   UNL     1      -1.189  12.631  17.825  0.00  0.00    +0.000 OA
ENDROOT
BRANCH  11  13
ATOM     13  C   UNL     1      -2.940  12.006  19.255  0.00  0.00    +0.000 A 
ATOM     14  C   UNL     1      -3.983  11.507  18.467  0.00  0.00    +0.000 A 
ATOM     15  C   UNL     1      -5.295  11.539  18.917  0.00  0.00    +0.000 A 
ATOM     16  C   UNL     1      -5.589  12.167  20.120  0.00  0.00    +0.000 A 
ATOM     17  C   UNL     1      -4.607  12.770  20.885  0.00  0.00    +0.000 A 
ATOM     18  N   UNL     1      -5.021  13.419  21.987  0.00  0.00    +0.000 NA
ATOM     19  C   UNL     1      -4.098  14.035  22.750  0.00  0.00    +0.000 A 
ATOM     20  C   UNL     1      -2.748  14.007  22.479  0.00  0.00    +0.000 A 
ATOM     21  C   UNL     1      -2.325  13.317  21.346  0.00  0.00    +0.000 A 
ATOM     22  C   UNL     1      -3.253  12.688  20.480  0.00  0.00    +0.000 A 
ENDBRANCH  11  13
BRANCH   1  24
ATOM     23  N   UNL     1       2.360  12.997  19.151  0.00  0.00    +0.000 N 
ATOM     24  C   UNL     1       1.541  12.101  19.780  0.00  0.00    +0.000 C 
ATOM     25  O   UNL     1       1.453  12.139  21.009  0.00  0.00    +0.000 OA
ATOM     26  H   UNL     1       2.897  13.620  19.741  0.00  0.00    +0.000 HD
ATOM     27  H   UNL     1       2.568  12.956  18.164  0.00  0.00    +0.000 HD
ENDBRANCH   1  24
TORSDOF 2
ENDMDL
MODEL 8
REMARK VINA RESULT:      -7.8      7.928     10.686
REMARK  Name = 
REMARK  2 active torsions:
REMARK  status: ('A' for Active; 'I' for Inactive)
REMARK    1  A    between atoms: C_2  and  C_4
REMARK    2  A    between atoms: C_14  and  C_16
REMARK                            x       y       z     vdW  Elec       q    Type
REMARK                         _______ _______ _______ _____ _____    ______ ____
ROOT
ATOM      1  C   UNL     1       5.264  15.555  20.178  0.00  0.00    +0.000 C 
ATOM      2  C   UNL     1       4.042  14.683  19.924  0.00  0.00    +0.000 A 
ATOM      3  C   UNL     1       3.352  14.038  20.960  0.00  0.00    +0.000 A 
ATOM      4  C   UNL     1       2.251  13.233  20.670  0.00  0.00    +0.000 A 
ATOM      5  C   UNL     1       1.820  13.073  19.351  0.00  0.00    +0.000 A 
ATOM      6  C   UNL     1       2.499  13.708  18.313  0.00  0.00    +0.000 A 
ATOM      7  C   UNL     1       3.617  14.496  18.596  0.00  0.00    +0.000 A 
ATOM      8  C   UNL     1       4.439  15.143  17.513  0.00  0.00    +0.000 C 
ATOM      9  C   UNL     1       5.928  14.940  17.831  0.00  0.00    +0.000 C 
ATOM     10  N   UNL     1       6.342  15.230  19.218  0.00  0.00    +0.000 N 
ATOM     11  C   UNL     1       7.663  15.375  19.675  0.00  0.00    +0.000 C 
ATOM     12  O   UNL     1       7.896  15.623  20.860  0.00  0.00    +0.000 OA
ENDROOT
BRANCH  11  13
ATOM     13  C   UNL     1       8.831  15.226  18.746  0.00  0.00    +0.000 A 
ATOM     14  C   UNL     1       9.295  16.345  18.045  0.00  0.00    +0.000 A 
ATOM     15  C   UNL     1      10.407  16.258  17.219  0.00  0.00    +0.000 A 
ATOM     16  C   UNL     1      11.004  15.023  17.005  0.00  0.00    +0.000 A 
ATOM     17  C   UNL     1      10.517  13.868  17.591  0.00  0.00    +0.000 A 
ATOM     18  N   UNL     1      11.125  12.720  17.246  0.00  0.00    +0.000 NA
ATOM     19  C   UNL     1      10.670  11.571  17.780  0.00  0.00    +0.000 A 
ATOM     20  C   UNL     1       9.636  11.513  18.689  0.00  0.00    +0.000 A 
ATOM     21  C   UNL     1       9.024  12.709  19.056  0.00  0.00    +0.000 A 
ATOM     22  C   UNL     1       9.428  13.944  18.493  0.00  0.00    +0.000 A 
ENDBRANCH  11  13
BRANCH   1  24
ATOM     23  N   UNL     1       3.803  17.513  20.697  0.00  0.00    +0.000 N 
ATOM     24  C   UNL     1       4.930  17.077  20.057  0.00  0.00    +0.000 C 
ATOM     25  O   UNL     1       5.603  17.890  19.422  0.00  0.00    +0.000 OA
ATOM     26  H   UNL     1       3.551  18.484  20.571  0.00  0.00    +0.000 HD
ATOM     27  H   UNL     1       3.145  16.889  21.142  0.00  0.00    +0.000 HD
ENDBRANCH   1  24
TORSDOF 2
ENDMDL
MODEL 9
REMARK VINA RESULT:      -7.8      4.583      6.922
REMARK  Name = 
REMARK  2 active torsions:
REMARK  status: ('A' for Active; 'I' for Inactive)
REMARK    1  A    between atoms: C_2  and  C_4
REMARK    2  A    between atoms: C_14  and  C_16
REMARK                            x       y       z     vdW  Elec       q    Type
REMARK                         _______ _______ _______ _____ _____    ______ ____
ROOT
ATOM      1  C   UNL     1       0.130  11.270  19.977  0.00  0.00    +0.000 C 
ATOM      2  C   UNL     1       0.728   9.871  20.047  0.00  0.00    +0.000 A 
ATOM      3  C   UNL     1       0.562   9.038  21.162  0.00  0.00    +0.000 A 
ATOM      4  C   UNL     1       1.151   7.774  21.183  0.00  0.00    +0.000 A 
ATOM      5  C   UNL     1       1.897   7.323  20.092  0.00  0.00    +0.000 A 
ATOM      6  C   UNL     1       2.070   8.143  18.978  0.00  0.00    +0.000 A 
ATOM      7  C   UNL     1       1.503   9.419  18.962  0.00  0.00    +0.000 A 
ATOM      8  C   UNL     1       1.720  10.381  17.824  0.00  0.00    +0.000 C 
ATOM      9  C   UNL     1       2.024  11.773  18.400  0.00  0.00    +0.000 C 
ATOM     10  N   UNL     1       1.131  12.239  19.480  0.00  0.00    +0.000 N 
ATOM     11  C   UNL     1       1.041  13.552  19.971  0.00  0.00    +0.000 C 
ATOM     12  O   UNL     1       0.253  13.834  20.877  0.00  0.00    +0.000 OA
ENDROOT
BRANCH  11  13
ATOM     13  C   UNL     1       1.899  14.652  19.421  0.00  0.00    +0.000 A 
ATOM     14  C   UNL     1       3.282  14.612  19.634  0.00  0.00    +0.000 A 
ATOM     15  C   UNL     1       4.115  15.582  19.095  0.00  0.00    +0.000 A 
ATOM     16  C   UNL     1       3.559  16.663  18.423  0.00  0.00    +0.000 A 
ATOM     17  C   UNL     1       2.190  16.804  18.278  0.00  0.00    +0.000 A 
ATOM     18  N   UNL     1       1.764  17.931  17.682  0.00  0.00    +0.000 NA
ATOM     19  C   UNL     1       0.438  18.115  17.538  0.00  0.00    +0.000 A 
ATOM     20  C   UNL     1      -0.504  17.193  17.938  0.00  0.00    +0.000 A 
ATOM     21  C   UNL     1      -0.054  16.020  18.538  0.00  0.00    +0.000 A 
ATOM     22  C   UNL     1       1.326  15.790  18.758  0.00  0.00    +0.000 A 
ENDBRANCH  11  13
BRANCH   1  24
ATOM     23  N   UNL     1      -1.551  12.561  18.657  0.00  0.00    +0.000 N 
ATOM     24  C   UNL     1      -1.123  11.322  19.044  0.00  0.00    +0.000 C 
ATOM     25  O   UNL     1      -1.742  10.331  18.653  0.00  0.00    +0.000 OA
ATOM     26  H   UNL     1      -2.397  12.601  18.103  0.00  0.00    +0.000 HD
ATOM     27  H   UNL     1      -1.165  13.418  19.024  0.00  0.00    +0.000 HD
ENDBRANCH   1  24
TORSDOF 2
ENDMDL
