MODEL 1
REMARK VINA RESULT:     -10.1      0.000      0.000
REMARK  Name = 
REMARK  7 active torsions:
REMARK  status: ('A' for Active; 'I' for Inactive)
REMARK    1  A    between atoms: C_1  and  C_2
REMARK    2  A    between atoms: C_5  and  N_6
REMARK    3  A    between atoms: C_7  and  C_9
REMARK    4  A    between atoms: C_9  and  N_10
REMARK    5  A    between atoms: C_9  and  C_23
REMARK    6  A    between atoms: N_10  and  C_11
REMARK    7  A    between atoms: C_15  and  N_16
REMARK                            x       y       z     vdW  Elec       q    Type
REMARK                         _______ _______ _______ _____ _____    ______ ____
ROOT
ATOM      1  C   UNL     1       2.979   6.532  19.306  0.00  0.00    +0.000 C 
ENDROOT
BRANCH   1   2
ATOM      2  C   UNL     1       2.207   5.209  19.433  0.00  0.00    +0.000 A 
ATOM      3  C   UNL     1       1.890   4.645  20.680  0.00  0.00    +0.000 A 
ATOM      4  C   UNL     1       1.230   3.415  20.775  0.00  0.00    +0.000 A 
ATOM      5  C   UNL     1       0.840   2.741  19.621  0.00  0.00    +0.000 A 
ATOM      6  C   UNL     1       1.118   3.294  18.376  0.00  0.00    +0.000 A 
ATOM      7  C   UNL     1       1.801   4.512  18.279  0.00  0.00    +0.000 A 
ENDBRANCH   1   2
BRANCH   1   9
ATOM      8  N   UNL     1       1.888   8.095  20.927  0.00  0.00    +0.000 N 
ATOM      9  C   UNL     1       2.077   7.787  19.577  0.00  0.00    +0.000 C 
ATOM     10  O   UNL     1       1.603   8.450  18.648  0.00  0.00    +0.000 OA
ATOM     11  H   UNL     1       2.508   7.651  21.593  0.00  0.00    +0.000 HD
BRANCH   8  16
ATOM     12  C   UNL     1      -1.690  12.120  22.961  0.00  0.00    +0.000 C 
ATOM     13  C   UNL     1      -0.749  11.077  22.430  0.00  0.00    +0.000 A 
ATOM     14  C   UNL     1      -0.693   9.821  23.029  0.00  0.00    +0.000 A 
ATOM     15  C   UNL     1       0.173   8.838  22.545  0.00  0.00    +0.000 A 
ATOM     16  C   UNL     1       0.996   9.069  21.442  0.00  0.00    +0.000 A 
ATOM     17  C   UNL     1       0.948  10.336  20.843  0.00  0.00    +0.000 A 
ATOM     18  C   UNL     1       0.080  11.331  21.332  0.00  0.00    +0.000 A 
ENDBRANCH   8  16
ENDBRANCH   1   9
BRANCH   1  19
ATOM     19  N   UNL     1       3.587   6.663  17.962  0.00  0.00    +0.000 N 
ATOM     20  H   UNL     1       2.881   6.719  17.229  0.00  0.00    +0.000 HD
BRANCH  19  21
ATOM     21  C   UNL     1       4.714   5.947  17.558  0.00  0.00    +0.000 A 
ATOM     22  C   UNL     1       5.645   5.427  18.457  0.00  0.00    +0.000 A 
ATOM     23  C   UNL     1       6.809   4.810  18.009  0.00  0.00    +0.000 A 
ATOM     24  C   UNL     1       7.045   4.658  16.647  0.00  0.00    +0.000 A 
ATOM     25  C   UNL     1       6.100   5.067  15.703  0.00  0.00    +0.000 A 
ATOM     26  C   UNL     1       4.951   5.739  16.178  0.00  0.00    +0.000 A 
BRANCH  25  27
ATOM     27  N   UNL     1       6.279   4.739  14.327  0.00  0.00    +0.000 N 
ATOM     28  C   UNL     1       5.344   3.936  13.578  0.00  0.00    +0.000 C 
ATOM     29  C   UNL     1       6.207   3.258  12.530  0.00  0.00    +0.000 C 
ATOM     30  C   UNL     1       7.286   4.283  12.239  0.00  0.00    +0.000 C 
ATOM     31  C   UNL     1       7.415   5.027  13.547  0.00  0.00    +0.000 C 
ATOM     32  O   UNL     1       8.362   5.758  13.796  0.00  0.00    +0.000 OA
ENDBRANCH  25  27
ENDBRANCH  19  21
ENDBRANCH   1  19
TORSDOF 6
ENDMDL
MODEL 2
REMARK VINA RESULT:      -9.9      1.871      2.012
REMARK  Name = 
REMARK  7 active torsions:
REMARK  status: ('A' for Active; 'I' for Inactive)
REMARK    1  A    between atoms: C_1  and  C_2
REMARK    2  A    between atoms: C_5  and  N_6
REMARK    3  A    between atoms: C_7  and  C_9
REMARK    4  A    between atoms: C_9  and  N_10
REMARK    5  A    between atoms: C_9  and  C_23
REMARK    6  A    between atoms: N_10  and  C_11
REMARK    7  A    between atoms: C_15  and  N_16
REMARK                            x       y       z     vdW  Elec       q    Type
REMARK                         _______ _______ _______ _____ _____    ______ ____
ROOT
ATOM      1  C   UNL     1       3.061   6.392  19.155  0.00  0.00    +0.000 C 
ENDROOT
BRANCH   1   2
ATOM      2  C   UNL     1       2.240   5.100  19.288  0.00  0.00    +0.000 A 
ATOM      3  C   UNL     1       1.847   4.589  20.536  0.00  0.00    +0.000 A 
ATOM      4  C   UNL     1       1.143   3.384  20.641  0.00  0.00    +0.000 A 
ATOM      5  C   UNL     1       0.785   2.684  19.492  0.00  0.00    +0.000 A 
ATOM      6  C   UNL     1       1.137   3.186  18.243  0.00  0.00    +0.000 A 
ATOM      7  C   UNL     1       1.864   4.377  18.139  0.00  0.00    +0.000 A 
ENDBRANCH   1   2
BRANCH   1   9
ATOM      8  N   UNL     1       1.959   8.504  18.385  0.00  0.00    +0.000 N 
ATOM      9  C   UNL     1       2.221   7.678  19.482  0.00  0.00    +0.000 C 
ATOM     10  O   UNL     1       1.815   7.906  20.626  0.00  0.00    +0.000 OA
ATOM     11  H   UNL     1       2.118   8.112  17.465  0.00  0.00    +0.000 HD
BRANCH   8  16
ATOM     12  C   UNL     1      -0.347  13.773  18.602  0.00  0.00    +0.000 C 
ATOM     13  C   UNL     1       0.261  12.402  18.553  0.00  0.00    +0.000 A 
ATOM     14  C   UNL     1      -0.559  11.275  18.584  0.00  0.00    +0.000 A 
ATOM     15  C   UNL     1      -0.009   9.992  18.535  0.00  0.00    +0.000 A 
ATOM     16  C   UNL     1       1.369   9.791  18.435  0.00  0.00    +0.000 A 
ATOM     17  C   UNL     1       2.196  10.923  18.413  0.00  0.00    +0.000 A 
ATOM     18  C   UNL     1       1.645  12.218  18.468  0.00  0.00    +0.000 A 
ENDBRANCH   8  16
ENDBRANCH   1   9
BRANCH   1  19
ATOM     19  N   UNL     1       3.622   6.525  17.791  0.00  0.00    +0.000 N 
ATOM     20  H   UNL     1       2.894   6.516  17.077  0.00  0.00    +0.000 HD
BRANCH  19  21
ATOM     21  C   UNL     1       4.781   5.870  17.373  0.00  0.00    +0.000 A 
ATOM     22  C   UNL     1       5.758   5.418  18.259  0.00  0.00    +0.000 A 
ATOM     23  C   UNL     1       6.947   4.863  17.796  0.00  0.00    +0.000 A 
ATOM     24  C   UNL     1       7.164   4.707  16.431  0.00  0.00    +0.000 A 
ATOM     25  C   UNL     1       6.179   5.047  15.501  0.00  0.00    +0.000 A 
ATOM     26  C   UNL     1       5.002   5.657  15.991  0.00  0.00    +0.000 A 
BRANCH  25  27
ATOM     27  N   UNL     1       6.349   4.710  14.126  0.00  0.00    +0.000 N 
ATOM     28  C   UNL     1       5.435   3.863  13.400  0.00  0.00    +0.000 C 
ATOM     29  C   UNL     1       6.308   3.207  12.346  0.00  0.00    +0.000 C 
ATOM     30  C   UNL     1       7.341   4.270  12.027  0.00  0.00    +0.000 C 
ATOM     31  C   UNL     1       7.461   5.033  13.325  0.00  0.00    +0.000 C 
ATOM     32  O   UNL     1       8.382   5.803  13.552  0.00  0.00    +0.000 OA
ENDBRANCH  25  27
ENDBRANCH  19  21
ENDBRANCH   1  19
TORSDOF 6
ENDMDL
MODEL 3
REMARK VINA RESULT:      -9.8      1.852      2.281
REMARK  Name = 
REMARK  7 active torsions:
REMARK  status: ('A' for Active; 'I' for Inactive)
REMARK    1  A    between atoms: C_1  and  C_2
REMARK    2  A    between atoms: C_5  and  N_6
REMARK    3  A    between atoms: C_7  and  C_9
REMARK    4  A    between atoms: C_9  and  N_10
REMARK    5  A    between atoms: C_9  and  C_23
REMARK    6  A    between atoms: N_10  and  C_11
REMARK    7  A    between atoms: C_15  and  N_16
REMARK                            x       y       z     vdW  Elec       q    Type
REMARK                         _______ _______ _______ _____ _____    ______ ____
ROOT
ATOM      1  C   UNL     1       3.074   6.493  19.205  0.00  0.00    +0.000 C 
ENDROOT
BRANCH   1   2
ATOM      2  C   UNL     1       2.286   5.178  19.298  0.00  0.00    +0.000 A 
ATOM      3  C   UNL     1       1.861   4.478  18.157  0.00  0.00    +0.000 A 
ATOM      4  C   UNL     1       1.101   3.308  18.261  0.00  0.00    +0.000 A 
ATOM      5  C   UNL     1       0.781   2.793  19.514  0.00  0.00    +0.000 A 
ATOM      6  C   UNL     1       1.215   3.453  20.659  0.00  0.00    +0.000 A 
ATOM      7  C   UNL     1       1.953   4.638  20.556  0.00  0.00    +0.000 A 
ENDBRANCH   1   2
BRANCH   1   9
ATOM      8  N   UNL     1       2.015   8.624  18.428  0.00  0.00    +0.000 N 
ATOM      9  C   UNL     1       2.186   7.752  19.507  0.00  0.00    +0.000 C 
ATOM     10  O   UNL     1       1.669   7.922  20.616  0.00  0.00    +0.000 OA
ATOM     11  H   UNL     1       2.267   8.277  17.511  0.00  0.00    +0.000 HD
BRANCH   8  16
ATOM     12  C   UNL     1      -0.568  13.765  18.617  0.00  0.00    +0.000 C 
ATOM     13  C   UNL     1       0.099  12.421  18.561  0.00  0.00    +0.000 A 
ATOM     14  C   UNL     1       1.488  12.336  18.482  0.00  0.00    +0.000 A 
ATOM     15  C   UNL     1       2.123  11.093  18.433  0.00  0.00    +0.000 A 
ATOM     16  C   UNL     1       1.401   9.900  18.478  0.00  0.00    +0.000 A 
ATOM     17  C   UNL     1       0.002   9.984  18.548  0.00  0.00    +0.000 A 
ATOM     18  C   UNL     1      -0.642  11.235  18.592  0.00  0.00    +0.000 A 
ENDBRANCH   8  16
ENDBRANCH   1   9
BRANCH   1  19
ATOM     19  N   UNL     1       3.684   6.652  17.864  0.00  0.00    +0.000 N 
ATOM     20  H   UNL     1       2.978   6.727  17.132  0.00  0.00    +0.000 HD
BRANCH  19  21
ATOM     21  C   UNL     1       4.808   5.940  17.445  0.00  0.00    +0.000 A 
ATOM     22  C   UNL     1       5.755   5.427  18.331  0.00  0.00    +0.000 A 
ATOM     23  C   UNL     1       6.914   4.814  17.868  0.00  0.00    +0.000 A 
ATOM     24  C   UNL     1       7.130   4.660  16.503  0.00  0.00    +0.000 A 
ATOM     25  C   UNL     1       6.169   5.061  15.572  0.00  0.00    +0.000 A 
ATOM     26  C   UNL     1       5.024   5.729  16.062  0.00  0.00    +0.000 A 
BRANCH  25  27
ATOM     27  N   UNL     1       6.329   4.728  14.195  0.00  0.00    +0.000 N 
ATOM     28  C   UNL     1       5.393   3.908  13.466  0.00  0.00    +0.000 C 
ATOM     29  C   UNL     1       6.248   3.238  12.405  0.00  0.00    +0.000 C 
ATOM     30  C   UNL     1       7.305   4.278  12.090  0.00  0.00    +0.000 C 
ATOM     31  C   UNL     1       7.445   5.030  13.393  0.00  0.00    +0.000 C 
ATOM     32  O   UNL     1       8.385   5.778  13.622  0.00  0.00    +0.000 OA
ENDBRANCH  25  27
ENDBRANCH  19  21
ENDBRANCH   1  19
TORSDOF 6
ENDMDL
MODEL 4
REMARK VINA RESULT:      -9.4      1.481      1.918
REMARK  Name = 
REMARK  7 active torsions:
REMARK  status: ('A' for Active; 'I' for Inactive)
REMARK    1  A    between atoms: C_1  and  C_2
REMARK    2  A    between atoms: C_5  and  N_6
REMARK    3  A    between atoms: C_7  and  C_9
REMARK    4  A    between atoms: C_9  and  N_10
REMARK    5  A    between atoms: C_9  and  C_23
REMARK    6  A    between atoms: N_10  and  C_11
REMARK    7  A    between atoms: C_15  and  N_16
REMARK                            x       y       z     vdW  Elec       q    Type
REMARK                         _______ _______ _______ _____ _____    ______ ____
ROOT
ATOM      1  C   UNL     1       3.547   5.778  19.506  0.00  0.00    +0.000 C 
ENDROOT
BRANCH   1   2
ATOM      2  C   UNL     1       3.110   4.351  19.139  0.00  0.00    +0.000 A 
ATOM      3  C   UNL     1       2.065   4.098  18.236  0.00  0.00    +0.000 A 
ATOM      4  C   UNL     1       1.647   2.793  17.952  0.00  0.00    +0.000 A 
ATOM      5  C   UNL     1       2.295   1.711  18.541  0.00  0.00    +0.000 A 
ATOM      6  C   UNL     1       3.352   1.935  19.417  0.00  0.00    +0.000 A 
ATOM      7  C   UNL     1       3.753   3.241  19.721  0.00  0.00    +0.000 A 
ENDBRANCH   1   2
BRANCH   1   9
ATOM      8  N   UNL     1       2.221   7.845  19.020  0.00  0.00    +0.000 N 
ATOM      9  C   UNL     1       2.332   6.716  19.837  0.00  0.00    +0.000 C 
ATOM     10  O   UNL     1       1.534   6.440  20.739  0.00  0.00    +0.000 OA
ATOM     11  H   UNL     1       2.767   7.852  18.167  0.00  0.00    +0.000 HD
BRANCH   8  16
ATOM     12  C   UNL     1      -1.437  12.239  19.684  0.00  0.00    +0.000 C 
ATOM     13  C   UNL     1      -0.479  11.098  19.503  0.00  0.00    +0.000 A 
ATOM     14  C   UNL     1       0.157  10.541  20.611  0.00  0.00    +0.000 A 
ATOM     15  C   UNL     1       1.049   9.476  20.460  0.00  0.00    +0.000 A 
ATOM     16  C   UNL     1       1.321   8.923  19.208  0.00  0.00    +0.000 A 
ATOM     17  C   UNL     1       0.689   9.488  18.091  0.00  0.00    +0.000 A 
ATOM     18  C   UNL     1      -0.206  10.564  18.239  0.00  0.00    +0.000 A 
ENDBRANCH   8  16
ENDBRANCH   1   9
BRANCH   1  19
ATOM     19  N   UNL     1       4.336   6.389  18.411  0.00  0.00    +0.000 N 
ATOM     20  H   UNL     1       3.742   6.882  17.744  0.00  0.00    +0.000 HD
BRANCH  19  21
ATOM     21  C   UNL     1       5.410   5.749  17.792  0.00  0.00    +0.000 A 
ATOM     22  C   UNL     1       6.507   5.256  18.497  0.00  0.00    +0.000 A 
ATOM     23  C   UNL     1       7.605   4.719  17.833  0.00  0.00    +0.000 A 
ATOM     24  C   UNL     1       7.608   4.621  16.445  0.00  0.00    +0.000 A 
ATOM     25  C   UNL     1       6.495   5.004  15.694  0.00  0.00    +0.000 A 
ATOM     26  C   UNL     1       5.413   5.596  16.385  0.00  0.00    +0.000 A 
BRANCH  25  27
ATOM     27  N   UNL     1       6.448   4.726  14.296  0.00  0.00    +0.000 N 
ATOM     28  C   UNL     1       5.405   3.944  13.679  0.00  0.00    +0.000 C 
ATOM     29  C   UNL     1       6.087   3.311  12.481  0.00  0.00    +0.000 C 
ATOM     30  C   UNL     1       7.103   4.353  12.057  0.00  0.00    +0.000 C 
ATOM     31  C   UNL     1       7.442   5.050  13.354  0.00  0.00    +0.000 C 
ATOM     32  O   UNL     1       8.416   5.779  13.472  0.00  0.00    +0.000 OA
ENDBRANCH  25  27
ENDBRANCH  19  21
ENDBRANCH   1  19
TORSDOF 6
ENDMDL
MODEL 5
REMARK VINA RESULT:      -9.3      1.353      1.767
REMARK  Name = 
REMARK  7 active torsions:
REMARK  status: ('A' for Active; 'I' for Inactive)
REMARK    1  A    between atoms: C_1  and  C_2
REMARK    2  A    between atoms: C_5  and  N_6
REMARK    3  A    between atoms: C_7  and  C_9
REMARK    4  A    between atoms: C_9  and  N_10
REMARK    5  A    between atoms: C_9  and  C_23
REMARK    6  A    between atoms: N_10  and  C_11
REMARK    7  A    between atoms: C_15  and  N_16
REMARK                            x       y       z     vdW  Elec       q    Type
REMARK                         _______ _______ _______ _____ _____    ______ ____
ROOT
ATOM      1  C   UNL     1       3.353   5.866  19.471  0.00  0.00    +0.000 C 
ENDROOT
BRANCH   1   2
ATOM      2  C   UNL     1       2.833   4.436  19.256  0.00  0.00    +0.000 A 
ATOM      3  C   UNL     1       3.514   3.311  19.748  0.00  0.00    +0.000 A 
ATOM      4  C   UNL     1       3.052   2.014  19.500  0.00  0.00    +0.000 A 
ATOM      5  C   UNL     1       1.876   1.818  18.781  0.00  0.00    +0.000 A 
ATOM      6  C   UNL     1       1.168   2.918  18.308  0.00  0.00    +0.000 A 
ATOM      7  C   UNL     1       1.643   4.215  18.534  0.00  0.00    +0.000 A 
ENDBRANCH   1   2
BRANCH   1   9
ATOM      8  N   UNL     1       2.082   7.981  19.052  0.00  0.00    +0.000 N 
ATOM      9  C   UNL     1       2.216   6.867  19.885  0.00  0.00    +0.000 C 
ATOM     10  O   UNL     1       1.492   6.649  20.862  0.00  0.00    +0.000 OA
ATOM     11  H   UNL     1       2.548   7.944  18.153  0.00  0.00    +0.000 HD
BRANCH   8  16
ATOM     12  C   UNL     1      -1.290  12.521  20.123  0.00  0.00    +0.000 C 
ATOM     13  C   UNL     1      -0.415  11.332  19.850  0.00  0.00    +0.000 A 
ATOM     14  C   UNL     1      -0.206  10.908  18.540  0.00  0.00    +0.000 A 
ATOM     15  C   UNL     1       0.609   9.805  18.270  0.00  0.00    +0.000 A 
ATOM     16  C   UNL     1       1.252   9.105  19.291  0.00  0.00    +0.000 A 
ATOM     17  C   UNL     1       1.035   9.525  20.612  0.00  0.00    +0.000 A 
ATOM     18  C   UNL     1       0.210  10.632  20.888  0.00  0.00    +0.000 A 
ENDBRANCH   8  16
ENDBRANCH   1   9
BRANCH   1  19
ATOM     19  N   UNL     1       4.016   6.378  18.249  0.00  0.00    +0.000 N 
ATOM     20  H   UNL     1       3.341   6.659  17.539  0.00  0.00    +0.000 HD
BRANCH  19  21
ATOM     21  C   UNL     1       5.155   5.793  17.694  0.00  0.00    +0.000 A 
ATOM     22  C   UNL     1       6.254   5.399  18.457  0.00  0.00    +0.000 A 
ATOM     23  C   UNL     1       7.410   4.916  17.854  0.00  0.00    +0.000 A 
ATOM     24  C   UNL     1       7.476   4.773  16.472  0.00  0.00    +0.000 A 
ATOM     25  C   UNL     1       6.370   5.055  15.666  0.00  0.00    +0.000 A 
ATOM     26  C   UNL     1       5.225   5.594  16.294  0.00  0.00    +0.000 A 
BRANCH  25  27
ATOM     27  N   UNL     1       6.398   4.729  14.278  0.00  0.00    +0.000 N 
ATOM     28  C   UNL     1       5.407   3.898  13.641  0.00  0.00    +0.000 C 
ATOM     29  C   UNL     1       6.163   3.244  12.499  0.00  0.00    +0.000 C 
ATOM     30  C   UNL     1       7.170   4.299  12.087  0.00  0.00    +0.000 C 
ATOM     31  C   UNL     1       7.427   5.049  13.373  0.00  0.00    +0.000 C 
ATOM     32  O   UNL     1       8.374   5.809  13.511  0.00  0.00    +0.000 OA
ENDBRANCH  25  27
ENDBRANCH  19  21
ENDBRANCH   1  19
TORSDOF 6
ENDMDL
MODEL 6
REMARK VINA RESULT:      -9.1      1.189      1.728
REMARK  Name = 
REMARK  7 active torsions:
REMARK  status: ('A' for Active; 'I' for Inactive)
REMARK    1  A    between atoms: C_1  and  C_2
REMARK    2  A    between atoms: C_5  and  N_6
REMARK    3  A    between atoms: C_7  and  C_9
REMARK    4  A    between atoms: C_9  and  N_10
REMARK    5  A    between atoms: C_9  and  C_23
REMARK    6  A    between atoms: N_10  and  C_11
REMARK    7  A    between atoms: C_15  and  N_16
REMARK                            x       y       z     vdW  Elec       q    Type
REMARK                         _______ _______ _______ _____ _____    ______ ____
ROOT
ATOM      1  C   UNL     1       3.197   7.351  18.494  0.00  0.00    +0.000 C 
ENDROOT
BRANCH   1   2
ATOM      2  C   UNL     1       2.485   6.017  18.764  0.00  0.00    +0.000 A 
ATOM      3  C   UNL     1       2.025   5.190  17.726  0.00  0.00    +0.000 A 
ATOM      4  C   UNL     1       1.334   4.003  17.992  0.00  0.00    +0.000 A 
ATOM      5  C   UNL     1       1.121   3.600  19.307  0.00  0.00    +0.000 A 
ATOM      6  C   UNL     1       1.593   4.387  20.352  0.00  0.00    +0.000 A 
ATOM      7  C   UNL     1       2.261   5.588  20.087  0.00  0.00    +0.000 A 
ENDBRANCH   1   2
BRANCH   1   9
ATOM      8  N   UNL     1       1.584   8.864  19.665  0.00  0.00    +0.000 N 
ATOM      9  C   UNL     1       2.204   8.567  18.449  0.00  0.00    +0.000 C 
ATOM     10  O   UNL     1       2.024   9.211  17.410  0.00  0.00    +0.000 OA
ATOM     11  H   UNL     1       1.977   8.445  20.499  0.00  0.00    +0.000 HD
BRANCH   8  16
ATOM     12  C   UNL     1      -2.646  12.668  20.545  0.00  0.00    +0.000 C 
ATOM     13  C   UNL     1      -1.544  11.673  20.325  0.00  0.00    +0.000 A 
ATOM     14  C   UNL     1      -1.511  10.919  19.154  0.00  0.00    +0.000 A 
ATOM     15  C   UNL     1      -0.491   9.991  18.932  0.00  0.00    +0.000 A 
ATOM     16  C   UNL     1       0.535   9.798  19.858  0.00  0.00    +0.000 A 
ATOM     17  C   UNL     1       0.499  10.550  21.042  0.00  0.00    +0.000 A 
ATOM     18  C   UNL     1      -0.531  11.482  21.271  0.00  0.00    +0.000 A 
ENDBRANCH   8  16
ENDBRANCH   1   9
BRANCH   1  19
ATOM     19  N   UNL     1       3.948   7.302  17.218  0.00  0.00    +0.000 N 
ATOM     20  H   UNL     1       3.347   7.491  16.416  0.00  0.00    +0.000 HD
BRANCH  19  21
ATOM     21  C   UNL     1       4.918   6.340  16.938  0.00  0.00    +0.000 A 
ATOM     22  C   UNL     1       5.645   5.684  17.930  0.00  0.00    +0.000 A 
ATOM     23  C   UNL     1       6.676   4.808  17.605  0.00  0.00    +0.000 A 
ATOM     24  C   UNL     1       6.972   4.534  16.274  0.00  0.00    +0.000 A 
ATOM     25  C   UNL     1       6.211   5.082  15.239  0.00  0.00    +0.000 A 
ATOM     26  C   UNL     1       5.204   6.009  15.591  0.00  0.00    +0.000 A 
BRANCH  25  27
ATOM     27  N   UNL     1       6.414   4.646  13.897  0.00  0.00    +0.000 N 
ATOM     28  C   UNL     1       5.536   3.720  13.225  0.00  0.00    +0.000 C 
ATOM     29  C   UNL     1       6.445   3.012  12.237  0.00  0.00    +0.000 C 
ATOM     30  C   UNL     1       7.453   4.077  11.853  0.00  0.00    +0.000 C 
ATOM     31  C   UNL     1       7.529   4.940  13.091  0.00  0.00    +0.000 C 
ATOM     32  O   UNL     1       8.425   5.752  13.270  0.00  0.00    +0.000 OA
ENDBRANCH  25  27
ENDBRANCH  19  21
ENDBRANCH   1  19
TORSDOF 6
ENDMDL
MODEL 7
REMARK VINA RESULT:      -9.0      0.899      1.453
REMARK  Name = 
REMARK  7 active torsions:
REMARK  status: ('A' for Active; 'I' for Inactive)
REMARK    1  A    between atoms: C_1  and  C_2
REMARK    2  A    between atoms: C_5  and  N_6
REMARK    3  A    between atoms: C_7  and  C_9
REMARK    4  A    between atoms: C_9  and  N_10
REMARK    5  A    between atoms: C_9  and  C_23
REMARK    6  A    between atoms: N_10  and  C_11
REMARK    7  A    between atoms: C_15  and  N_16
REMARK                            x       y       z     vdW  Elec       q    Type
REMARK                         _______ _______ _______ _____ _____    ______ ____
ROOT
ATOM      1  C   UNL     1       3.126   6.316  19.123  0.00  0.00    +0.000 C 
ENDROOT
BRANCH   1   2
ATOM      2  C   UNL     1       2.324   5.015  19.281  0.00  0.00    +0.000 A 
ATOM      3  C   UNL     1       1.887   4.267  18.175  0.00  0.00    +0.000 A 
ATOM      4  C   UNL     1       1.115   3.111  18.336  0.00  0.00    +0.000 A 
ATOM      5  C   UNL     1       0.795   2.659  19.614  0.00  0.00    +0.000 A 
ATOM      6  C   UNL     1       1.241   3.368  20.725  0.00  0.00    +0.000 A 
ATOM      7  C   UNL     1       1.991   4.538  20.564  0.00  0.00    +0.000 A 
ENDBRANCH   1   2
BRANCH   1   9
ATOM      8  N   UNL     1       1.956   7.910  20.658  0.00  0.00    +0.000 N 
ATOM      9  C   UNL     1       2.242   7.598  19.326  0.00  0.00    +0.000 C 
ATOM     10  O   UNL     1       1.863   8.276  18.366  0.00  0.00    +0.000 OA
ATOM     11  H   UNL     1       2.509   7.446  21.369  0.00  0.00    +0.000 HD
BRANCH   8  16
ATOM     12  C   UNL     1      -1.687  12.018  22.384  0.00  0.00    +0.000 C 
ATOM     13  C   UNL     1      -0.731  10.954  21.929  0.00  0.00    +0.000 A 
ATOM     14  C   UNL     1      -0.270  10.000  22.834  0.00  0.00    +0.000 A 
ATOM     15  C   UNL     1       0.616   9.001  22.426  0.00  0.00    +0.000 A 
ATOM     16  C   UNL     1       1.056   8.910  21.105  0.00  0.00    +0.000 A 
ATOM     17  C   UNL     1       0.600   9.874  20.194  0.00  0.00    +0.000 A 
ATOM     18  C   UNL     1      -0.289  10.886  20.604  0.00  0.00    +0.000 A 
ENDBRANCH   8  16
ENDBRANCH   1   9
BRANCH   1  19
ATOM     19  N   UNL     1       3.766   6.386  17.789  0.00  0.00    +0.000 N 
ATOM     20  H   UNL     1       3.089   6.271  17.036  0.00  0.00    +0.000 HD
BRANCH  19  21
ATOM     21  C   UNL     1       4.992   5.787  17.497  0.00  0.00    +0.000 A 
ATOM     22  C   UNL     1       5.883   5.361  18.481  0.00  0.00    +0.000 A 
ATOM     23  C   UNL     1       7.138   4.864  18.147  0.00  0.00    +0.000 A 
ATOM     24  C   UNL     1       7.513   4.739  16.813  0.00  0.00    +0.000 A 
ATOM     25  C   UNL     1       6.624   5.053  15.783  0.00  0.00    +0.000 A 
ATOM     26  C   UNL     1       5.374   5.606  16.145  0.00  0.00    +0.000 A 
BRANCH  25  27
ATOM     27  N   UNL     1       6.961   4.747  14.432  0.00  0.00    +0.000 N 
ATOM     28  C   UNL     1       8.076   5.345  13.740  0.00  0.00    +0.000 C 
ATOM     29  C   UNL     1       7.642   5.343  12.285  0.00  0.00    +0.000 C 
ATOM     30  C   UNL     1       6.794   4.092  12.168  0.00  0.00    +0.000 C 
ATOM     31  C   UNL     1       6.213   3.940  13.555  0.00  0.00    +0.000 C 
ATOM     32  O   UNL     1       5.272   3.198  13.794  0.00  0.00    +0.000 OA
ENDBRANCH  25  27
ENDBRANCH  19  21
ENDBRANCH   1  19
TORSDOF 6
ENDMDL
MODEL 8
REMARK VINA RESULT:      -8.9      0.975      1.446
REMARK  Name = 
REMARK  7 active torsions:
REMARK  status: ('A' for Active; 'I' for Inactive)
REMARK    1  A    between atoms: C_1  and  C_2
REMARK    2  A    between atoms: C_5  and  N_6
REMARK    3  A    between atoms: C_7  and  C_9
REMARK    4  A    between atoms: C_9  and  N_10
REMARK    5  A    between atoms: C_9  and  C_23
REMARK    6  A    between atoms: N_10  and  C_11
REMARK    7  A    between atoms: C_15  and  N_16
REMARK                            x       y       z     vdW  Elec       q    Type
REMARK                         _______ _______ _______ _____ _____    ______ ____
ROOT
ATOM      1  C   UNL     1       3.223   6.169  19.054  0.00  0.00    +0.000 C 
ENDROOT
BRANCH   1   2
ATOM      2  C   UNL     1       2.333   4.937  19.279  0.00  0.00    +0.000 A 
ATOM      3  C   UNL     1       2.092   4.412  20.560  0.00  0.00    +0.000 A 
ATOM      4  C   UNL     1       1.320   3.260  20.741  0.00  0.00    +0.000 A 
ATOM      5  C   UNL     1       0.741   2.628  19.644  0.00  0.00    +0.000 A 
ATOM      6  C   UNL     1       0.942   3.145  18.368  0.00  0.00    +0.000 A 
ATOM      7  C   UNL     1       1.736   4.283  18.183  0.00  0.00    +0.000 A 
ENDBRANCH   1   2
BRANCH   1   9
ATOM      8  N   UNL     1       1.916   7.671  20.570  0.00  0.00    +0.000 N 
ATOM      9  C   UNL     1       2.458   7.519  19.291  0.00  0.00    +0.000 C 
ATOM     10  O   UNL     1       2.377   8.376  18.405  0.00  0.00    +0.000 OA
ATOM     11  H   UNL     1       2.243   7.035  21.288  0.00  0.00    +0.000 HD
BRANCH   8  16
ATOM     12  C   UNL     1      -1.601  11.859  22.365  0.00  0.00    +0.000 C 
ATOM     13  C   UNL     1      -0.689  10.760  21.903  0.00  0.00    +0.000 A 
ATOM     14  C   UNL     1      -0.461  10.571  20.541  0.00  0.00    +0.000 A 
ATOM     15  C   UNL     1       0.389   9.555  20.096  0.00  0.00    +0.000 A 
ATOM     16  C   UNL     1       1.050   8.711  20.989  0.00  0.00    +0.000 A 
ATOM     17  C   UNL     1       0.815   8.894  22.360  0.00  0.00    +0.000 A 
ATOM     18  C   UNL     1      -0.045   9.913  22.812  0.00  0.00    +0.000 A 
ENDBRANCH   8  16
ENDBRANCH   1   9
BRANCH   1  19
ATOM     19  N   UNL     1       3.784   6.173  17.683  0.00  0.00    +0.000 N 
ATOM     20  H   UNL     1       3.073   5.972  16.980  0.00  0.00    +0.000 HD
BRANCH  19  21
ATOM     21  C   UNL     1       5.021   5.615  17.359  0.00  0.00    +0.000 A 
ATOM     22  C   UNL     1       5.938   5.195  18.321  0.00  0.00    +0.000 A 
ATOM     23  C   UNL     1       7.202   4.740  17.959  0.00  0.00    +0.000 A 
ATOM     24  C   UNL     1       7.559   4.652  16.618  0.00  0.00    +0.000 A 
ATOM     25  C   UNL     1       6.646   4.961  15.607  0.00  0.00    +0.000 A 
ATOM     26  C   UNL     1       5.387   5.471  15.999  0.00  0.00    +0.000 A 
BRANCH  25  27
ATOM     27  N   UNL     1       6.970   4.691  14.246  0.00  0.00    +0.000 N 
ATOM     28  C   UNL     1       8.092   5.290  13.566  0.00  0.00    +0.000 C 
ATOM     29  C   UNL     1       7.651   5.341  12.114  0.00  0.00    +0.000 C 
ATOM     30  C   UNL     1       6.779   4.111  11.963  0.00  0.00    +0.000 C 
ATOM     31  C   UNL     1       6.203   3.925  13.348  0.00  0.00    +0.000 C 
ATOM     32  O   UNL     1       5.250   3.193  13.570  0.00  0.00    +0.000 OA
ENDBRANCH  25  27
ENDBRANCH  19  21
ENDBRANCH   1  19
TORSDOF 6
ENDMDL
MODEL 9
REMARK VINA RESULT:      -8.7      1.365      1.984
REMARK  Name = 
REMARK  7 active torsions:
REMARK  status: ('A' for Active; 'I' for Inactive)
REMARK    1  A    between atoms: C_1  and  C_2
REMARK    2  A    between atoms: C_5  and  N_6
REMARK    3  A    between atoms: C_7  and  C_9
REMARK    4  A    between atoms: C_9  and  N_10
REMARK    5  A    between atoms: C_9  and  C_23
REMARK    6  A    between atoms: N_10  and  C_11
REMARK    7  A    between atoms: C_15  and  N_16
REMARK                            x       y       z     vdW  Elec       q    Type
REMARK                         _______ _______ _______ _____ _____    ______ ____
ROOT
ATOM      1  C   UNL     1       3.127   7.076  18.504  0.00  0.00    +0.000 C 
ENDROOT
BRANCH   1   2
ATOM      2  C   UNL     1       2.371   5.796  18.894  0.00  0.00    +0.000 A 
ATOM      3  C   UNL     1       1.928   4.868  17.936  0.00  0.00    +0.000 A 
ATOM      4  C   UNL     1       1.197   3.733  18.306  0.00  0.00    +0.000 A 
ATOM      5  C   UNL     1       0.926   3.485  19.648  0.00  0.00    +0.000 A 
ATOM      6  C   UNL     1       1.380   4.374  20.617  0.00  0.00    +0.000 A 
ATOM      7  C   UNL     1       2.088   5.523  20.247  0.00  0.00    +0.000 A 
ENDBRANCH   1   2
BRANCH   1   9
ATOM      8  N   UNL     1       1.616   8.700  19.663  0.00  0.00    +0.000 N 
ATOM      9  C   UNL     1       2.191   8.335  18.442  0.00  0.00    +0.000 C 
ATOM     10  O   UNL     1       2.014   8.952  17.387  0.00  0.00    +0.000 OA
ATOM     11  H   UNL     1       2.011   8.290  20.500  0.00  0.00    +0.000 HD
BRANCH   8  16
ATOM     12  C   UNL     1      -2.415  12.719  20.519  0.00  0.00    +0.000 C 
ATOM     13  C   UNL     1      -1.366  11.667  20.305  0.00  0.00    +0.000 A 
ATOM     14  C   UNL     1      -1.339  10.942  19.115  0.00  0.00    +0.000 A 
ATOM     15  C   UNL     1      -0.367   9.963  18.899  0.00  0.00    +0.000 A 
ATOM     16  C   UNL     1       0.617   9.688  19.850  0.00  0.00    +0.000 A 
ATOM     17  C   UNL     1       0.587  10.410  21.052  0.00  0.00    +0.000 A 
ATOM     18  C   UNL     1      -0.395  11.394  21.275  0.00  0.00    +0.000 A 
ENDBRANCH   8  16
ENDBRANCH   1   9
BRANCH   1  19
ATOM     19  N   UNL     1       3.798   6.917  17.193  0.00  0.00    +0.000 N 
ATOM     20  H   UNL     1       3.127   6.812  16.433  0.00  0.00    +0.000 HD
BRANCH  19  21
ATOM     21  C   UNL     1       4.937   6.133  17.007  0.00  0.00    +0.000 A 
ATOM     22  C   UNL     1       5.664   5.587  18.063  0.00  0.00    +0.000 A 
ATOM     23  C   UNL     1       6.852   4.900  17.839  0.00  0.00    +0.000 A 
ATOM     24  C   UNL     1       7.316   4.702  16.542  0.00  0.00    +0.000 A 
ATOM     25  C   UNL     1       6.577   5.137  15.439  0.00  0.00    +0.000 A 
ATOM     26  C   UNL     1       5.401   5.879  15.693  0.00  0.00    +0.000 A 
BRANCH  25  27
ATOM     27  N   UNL     1       6.976   4.765  14.123  0.00  0.00    +0.000 N 
ATOM     28  C   UNL     1       8.086   5.375  13.431  0.00  0.00    +0.000 C 
ATOM     29  C   UNL     1       7.705   5.262  11.966  0.00  0.00    +0.000 C 
ATOM     30  C   UNL     1       6.922   3.966  11.900  0.00  0.00    +0.000 C 
ATOM     31  C   UNL     1       6.301   3.869  13.273  0.00  0.00    +0.000 C 
ATOM     32  O   UNL     1       5.388   3.097  13.528  0.00  0.00    +0.000 OA
ENDBRANCH  25  27
ENDBRANCH  19  21
ENDBRANCH   1  19
TORSDOF 6
ENDMDL
