MODEL 1
REMARK VINA RESULT:      -8.3      0.000      0.000
REMARK  Name = 
REMARK  5 active torsions:
REMARK  status: ('A' for Active; 'I' for Inactive)
REMARK    1  A    between atoms: C_1  and  N_2
REMARK    2  A    between atoms: C_6  and  C_7
REMARK    3  A    between atoms: C_11  and  N_12
REMARK    4  A    between atoms: C_19  and  C_20
REMARK    5  A    between atoms: C_26  and  C_27
REMARK                            x       y       z     vdW  Elec       q    Type
REMARK                         _______ _______ _______ _____ _____    ______ ____
ROOT
ATOM      1  C   UNL     1       2.011   7.759  19.682  0.00  0.00    +0.000 A 
ATOM      2  C   UNL     1       2.612   8.377  18.574  0.00  0.00    +0.000 A 
ATOM      3  C   UNL     1       3.006   7.641  17.467  0.00  0.00    +0.000 A 
ATOM      4  C   UNL     1       3.037   6.265  17.549  0.00  0.00    +0.000 A 
ATOM      5  C   UNL     1       2.854   5.666  18.809  0.00  0.00    +0.000 A 
ATOM      6  C   UNL     1       2.084   6.350  19.772  0.00  0.00    +0.000 A 
ENDROOT
BRANCH   5   7
ATOM      7  N   UNL     1       3.931   4.776  19.264  0.00  0.00    +0.000 N 
ATOM      8  C   UNL     1       5.242   5.469  19.334  0.00  0.00    +0.000 C 
ATOM      9  C   UNL     1       5.853   5.156  18.000  0.00  0.00    +0.000 A 
ATOM     10  C   UNL     1       5.269   3.977  17.534  0.00  0.00    +0.000 A 
ATOM     11  C   UNL     1       5.477   3.483  16.260  0.00  0.00    +0.000 A 
ATOM     12  C   UNL     1       6.318   4.213  15.419  0.00  0.00    +0.000 A 
ATOM     13  C   UNL     1       6.928   5.397  15.876  0.00  0.00    +0.000 A 
ATOM     14  C   UNL     1       6.711   5.889  17.181  0.00  0.00    +0.000 A 
ATOM     15  C   UNL     1       4.154   3.631  18.446  0.00  0.00    +0.000 C 
ATOM     16  O   UNL     1       3.456   2.646  18.314  0.00  0.00    +0.000 OA
BRANCH  14  17
ATOM     17  C   UNL     1       7.335   7.200  17.583  0.00  0.00    +0.000 C 
ATOM     18  F   UNL     1       8.198   7.710  16.665  0.00  0.00    +0.000 F 
ATOM     19  F   UNL     1       6.404   8.170  17.795  0.00  0.00    +0.000 F 
ATOM     20  F   UNL     1       8.040   7.099  18.745  0.00  0.00    +0.000 F 
ENDBRANCH  14  17
ENDBRANCH   5   7
BRANCH   1  26
ATOM     21  C   UNL     1      -0.318   9.903  19.426  0.00  0.00    +0.000 C 
ATOM     22  N   UNL     1       0.420   9.533  20.607  0.00  0.00    +0.000 N 
ATOM     23  C   UNL     1       0.203  10.056  21.844  0.00  0.00    +0.000 A 
ATOM     24  N   UNL     1       0.995   9.470  22.711  0.00  0.00    +0.000 NA
ATOM     25  N   UNL     1       1.748   8.547  22.023  0.00  0.00    +0.000 NA
ATOM     26  C   UNL     1       1.414   8.585  20.745  0.00  0.00    +0.000 A 
ENDBRANCH   1  26
BRANCH   6  27
ATOM     27  C   UNL     1       1.383   5.571  20.857  0.00  0.00    +0.000 C 
ATOM     28  F   UNL     1       0.687   4.490  20.389  0.00  0.00    +0.000 F 
ENDBRANCH   6  27
TORSDOF 4
ENDMDL
MODEL 2
REMARK VINA RESULT:      -7.9      3.041      4.918
REMARK  Name = 
REMARK  5 active torsions:
REMARK  status: ('A' for Active; 'I' for Inactive)
REMARK    1  A    between atoms: C_1  and  N_2
REMARK    2  A    between atoms: C_6  and  C_7
REMARK    3  A    between atoms: C_11  and  N_12
REMARK    4  A    between atoms: C_19  and  C_20
REMARK    5  A    between atoms: C_26  and  C_27
REMARK                            x       y       z     vdW  Elec       q    Type
REMARK                         _______ _______ _______ _____ _____    ______ ____
ROOT
ATOM      1  C   UNL     1       0.600   9.454  19.708  0.00  0.00    +0.000 A 
ATOM      2  C   UNL     1       0.284   8.561  20.745  0.00  0.00    +0.000 A 
ATOM      3  C   UNL     1       1.147   7.534  21.095  0.00  0.00    +0.000 A 
ATOM      4  C   UNL     1       2.206   7.231  20.265  0.00  0.00    +0.000 A 
ATOM      5  C   UNL     1       2.260   7.845  19.000  0.00  0.00    +0.000 A 
ATOM      6  C   UNL     1       1.663   9.112  18.842  0.00  0.00    +0.000 A 
ENDROOT
BRANCH   5   7
ATOM      7  N   UNL     1       2.319   6.938  17.845  0.00  0.00    +0.000 N 
ATOM      8  C   UNL     1       1.512   5.709  18.052  0.00  0.00    +0.000 C 
ATOM      9  C   UNL     1       2.525   4.735  18.581  0.00  0.00    +0.000 A 
ATOM     10  C   UNL     1       3.782   5.151  18.138  0.00  0.00    +0.000 A 
ATOM     11  C   UNL     1       4.962   4.579  18.572  0.00  0.00    +0.000 A 
ATOM     12  C   UNL     1       4.868   3.536  19.495  0.00  0.00    +0.000 A 
ATOM     13  C   UNL     1       3.609   3.094  19.942  0.00  0.00    +0.000 A 
ATOM     14  C   UNL     1       2.409   3.683  19.488  0.00  0.00    +0.000 A 
ATOM     15  C   UNL     1       3.623   6.479  17.501  0.00  0.00    +0.000 C 
ATOM     16  O   UNL     1       4.539   7.101  17.003  0.00  0.00    +0.000 OA
BRANCH  14  17
ATOM     17  C   UNL     1       1.098   3.212  20.062  0.00  0.00    +0.000 C 
ATOM     18  F   UNL     1       1.225   2.355  21.109  0.00  0.00    +0.000 F 
ATOM     19  F   UNL     1       0.335   4.243  20.517  0.00  0.00    +0.000 F 
ATOM     20  F   UNL     1       0.336   2.563  19.137  0.00  0.00    +0.000 F 
ENDBRANCH  14  17
ENDBRANCH   5   7
BRANCH   1  26
ATOM     21  C   UNL     1      -1.639   9.935  17.508  0.00  0.00    +0.000 C 
ATOM     22  N   UNL     1      -1.178  10.854  18.518  0.00  0.00    +0.000 N 
ATOM     23  C   UNL     1      -1.669  12.109  18.698  0.00  0.00    +0.000 A 
ATOM     24  N   UNL     1      -1.083  12.665  19.731  0.00  0.00    +0.000 NA
ATOM     25  N   UNL     1      -0.185  11.752  20.235  0.00  0.00    +0.000 NA
ATOM     26  C   UNL     1      -0.228  10.654  19.500  0.00  0.00    +0.000 A 
ENDBRANCH   1  26
BRANCH   6  27
ATOM     27  C   UNL     1       2.161  10.042  17.763  0.00  0.00    +0.000 C 
ATOM     28  F   UNL     1       2.527  11.273  18.233  0.00  0.00    +0.000 F 
ENDBRANCH   6  27
TORSDOF 4
ENDMDL
MODEL 3
REMARK VINA RESULT:      -7.9      3.027      4.941
REMARK  Name = 
REMARK  5 active torsions:
REMARK  status: ('A' for Active; 'I' for Inactive)
REMARK    1  A    between atoms: C_1  and  N_2
REMARK    2  A    between atoms: C_6  and  C_7
REMARK    3  A    between atoms: C_11  and  N_12
REMARK    4  A    between atoms: C_19  and  C_20
REMARK    5  A    between atoms: C_26  and  C_27
REMARK                            x       y       z     vdW  Elec       q    Type
REMARK                         _______ _______ _______ _____ _____    ______ ____
ROOT
ATOM      1  C   UNL     1       0.579   9.352  19.735  0.00  0.00    +0.000 A 
ATOM      2  C   UNL     1       0.351   8.458  20.793  0.00  0.00    +0.000 A 
ATOM      3  C   UNL     1       1.276   7.477  21.116  0.00  0.00    +0.000 A 
ATOM      4  C   UNL     1       2.311   7.214  20.245  0.00  0.00    +0.000 A 
ATOM      5  C   UNL     1       2.284   7.815  18.973  0.00  0.00    +0.000 A 
ATOM      6  C   UNL     1       1.620   9.050  18.828  0.00  0.00    +0.000 A 
ENDROOT
BRANCH   5   7
ATOM      7  N   UNL     1       2.337   6.898  17.825  0.00  0.00    +0.000 N 
ATOM      8  C   UNL     1       1.519   5.678  18.041  0.00  0.00    +0.000 C 
ATOM      9  C   UNL     1       2.522   4.700  18.580  0.00  0.00    +0.000 A 
ATOM     10  C   UNL     1       3.783   5.101  18.137  0.00  0.00    +0.000 A 
ATOM     11  C   UNL     1       4.957   4.522  18.579  0.00  0.00    +0.000 A 
ATOM     12  C   UNL     1       4.852   3.487  19.511  0.00  0.00    +0.000 A 
ATOM     13  C   UNL     1       3.588   3.060  19.958  0.00  0.00    +0.000 A 
ATOM     14  C   UNL     1       2.394   3.656  19.496  0.00  0.00    +0.000 A 
ATOM     15  C   UNL     1       3.638   6.425  17.489  0.00  0.00    +0.000 C 
ATOM     16  O   UNL     1       4.561   7.035  16.988  0.00  0.00    +0.000 OA
BRANCH  14  17
ATOM     17  C   UNL     1       1.078   3.201  20.070  0.00  0.00    +0.000 C 
ATOM     18  F   UNL     1       0.281   2.547  19.186  0.00  0.00    +0.000 F 
ATOM     19  F   UNL     1       1.241   2.353  21.122  0.00  0.00    +0.000 F 
ATOM     20  F   UNL     1       0.337   4.243  20.543  0.00  0.00    +0.000 F 
ENDBRANCH  14  17
ENDBRANCH   5   7
BRANCH   1  26
ATOM     21  C   UNL     1       0.935  12.303  20.856  0.00  0.00    +0.000 C 
ATOM     22  N   UNL     1      -0.154  11.778  20.070  0.00  0.00    +0.000 N 
ATOM     23  C   UNL     1      -1.225  12.507  19.658  0.00  0.00    +0.000 A 
ATOM     24  N   UNL     1      -2.005  11.758  18.915  0.00  0.00    +0.000 NA
ATOM     25  N   UNL     1      -1.430  10.510  18.844  0.00  0.00    +0.000 NA
ATOM     26  C   UNL     1      -0.313  10.509  19.550  0.00  0.00    +0.000 A 
ENDBRANCH   1  26
BRANCH   6  27
ATOM     27  C   UNL     1       2.028   9.990  17.720  0.00  0.00    +0.000 C 
ATOM     28  F   UNL     1       2.581  11.156  18.171  0.00  0.00    +0.000 F 
ENDBRANCH   6  27
TORSDOF 4
ENDMDL
MODEL 4
REMARK VINA RESULT:      -7.7      2.165      2.810
REMARK  Name = 
REMARK  5 active torsions:
REMARK  status: ('A' for Active; 'I' for Inactive)
REMARK    1  A    between atoms: C_1  and  N_2
REMARK    2  A    between atoms: C_6  and  C_7
REMARK    3  A    between atoms: C_11  and  N_12
REMARK    4  A    between atoms: C_19  and  C_20
REMARK    5  A    between atoms: C_26  and  C_27
REMARK                            x       y       z     vdW  Elec       q    Type
REMARK                         _______ _______ _______ _____ _____    ______ ____
ROOT
ATOM      1  C   UNL     1       1.285   9.368  19.582  0.00  0.00    +0.000 A 
ATOM      2  C   UNL     1       1.839   9.561  18.307  0.00  0.00    +0.000 A 
ATOM      3  C   UNL     1       2.132   8.486  17.481  0.00  0.00    +0.000 A 
ATOM      4  C   UNL     1       2.113   7.210  18.004  0.00  0.00    +0.000 A 
ATOM      5  C   UNL     1       1.986   7.060  19.397  0.00  0.00    +0.000 A 
ATOM      6  C   UNL     1       1.306   8.061  20.121  0.00  0.00    +0.000 A 
ENDROOT
BRANCH   5   7
ATOM      7  N   UNL     1       3.053   6.302  20.064  0.00  0.00    +0.000 N 
ATOM      8  C   UNL     1       4.249   6.134  19.201  0.00  0.00    +0.000 C 
ATOM      9  C   UNL     1       4.010   4.798  18.561  0.00  0.00    +0.000 A 
ATOM     10  C   UNL     1       3.164   4.073  19.403  0.00  0.00    +0.000 A 
ATOM     11  C   UNL     1       2.605   2.861  19.048  0.00  0.00    +0.000 A 
ATOM     12  C   UNL     1       2.917   2.355  17.784  0.00  0.00    +0.000 A 
ATOM     13  C   UNL     1       3.780   3.065  16.928  0.00  0.00    +0.000 A 
ATOM     14  C   UNL     1       4.349   4.301  17.304  0.00  0.00    +0.000 A 
ATOM     15  C   UNL     1       2.695   4.985  20.472  0.00  0.00    +0.000 C 
ATOM     16  O   UNL     1       1.952   4.645  21.370  0.00  0.00    +0.000 OA
BRANCH  14  17
ATOM     17  C   UNL     1       5.205   5.045  16.312  0.00  0.00    +0.000 C 
ATOM     18  F   UNL     1       5.363   4.406  15.123  0.00  0.00    +0.000 F 
ATOM     19  F   UNL     1       4.695   6.270  16.010  0.00  0.00    +0.000 F 
ATOM     20  F   UNL     1       6.463   5.270  16.786  0.00  0.00    +0.000 F 
ENDBRANCH  14  17
ENDBRANCH   5   7
BRANCH   1  26
ATOM     21  C   UNL     1      -1.425  10.973  19.175  0.00  0.00    +0.000 C 
ATOM     22  N   UNL     1      -0.381  11.227  20.135  0.00  0.00    +0.000 N 
ATOM     23  C   UNL     1      -0.413  12.222  21.062  0.00  0.00    +0.000 A 
ATOM     24  N   UNL     1       0.655  12.149  21.820  0.00  0.00    +0.000 NA
ATOM     25  N   UNL     1       1.403  11.084  21.374  0.00  0.00    +0.000 NA
ATOM     26  C   UNL     1       0.789  10.524  20.347  0.00  0.00    +0.000 A 
ENDBRANCH   1  26
BRANCH   6  27
ATOM     27  C   UNL     1       0.644   7.714  21.431  0.00  0.00    +0.000 C 
ATOM     28  F   UNL     1      -0.694   7.994  21.456  0.00  0.00    +0.000 F 
ENDBRANCH   6  27
TORSDOF 4
ENDMDL
MODEL 5
REMARK VINA RESULT:      -7.4      3.370      7.478
REMARK  Name = 
REMARK  5 active torsions:
REMARK  status: ('A' for Active; 'I' for Inactive)
REMARK    1  A    between atoms: C_1  and  N_2
REMARK    2  A    between atoms: C_6  and  C_7
REMARK    3  A    between atoms: C_11  and  N_12
REMARK    4  A    between atoms: C_19  and  C_20
REMARK    5  A    between atoms: C_26  and  C_27
REMARK                            x       y       z     vdW  Elec       q    Type
REMARK                         _______ _______ _______ _____ _____    ______ ____
ROOT
ATOM      1  C   UNL     1       2.270   6.476  18.433  0.00  0.00    +0.000 A 
ATOM      2  C   UNL     1       2.169   7.520  17.499  0.00  0.00    +0.000 A 
ATOM      3  C   UNL     1       2.246   8.847  17.894  0.00  0.00    +0.000 A 
ATOM      4  C   UNL     1       2.172   9.155  19.236  0.00  0.00    +0.000 A 
ATOM      5  C   UNL     1       1.830   8.132  20.140  0.00  0.00    +0.000 A 
ATOM      6  C   UNL     1       2.156   6.803  19.803  0.00  0.00    +0.000 A 
ENDROOT
BRANCH   5   7
ATOM      7  N   UNL     1       0.653   8.384  20.983  0.00  0.00    +0.000 N 
ATOM      8  C   UNL     1      -0.577   8.602  20.183  0.00  0.00    +0.000 C 
ATOM      9  C   UNL     1      -0.629  10.097  20.057  0.00  0.00    +0.000 A 
ATOM     10  C   UNL     1       0.080  10.635  21.132  0.00  0.00    +0.000 A 
ATOM     11  C   UNL     1       0.374  11.980  21.243  0.00  0.00    +0.000 A 
ATOM     12  C   UNL     1      -0.071  12.822  20.222  0.00  0.00    +0.000 A 
ATOM     13  C   UNL     1      -0.799  12.299  19.138  0.00  0.00    +0.000 A 
ATOM     14  C   UNL     1      -1.099  10.922  19.037  0.00  0.00    +0.000 A 
ATOM     15  C   UNL     1       0.753   9.520  21.837  0.00  0.00    +0.000 C 
ATOM     16  O   UNL     1       1.440   9.666  22.828  0.00  0.00    +0.000 OA
BRANCH  14  17
ATOM     17  C   UNL     1      -1.819  10.417  17.813  0.00  0.00    +0.000 C 
ATOM     18  F   UNL     1      -2.963   9.736  18.083  0.00  0.00    +0.000 F 
ATOM     19  F   UNL     1      -2.175  11.426  16.973  0.00  0.00    +0.000 F 
ATOM     20  F   UNL     1      -1.045   9.572  17.076  0.00  0.00    +0.000 F 
ENDBRANCH  14  17
ENDBRANCH   5   7
BRANCH   1  26
ATOM     21  C   UNL     1       4.911   4.732  18.162  0.00  0.00    +0.000 C 
ATOM     22  N   UNL     1       3.562   4.354  17.827  0.00  0.00    +0.000 N 
ATOM     23  C   UNL     1       3.202   3.135  17.345  0.00  0.00    +0.000 A 
ATOM     24  N   UNL     1       1.899   3.088  17.198  0.00  0.00    +0.000 NA
ATOM     25  N   UNL     1       1.398   4.308  17.591  0.00  0.00    +0.000 NA
ATOM     26  C   UNL     1       2.398   5.086  17.964  0.00  0.00    +0.000 A 
ENDBRANCH   1  26
BRANCH   6  27
ATOM     27  C   UNL     1       2.356   5.784  20.898  0.00  0.00    +0.000 C 
ATOM     28  F   UNL     1       1.317   4.903  21.019  0.00  0.00    +0.000 F 
ENDBRANCH   6  27
TORSDOF 4
ENDMDL
MODEL 6
REMARK VINA RESULT:      -7.0      8.706     10.476
REMARK  Name = 
REMARK  5 active torsions:
REMARK  status: ('A' for Active; 'I' for Inactive)
REMARK    1  A    between atoms: C_1  and  N_2
REMARK    2  A    between atoms: C_6  and  C_7
REMARK    3  A    between atoms: C_11  and  N_12
REMARK    4  A    between atoms: C_19  and  C_20
REMARK    5  A    between atoms: C_26  and  C_27
REMARK                            x       y       z     vdW  Elec       q    Type
REMARK                         _______ _______ _______ _____ _____    ______ ____
ROOT
ATOM      1  C   UNL     1       8.732  14.387  22.269  0.00  0.00    +0.000 A 
ATOM      2  C   UNL     1      10.078  14.677  21.993  0.00  0.00    +0.000 A 
ATOM      3  C   UNL     1      10.444  15.861  21.370  0.00  0.00    +0.000 A 
ATOM      4  C   UNL     1       9.469  16.648  20.793  0.00  0.00    +0.000 A 
ATOM      5  C   UNL     1       8.165  16.129  20.690  0.00  0.00    +0.000 A 
ATOM      6  C   UNL     1       7.743  15.178  21.641  0.00  0.00    +0.000 A 
ENDROOT
BRANCH   5   7
ATOM      7  N   UNL     1       7.596  16.079  19.336  0.00  0.00    +0.000 N 
ATOM      8  C   UNL     1       7.637  14.713  18.758  0.00  0.00    +0.000 C 
ATOM      9  C   UNL     1       8.917  14.723  17.975  0.00  0.00    +0.000 A 
ATOM     10  C   UNL     1       9.204  16.051  17.652  0.00  0.00    +0.000 A 
ATOM     11  C   UNL     1      10.394  16.447  17.074  0.00  0.00    +0.000 A 
ATOM     12  C   UNL     1      11.339  15.455  16.807  0.00  0.00    +0.000 A 
ATOM     13  C   UNL     1      11.063  14.109  17.112  0.00  0.00    +0.000 A 
ATOM     14  C   UNL     1       9.840  13.715  17.698  0.00  0.00    +0.000 A 
ATOM     15  C   UNL     1       8.242  16.913  18.378  0.00  0.00    +0.000 C 
ATOM     16  O   UNL     1       8.225  18.124  18.293  0.00  0.00    +0.000 OA
BRANCH  14  17
ATOM     17  C   UNL     1       9.637  12.269  18.068  0.00  0.00    +0.000 C 
ATOM     18  F   UNL     1      10.603  11.434  17.601  0.00  0.00    +0.000 F 
ATOM     19  F   UNL     1       9.604  12.082  19.415  0.00  0.00    +0.000 F 
ATOM     20  F   UNL     1       8.457  11.779  17.594  0.00  0.00    +0.000 F 
ENDBRANCH  14  17
ENDBRANCH   5   7
BRANCH   1  26
ATOM     21  C   UNL     1       8.281  14.322  25.413  0.00  0.00    +0.000 C 
ATOM     22  N   UNL     1       8.228  13.219  24.487  0.00  0.00    +0.000 N 
ATOM     23  C   UNL     1       7.945  11.935  24.836  0.00  0.00    +0.000 A 
ATOM     24  N   UNL     1       7.917  11.185  23.760  0.00  0.00    +0.000 NA
ATOM     25  N   UNL     1       8.192  11.998  22.685  0.00  0.00    +0.000 NA
ATOM     26  C   UNL     1       8.393  13.231  23.116  0.00  0.00    +0.000 A 
ENDBRANCH   1  26
BRANCH   6  27
ATOM     27  C   UNL     1       6.273  15.030  21.946  0.00  0.00    +0.000 C 
ATOM     28  F   UNL     1       5.588  16.213  21.915  0.00  0.00    +0.000 F 
ENDBRANCH   6  27
TORSDOF 4
ENDMDL
MODEL 7
REMARK VINA RESULT:      -6.9      8.113      9.913
REMARK  Name = 
REMARK  5 active torsions:
REMARK  status: ('A' for Active; 'I' for Inactive)
REMARK    1  A    between atoms: C_1  and  N_2
REMARK    2  A    between atoms: C_6  and  C_7
REMARK    3  A    between atoms: C_11  and  N_12
REMARK    4  A    between atoms: C_19  and  C_20
REMARK    5  A    between atoms: C_26  and  C_27
REMARK                            x       y       z     vdW  Elec       q    Type
REMARK                         _______ _______ _______ _____ _____    ______ ____
ROOT
ATOM      1  C   UNL     1       8.112  14.669  21.939  0.00  0.00    +0.000 A 
ATOM      2  C   UNL     1       9.447  14.260  22.089  0.00  0.00    +0.000 A 
ATOM      3  C   UNL     1      10.469  14.870  21.379  0.00  0.00    +0.000 A 
ATOM      4  C   UNL     1      10.154  15.714  20.335  0.00  0.00    +0.000 A 
ATOM      5  C   UNL     1       8.815  15.776  19.907  0.00  0.00    +0.000 A 
ATOM      6  C   UNL     1       7.797  15.504  20.843  0.00  0.00    +0.000 A 
ENDROOT
BRANCH   5   7
ATOM      7  N   UNL     1       8.577  15.470  18.489  0.00  0.00    +0.000 N 
ATOM      8  C   UNL     1       8.239  14.041  18.270  0.00  0.00    +0.000 C 
ATOM      9  C   UNL     1       9.572  13.433  17.944  0.00  0.00    +0.000 A 
ATOM     10  C   UNL     1      10.387  14.449  17.441  0.00  0.00    +0.000 A 
ATOM     11  C   UNL     1      11.735  14.280  17.190  0.00  0.00    +0.000 A 
ATOM     12  C   UNL     1      12.286  13.025  17.457  0.00  0.00    +0.000 A 
ATOM     13  C   UNL     1      11.477  11.985  17.952  0.00  0.00    +0.000 A 
ATOM     14  C   UNL     1      10.098  12.168  18.199  0.00  0.00    +0.000 A 
ATOM     15  C   UNL     1       9.674  15.735  17.620  0.00  0.00    +0.000 C 
ATOM     16  O   UNL     1      10.121  16.808  17.268  0.00  0.00    +0.000 OA
BRANCH  14  17
ATOM     17  C   UNL     1       9.305  11.036  18.798  0.00  0.00    +0.000 C 
ATOM     18  F   UNL     1       8.715  11.336  19.984  0.00  0.00    +0.000 F 
ATOM     19  F   UNL     1       8.301  10.622  17.978  0.00  0.00    +0.000 F 
ATOM     20  F   UNL     1      10.075   9.936  19.030  0.00  0.00    +0.000 F 
ENDBRANCH  14  17
ENDBRANCH   5   7
BRANCH   1  26
ATOM     21  C   UNL     1       6.969  16.029  24.572  0.00  0.00    +0.000 C 
ATOM     22  N   UNL     1       6.618  14.748  24.012  0.00  0.00    +0.000 N 
ATOM     23  C   UNL     1       5.690  13.906  24.541  0.00  0.00    +0.000 A 
ATOM     24  N   UNL     1       5.562  12.855  23.767  0.00  0.00    +0.000 NA
ATOM     25  N   UNL     1       6.428  13.013  22.711  0.00  0.00    +0.000 NA
ATOM     26  C   UNL     1       7.081  14.153  22.855  0.00  0.00    +0.000 A 
ENDBRANCH   1  26
BRANCH   6  27
ATOM     27  C   UNL     1       6.422  16.093  20.642  0.00  0.00    +0.000 C 
ATOM     28  F   UNL     1       6.160  17.155  21.464  0.00  0.00    +0.000 F 
ENDBRANCH   6  27
TORSDOF 4
ENDMDL
MODEL 8
REMARK VINA RESULT:      -6.8      1.395      1.777
REMARK  Name = 
REMARK  5 active torsions:
REMARK  status: ('A' for Active; 'I' for Inactive)
REMARK    1  A    between atoms: C_1  and  N_2
REMARK    2  A    between atoms: C_6  and  C_7
REMARK    3  A    between atoms: C_11  and  N_12
REMARK    4  A    between atoms: C_19  and  C_20
REMARK    5  A    between atoms: C_26  and  C_27
REMARK                            x       y       z     vdW  Elec       q    Type
REMARK                         _______ _______ _______ _____ _____    ______ ____
ROOT
ATOM      1  C   UNL     1       1.567   8.613  19.839  0.00  0.00    +0.000 A 
ATOM      2  C   UNL     1       2.113   9.208  18.690  0.00  0.00    +0.000 A 
ATOM      3  C   UNL     1       2.599   8.438  17.644  0.00  0.00    +0.000 A 
ATOM      4  C   UNL     1       2.775   7.083  17.831  0.00  0.00    +0.000 A 
ATOM      5  C   UNL     1       2.640   6.564  19.132  0.00  0.00    +0.000 A 
ATOM      6  C   UNL     1       1.788   7.231  20.036  0.00  0.00    +0.000 A 
ENDROOT
BRANCH   5   7
ATOM      7  N   UNL     1       3.800   5.831  19.658  0.00  0.00    +0.000 N 
ATOM      8  C   UNL     1       5.011   6.017  18.820  0.00  0.00    +0.000 C 
ATOM      9  C   UNL     1       4.963   4.830  17.903  0.00  0.00    +0.000 A 
ATOM     10  C   UNL     1       4.223   3.833  18.542  0.00  0.00    +0.000 A 
ATOM     11  C   UNL     1       3.839   2.662  17.918  0.00  0.00    +0.000 A 
ATOM     12  C   UNL     1       4.224   2.487  16.587  0.00  0.00    +0.000 A 
ATOM     13  C   UNL     1       4.982   3.474  15.931  0.00  0.00    +0.000 A 
ATOM     14  C   UNL     1       5.373   4.666  16.580  0.00  0.00    +0.000 A 
ATOM     15  C   UNL     1       3.627   4.421  19.764  0.00  0.00    +0.000 C 
ATOM     16  O   UNL     1       2.936   3.798  20.544  0.00  0.00    +0.000 OA
BRANCH  14  17
ATOM     17  C   UNL     1       6.120   5.715  15.799  0.00  0.00    +0.000 C 
ATOM     18  F   UNL     1       6.515   5.312  14.563  0.00  0.00    +0.000 F 
ATOM     19  F   UNL     1       5.376   6.838  15.603  0.00  0.00    +0.000 F 
ATOM     20  F   UNL     1       7.251   6.124  16.440  0.00  0.00    +0.000 F 
ENDBRANCH  14  17
ENDBRANCH   5   7
BRANCH   1  26
ATOM     21  C   UNL     1      -1.082  10.324  19.455  0.00  0.00    +0.000 C 
ATOM     22  N   UNL     1      -0.266  10.207  20.637  0.00  0.00    +0.000 N 
ATOM     23  C   UNL     1      -0.534  10.822  21.820  0.00  0.00    +0.000 A 
ATOM     24  N   UNL     1       0.362  10.468  22.711  0.00  0.00    +0.000 NA
ATOM     25  N   UNL     1       1.237   9.604  22.093  0.00  0.00    +0.000 NA
ATOM     26  C   UNL     1       0.871   9.447  20.833  0.00  0.00    +0.000 A 
ENDBRANCH   1  26
BRANCH   6  27
ATOM     27  C   UNL     1       1.160   6.465  21.173  0.00  0.00    +0.000 C 
ATOM     28  F   UNL     1       0.556   5.302  20.779  0.00  0.00    +0.000 F 
ENDBRANCH   6  27
TORSDOF 4
ENDMDL
MODEL 9
REMARK VINA RESULT:      -6.8      2.292      3.008
REMARK  Name = 
REMARK  5 active torsions:
REMARK  status: ('A' for Active; 'I' for Inactive)
REMARK    1  A    between atoms: C_1  and  N_2
REMARK    2  A    between atoms: C_6  and  C_7
REMARK    3  A    between atoms: C_11  and  N_12
REMARK    4  A    between atoms: C_19  and  C_20
REMARK    5  A    between atoms: C_26  and  C_27
REMARK                            x       y       z     vdW  Elec       q    Type
REMARK                         _______ _______ _______ _____ _____    ______ ____
ROOT
ATOM      1  C   UNL     1       1.529   9.326  19.533  0.00  0.00    +0.000 A 
ATOM      2  C   UNL     1       2.030   9.419  18.225  0.00  0.00    +0.000 A 
ATOM      3  C   UNL     1       2.202   8.289  17.440  0.00  0.00    +0.000 A 
ATOM      4  C   UNL     1       2.117   7.043  18.025  0.00  0.00    +0.000 A 
ATOM      5  C   UNL     1       2.049   6.966  19.428  0.00  0.00    +0.000 A 
ATOM      6  C   UNL     1       1.482   8.047  20.134  0.00  0.00    +0.000 A 
ENDROOT
BRANCH   5   7
ATOM      7  N   UNL     1       3.091   6.161  20.081  0.00  0.00    +0.000 N 
ATOM      8  C   UNL     1       4.260   5.928  19.196  0.00  0.00    +0.000 C 
ATOM      9  C   UNL     1       3.942   4.600  18.572  0.00  0.00    +0.000 A 
ATOM     10  C   UNL     1       3.078   3.924  19.436  0.00  0.00    +0.000 A 
ATOM     11  C   UNL     1       2.452   2.739  19.101  0.00  0.00    +0.000 A 
ATOM     12  C   UNL     1       2.714   2.209  17.836  0.00  0.00    +0.000 A 
ATOM     13  C   UNL     1       3.593   2.869  16.958  0.00  0.00    +0.000 A 
ATOM     14  C   UNL     1       4.231   4.078  17.312  0.00  0.00    +0.000 A 
ATOM     15  C   UNL     1       2.676   4.866  20.506  0.00  0.00    +0.000 C 
ATOM     16  O   UNL     1       1.935   4.569  21.422  0.00  0.00    +0.000 OA
BRANCH  14  17
ATOM     17  C   UNL     1       5.103   4.771  16.298  0.00  0.00    +0.000 C 
ATOM     18  F   UNL     1       6.406   4.879  16.666  0.00  0.00    +0.000 F 
ATOM     19  F   UNL     1       5.108   4.128  15.098  0.00  0.00    +0.000 F 
ATOM     20  F   UNL     1       4.680   6.041  16.040  0.00  0.00    +0.000 F 
ENDBRANCH  14  17
ENDBRANCH   5   7
BRANCH   1  26
ATOM     21  C   UNL     1       1.778  12.340  18.562  0.00  0.00    +0.000 C 
ATOM     22  N   UNL     1       1.302  11.855  19.833  0.00  0.00    +0.000 N 
ATOM     23  C   UNL     1       0.850  12.650  20.839  0.00  0.00    +0.000 A 
ATOM     24  N   UNL     1       0.435  11.904  21.835  0.00  0.00    +0.000 NA
ATOM     25  N   UNL     1       0.624  10.591  21.471  0.00  0.00    +0.000 NA
ATOM     26  C   UNL     1       1.159  10.550  20.263  0.00  0.00    +0.000 A 
ENDBRANCH   1  26
BRANCH   6  27
ATOM     27  C   UNL     1       0.864   7.811  21.490  0.00  0.00    +0.000 C 
ATOM     28  F   UNL     1      -0.503   7.772  21.466  0.00  0.00    +0.000 F 
ENDBRANCH   6  27
TORSDOF 4
ENDMDL
