MODEL 1
REMARK VINA RESULT:      -9.6      0.000      0.000
REMARK  Name = 
REMARK  6 active torsions:
REMARK  status: ('A' for Active; 'I' for Inactive)
REMARK    1  A    between atoms: C_1  and  C_2
REMARK    2  A    between atoms: C_6  and  N_7
REMARK    3  A    between atoms: C_11  and  S_12
REMARK    4  A    between atoms: S_12  and  C_13
REMARK    5  A    between atoms: C_13  and  C_14
REMARK    6  A    between atoms: C_21  and  C_22
REMARK                            x       y       z     vdW  Elec       q    Type
REMARK                         _______ _______ _______ _____ _____    ______ ____
ROOT
ATOM      1  S   UNL     1       3.996   4.031  16.651  0.00  0.00    +0.000 S 
ENDROOT
BRANCH   1   6
ATOM      2  N   UNL     1       6.728   4.409  16.026  0.00  0.00    +0.000 N 
ATOM      3  N   UNL     1       7.879   4.516  16.754  0.00  0.00    +0.000 NA
ATOM      4  N   UNL     1       7.536   4.486  18.029  0.00  0.00    +0.000 NA
ATOM      5  N   UNL     1       6.190   4.366  18.166  0.00  0.00    +0.000 NA
ATOM      6  C   UNL     1       5.688   4.300  16.951  0.00  0.00    +0.000 A 
BRANCH   2  12
ATOM      7  C   UNL     1       5.542   2.479  11.575  0.00  0.00    +0.000 C 
ATOM      8  C   UNL     1       6.280   3.489  12.403  0.00  0.00    +0.000 A 
ATOM      9  C   UNL     1       7.178   4.385  11.807  0.00  0.00    +0.000 A 
ATOM     10  C   UNL     1       7.868   5.299  12.591  0.00  0.00    +0.000 A 
ATOM     11  C   UNL     1       7.693   5.307  13.975  0.00  0.00    +0.000 A 
ATOM     12  C   UNL     1       6.813   4.401  14.603  0.00  0.00    +0.000 A 
ATOM     13  C   UNL     1       6.086   3.520  13.795  0.00  0.00    +0.000 A 
ENDBRANCH   2  12
ENDBRANCH   1   6
BRANCH   1  14
ATOM     14  C   UNL     1       3.506   3.181  18.190  0.00  0.00    +0.000 C 
BRANCH  14  15
ATOM     15  C   UNL     1       2.627   4.041  19.044  0.00  0.00    +0.000 A 
ATOM     16  C   UNL     1       1.580   3.490  19.699  0.00  0.00    +0.000 A 
ATOM     17  C   UNL     1       1.743   3.734  21.171  0.00  0.00    +0.000 A 
ATOM     18  O   UNL     1       1.582   2.827  21.986  0.00  0.00    +0.000 OA
ATOM     19  O   UNL     1       2.006   5.039  21.531  0.00  0.00    +0.000 OA
ATOM     20  C   UNL     1       2.242   5.945  20.483  0.00  0.00    +0.000 A 
ATOM     21  C   UNL     1       1.774   7.235  20.657  0.00  0.00    +0.000 A 
ATOM     22  C   UNL     1       1.775   8.080  19.550  0.00  0.00    +0.000 A 
ATOM     23  C   UNL     1       0.876   9.282  19.548  0.00  0.00    +0.000 C 
ATOM     24  C   UNL     1       2.516   7.723  18.411  0.00  0.00    +0.000 A 
ATOM     25  C   UNL     1       3.025   6.424  18.263  0.00  0.00    +0.000 A 
ATOM     26  C   UNL     1       2.746   5.491  19.255  0.00  0.00    +0.000 A 
ENDBRANCH  14  15
ENDBRANCH   1  14
TORSDOF 4
ENDMDL
MODEL 2
REMARK VINA RESULT:      -9.5      1.122      1.501
REMARK  Name = 
REMARK  6 active torsions:
REMARK  status: ('A' for Active; 'I' for Inactive)
REMARK    1  A    between atoms: C_1  and  C_2
REMARK    2  A    between atoms: C_6  and  N_7
REMARK    3  A    between atoms: C_11  and  S_12
REMARK    4  A    between atoms: S_12  and  C_13
REMARK    5  A    between atoms: C_13  and  C_14
REMARK    6  A    between atoms: C_21  and  C_22
REMARK                            x       y       z     vdW  Elec       q    Type
REMARK                         _______ _______ _______ _____ _____    ______ ____
ROOT
ATOM      1  S   UNL     1       4.844   6.546  16.856  0.00  0.00    +0.000 S 
ENDROOT
BRANCH   1   6
ATOM      2  N   UNL     1       7.043   4.900  16.178  0.00  0.00    +0.000 N 
ATOM      3  N   UNL     1       7.995   4.222  16.885  0.00  0.00    +0.000 NA
ATOM      4  N   UNL     1       7.806   4.506  18.161  0.00  0.00    +0.000 NA
ATOM      5  N   UNL     1       6.758   5.355  18.319  0.00  0.00    +0.000 NA
ATOM      6  C   UNL     1       6.273   5.589  17.118  0.00  0.00    +0.000 A 
BRANCH   2  12
ATOM      7  C   UNL     1       5.335   2.704  12.031  0.00  0.00    +0.000 C 
ATOM      8  C   UNL     1       6.221   3.711  12.702  0.00  0.00    +0.000 A 
ATOM      9  C   UNL     1       7.140   4.465  11.959  0.00  0.00    +0.000 A 
ATOM     10  C   UNL     1       7.967   5.377  12.599  0.00  0.00    +0.000 A 
ATOM     11  C   UNL     1       7.908   5.522  13.985  0.00  0.00    +0.000 A 
ATOM     12  C   UNL     1       7.009   4.760  14.760  0.00  0.00    +0.000 A 
ATOM     13  C   UNL     1       6.146   3.881  14.096  0.00  0.00    +0.000 A 
ENDBRANCH   2  12
ENDBRANCH   1   6
BRANCH   1  14
ATOM     14  C   UNL     1       3.543   5.352  17.316  0.00  0.00    +0.000 C 
BRANCH  14  15
ATOM     15  C   UNL     1       2.594   5.926  18.321  0.00  0.00    +0.000 A 
ATOM     16  C   UNL     1       1.792   5.103  19.034  0.00  0.00    +0.000 A 
ATOM     17  C   UNL     1       2.065   5.301  20.496  0.00  0.00    +0.000 A 
ATOM     18  O   UNL     1       2.221   4.340  21.249  0.00  0.00    +0.000 OA
ATOM     19  O   UNL     1       2.054   6.610  20.931  0.00  0.00    +0.000 OA
ATOM     20  C   UNL     1       1.944   7.600  19.941  0.00  0.00    +0.000 A 
ATOM     21  C   UNL     1       1.209   8.726  20.263  0.00  0.00    +0.000 A 
ATOM     22  C   UNL     1       0.880   9.604  19.233  0.00  0.00    +0.000 A 
ATOM     23  C   UNL     1      -0.271  10.549  19.420  0.00  0.00    +0.000 C 
ATOM     24  C   UNL     1       1.544   9.498  17.999  0.00  0.00    +0.000 A 
ATOM     25  C   UNL     1       2.323   8.372  17.697  0.00  0.00    +0.000 A 
ATOM     26  C   UNL     1       2.391   7.348  18.635  0.00  0.00    +0.000 A 
ENDBRANCH  14  15
ENDBRANCH   1  14
TORSDOF 4
ENDMDL
MODEL 3
REMARK VINA RESULT:      -9.4      1.503      2.199
REMARK  Name = 
REMARK  6 active torsions:
REMARK  status: ('A' for Active; 'I' for Inactive)
REMARK    1  A    between atoms: C_1  and  C_2
REMARK    2  A    between atoms: C_6  and  N_7
REMARK    3  A    between atoms: C_11  and  S_12
REMARK    4  A    between atoms: S_12  and  C_13
REMARK    5  A    between atoms: C_13  and  C_14
REMARK    6  A    between atoms: C_21  and  C_22
REMARK                            x       y       z     vdW  Elec       q    Type
REMARK                         _______ _______ _______ _____ _____    ______ ____
ROOT
ATOM      1  S   UNL     1       3.225   1.890  18.087  0.00  0.00    +0.000 S 
ENDROOT
BRANCH   1   6
ATOM      2  N   UNL     1       5.183   3.921  18.286  0.00  0.00    +0.000 N 
ATOM      3  N   UNL     1       6.032   4.351  19.266  0.00  0.00    +0.000 NA
ATOM      4  N   UNL     1       5.765   3.643  20.348  0.00  0.00    +0.000 NA
ATOM      5  N   UNL     1       4.762   2.757  20.113  0.00  0.00    +0.000 NA
ATOM      6  C   UNL     1       4.411   2.906  18.854  0.00  0.00    +0.000 A 
BRANCH   2  12
ATOM      7  C   UNL     1       6.090   3.645  13.382  0.00  0.00    +0.000 C 
ATOM      8  C   UNL     1       5.715   4.443  14.595  0.00  0.00    +0.000 A 
ATOM      9  C   UNL     1       5.554   5.833  14.516  0.00  0.00    +0.000 A 
ATOM     10  C   UNL     1       5.226   6.559  15.653  0.00  0.00    +0.000 A 
ATOM     11  C   UNL     1       5.088   5.912  16.881  0.00  0.00    +0.000 A 
ATOM     12  C   UNL     1       5.268   4.517  16.994  0.00  0.00    +0.000 A 
ATOM     13  C   UNL     1       5.547   3.792  15.830  0.00  0.00    +0.000 A 
ENDBRANCH   2  12
ENDBRANCH   1   6
BRANCH   1  14
ATOM     14  C   UNL     1       1.962   3.124  17.628  0.00  0.00    +0.000 C 
BRANCH  14  15
ATOM     15  C   UNL     1       1.610   4.013  18.780  0.00  0.00    +0.000 A 
ATOM     16  C   UNL     1       0.789   3.556  19.753  0.00  0.00    +0.000 A 
ATOM     17  C   UNL     1       1.506   3.625  21.069  0.00  0.00    +0.000 A 
ATOM     18  O   UNL     1       1.495   2.673  21.848  0.00  0.00    +0.000 OA
ATOM     19  O   UNL     1       2.103   4.834  21.359  0.00  0.00    +0.000 OA
ATOM     20  C   UNL     1       2.100   5.797  20.336  0.00  0.00    +0.000 A 
ATOM     21  C   UNL     1       1.955   7.118  20.722  0.00  0.00    +0.000 A 
ATOM     22  C   UNL     1       1.706   8.061  19.728  0.00  0.00    +0.000 A 
ATOM     23  C   UNL     1       1.087   9.375  20.108  0.00  0.00    +0.000 C 
ATOM     24  C   UNL     1       1.916   7.716  18.383  0.00  0.00    +0.000 A 
ATOM     25  C   UNL     1       2.106   6.379  18.005  0.00  0.00    +0.000 A 
ATOM     26  C   UNL     1       2.044   5.402  18.991  0.00  0.00    +0.000 A 
ENDBRANCH  14  15
ENDBRANCH   1  14
TORSDOF 4
ENDMDL
MODEL 4
REMARK VINA RESULT:      -9.3      2.218      3.697
REMARK  Name = 
REMARK  6 active torsions:
REMARK  status: ('A' for Active; 'I' for Inactive)
REMARK    1  A    between atoms: C_1  and  C_2
REMARK    2  A    between atoms: C_6  and  N_7
REMARK    3  A    between atoms: C_11  and  S_12
REMARK    4  A    between atoms: S_12  and  C_13
REMARK    5  A    between atoms: C_13  and  C_14
REMARK    6  A    between atoms: C_21  and  C_22
REMARK                            x       y       z     vdW  Elec       q    Type
REMARK                         _______ _______ _______ _____ _____    ______ ____
ROOT
ATOM      1  S   UNL     1       4.535   3.350  17.478  0.00  0.00    +0.000 S 
ENDROOT
BRANCH   1   6
ATOM      2  N   UNL     1       6.372   5.026  16.132  0.00  0.00    +0.000 N 
ATOM      3  N   UNL     1       6.685   5.261  14.823  0.00  0.00    +0.000 NA
ATOM      4  N   UNL     1       5.960   4.429  14.096  0.00  0.00    +0.000 NA
ATOM      5  N   UNL     1       5.179   3.649  14.887  0.00  0.00    +0.000 NA
ATOM      6  C   UNL     1       5.408   4.016  16.130  0.00  0.00    +0.000 A 
BRANCH   2  12
ATOM      7  C   UNL     1       8.186   9.358  17.831  0.00  0.00    +0.000 C 
ATOM      8  C   UNL     1       7.926   7.893  18.014  0.00  0.00    +0.000 A 
ATOM      9  C   UNL     1       8.414   7.214  19.139  0.00  0.00    +0.000 A 
ATOM     10  C   UNL     1       8.182   5.853  19.283  0.00  0.00    +0.000 A 
ATOM     11  C   UNL     1       7.492   5.153  18.294  0.00  0.00    +0.000 A 
ATOM     12  C   UNL     1       7.009   5.806  17.141  0.00  0.00    +0.000 A 
ATOM     13  C   UNL     1       7.206   7.187  17.034  0.00  0.00    +0.000 A 
ENDBRANCH   2  12
ENDBRANCH   1   6
BRANCH   1  14
ATOM     14  C   UNL     1       2.832   3.862  17.070  0.00  0.00    +0.000 C 
BRANCH  14  15
ATOM     15  C   UNL     1       2.147   4.495  18.241  0.00  0.00    +0.000 A 
ATOM     16  C   UNL     1       1.174   3.821  18.895  0.00  0.00    +0.000 A 
ATOM     17  C   UNL     1       1.566   3.674  20.335  0.00  0.00    +0.000 A 
ATOM     18  O   UNL     1       1.468   2.591  20.912  0.00  0.00    +0.000 OA
ATOM     19  O   UNL     1       1.966   4.835  20.964  0.00  0.00    +0.000 OA
ATOM     20  C   UNL     1       2.104   5.973  20.154  0.00  0.00    +0.000 A 
ATOM     21  C   UNL     1       1.753   7.187  20.717  0.00  0.00    +0.000 A 
ATOM     22  C   UNL     1       1.647   8.288  19.871  0.00  0.00    +0.000 A 
ATOM     23  C   UNL     1       0.839   9.473  20.314  0.00  0.00    +0.000 C 
ATOM     24  C   UNL     1       2.187   8.217  18.576  0.00  0.00    +0.000 A 
ATOM     25  C   UNL     1       2.582   6.988  18.029  0.00  0.00    +0.000 A 
ATOM     26  C   UNL     1       2.391   5.839  18.787  0.00  0.00    +0.000 A 
ENDBRANCH  14  15
ENDBRANCH   1  14
TORSDOF 4
ENDMDL
MODEL 5
REMARK VINA RESULT:      -9.1      1.069      1.222
REMARK  Name = 
REMARK  6 active torsions:
REMARK  status: ('A' for Active; 'I' for Inactive)
REMARK    1  A    between atoms: C_1  and  C_2
REMARK    2  A    between atoms: C_6  and  N_7
REMARK    3  A    between atoms: C_11  and  S_12
REMARK    4  A    between atoms: S_12  and  C_13
REMARK    5  A    between atoms: C_13  and  C_14
REMARK    6  A    between atoms: C_21  and  C_22
REMARK                            x       y       z     vdW  Elec       q    Type
REMARK                         _______ _______ _______ _____ _____    ______ ____
ROOT
ATOM      1  S   UNL     1       3.838   2.582  17.630  0.00  0.00    +0.000 S 
ENDROOT
BRANCH   1   6
ATOM      2  N   UNL     1       5.989   4.387  17.292  0.00  0.00    +0.000 N 
ATOM      3  N   UNL     1       6.813   5.076  18.137  0.00  0.00    +0.000 NA
ATOM      4  N   UNL     1       6.399   4.831  19.367  0.00  0.00    +0.000 NA
ATOM      5  N   UNL     1       5.323   4.002  19.361  0.00  0.00    +0.000 NA
ATOM      6  C   UNL     1       5.074   3.711  18.102  0.00  0.00    +0.000 A 
BRANCH   2  12
ATOM      7  C   UNL     1       4.765   3.290  12.576  0.00  0.00    +0.000 C 
ATOM      8  C   UNL     1       5.681   3.945  13.566  0.00  0.00    +0.000 A 
ATOM      9  C   UNL     1       6.872   4.555  13.146  0.00  0.00    +0.000 A 
ATOM     10  C   UNL     1       7.719   5.139  14.077  0.00  0.00    +0.000 A 
ATOM     11  C   UNL     1       7.403   5.092  15.435  0.00  0.00    +0.000 A 
ATOM     12  C   UNL     1       6.224   4.465  15.888  0.00  0.00    +0.000 A 
ATOM     13  C   UNL     1       5.355   3.926  14.934  0.00  0.00    +0.000 A 
ENDBRANCH   2  12
ENDBRANCH   1   6
BRANCH   1  14
ATOM     14  C   UNL     1       2.481   3.723  17.197  0.00  0.00    +0.000 C 
BRANCH  14  15
ATOM     15  C   UNL     1       1.921   4.404  18.407  0.00  0.00    +0.000 A 
ATOM     16  C   UNL     1       1.007   3.767  19.173  0.00  0.00    +0.000 A 
ATOM     17  C   UNL     1       1.535   3.657  20.573  0.00  0.00    +0.000 A 
ATOM     18  O   UNL     1       1.478   2.595  21.192  0.00  0.00    +0.000 OA
ATOM     19  O   UNL     1       2.009   4.830  21.123  0.00  0.00    +0.000 OA
ATOM     20  C   UNL     1       2.084   5.941  20.266  0.00  0.00    +0.000 A 
ATOM     21  C   UNL     1       1.806   7.177  20.821  0.00  0.00    +0.000 A 
ATOM     22  C   UNL     1       1.635   8.253  19.954  0.00  0.00    +0.000 A 
ATOM     23  C   UNL     1       0.890   9.465  20.435  0.00  0.00    +0.000 C 
ATOM     24  C   UNL     1       2.046   8.133  18.616  0.00  0.00    +0.000 A 
ATOM     25  C   UNL     1       2.368   6.881  18.074  0.00  0.00    +0.000 A 
ATOM     26  C   UNL     1       2.235   5.759  18.884  0.00  0.00    +0.000 A 
ENDBRANCH  14  15
ENDBRANCH   1  14
TORSDOF 4
ENDMDL
MODEL 6
REMARK VINA RESULT:      -9.1      1.035      1.076
REMARK  Name = 
REMARK  6 active torsions:
REMARK  status: ('A' for Active; 'I' for Inactive)
REMARK    1  A    between atoms: C_1  and  C_2
REMARK    2  A    between atoms: C_6  and  N_7
REMARK    3  A    between atoms: C_11  and  S_12
REMARK    4  A    between atoms: S_12  and  C_13
REMARK    5  A    between atoms: C_13  and  C_14
REMARK    6  A    between atoms: C_21  and  C_22
REMARK                            x       y       z     vdW  Elec       q    Type
REMARK                         _______ _______ _______ _____ _____    ______ ____
ROOT
ATOM      1  S   UNL     1       4.925   3.515  17.315  0.00  0.00    +0.000 S 
ENDROOT
BRANCH   1   6
ATOM      2  N   UNL     1       6.617   5.407  16.067  0.00  0.00    +0.000 N 
ATOM      3  N   UNL     1       7.356   6.473  16.497  0.00  0.00    +0.000 NA
ATOM      4  N   UNL     1       7.116   6.616  17.788  0.00  0.00    +0.000 NA
ATOM      5  N   UNL     1       6.238   5.676  18.225  0.00  0.00    +0.000 NA
ATOM      6  C   UNL     1       5.940   4.922  17.188  0.00  0.00    +0.000 A 
BRANCH   2  12
ATOM      7  C   UNL     1       4.998   2.761  12.153  0.00  0.00    +0.000 C 
ATOM      8  C   UNL     1       5.961   3.739  12.756  0.00  0.00    +0.000 A 
ATOM      9  C   UNL     1       7.056   4.213  12.020  0.00  0.00    +0.000 A 
ATOM     10  C   UNL     1       7.950   5.102  12.600  0.00  0.00    +0.000 A 
ATOM     11  C   UNL     1       7.780   5.500  13.926  0.00  0.00    +0.000 A 
ATOM     12  C   UNL     1       6.701   5.020  14.698  0.00  0.00    +0.000 A 
ATOM     13  C   UNL     1       5.779   4.165  14.084  0.00  0.00    +0.000 A 
ENDBRANCH   2  12
ENDBRANCH   1   6
BRANCH   1  14
ATOM     14  C   UNL     1       3.318   4.205  16.794  0.00  0.00    +0.000 C 
BRANCH  14  15
ATOM     15  C   UNL     1       2.549   4.757  17.954  0.00  0.00    +0.000 A 
ATOM     16  C   UNL     1       1.630   3.986  18.579  0.00  0.00    +0.000 A 
ATOM     17  C   UNL     1       2.002   3.860  20.027  0.00  0.00    +0.000 A 
ATOM     18  O   UNL     1       1.994   2.767  20.591  0.00  0.00    +0.000 OA
ATOM     19  O   UNL     1       2.275   5.047  20.676  0.00  0.00    +0.000 OA
ATOM     20  C   UNL     1       2.322   6.203  19.879  0.00  0.00    +0.000 A 
ATOM     21  C   UNL     1       1.844   7.371  20.445  0.00  0.00    +0.000 A 
ATOM     22  C   UNL     1       1.653   8.467  19.607  0.00  0.00    +0.000 A 
ATOM     23  C   UNL     1       0.726   9.564  20.041  0.00  0.00    +0.000 C 
ATOM     24  C   UNL     1       2.227   8.462  18.324  0.00  0.00    +0.000 A 
ATOM     25  C   UNL     1       2.749   7.282  17.776  0.00  0.00    +0.000 A 
ATOM     26  C   UNL     1       2.651   6.111  18.519  0.00  0.00    +0.000 A 
ENDBRANCH  14  15
ENDBRANCH   1  14
TORSDOF 4
ENDMDL
MODEL 7
REMARK VINA RESULT:      -9.0      2.288      3.992
REMARK  Name = 
REMARK  6 active torsions:
REMARK  status: ('A' for Active; 'I' for Inactive)
REMARK    1  A    between atoms: C_1  and  C_2
REMARK    2  A    between atoms: C_6  and  N_7
REMARK    3  A    between atoms: C_11  and  S_12
REMARK    4  A    between atoms: S_12  and  C_13
REMARK    5  A    between atoms: C_13  and  C_14
REMARK    6  A    between atoms: C_21  and  C_22
REMARK                            x       y       z     vdW  Elec       q    Type
REMARK                         _______ _______ _______ _____ _____    ______ ____
ROOT
ATOM      1  S   UNL     1       3.961   4.421  16.858  0.00  0.00    +0.000 S 
ENDROOT
BRANCH   1   6
ATOM      2  N   UNL     1       6.607   5.016  16.056  0.00  0.00    +0.000 N 
ATOM      3  N   UNL     1       7.340   4.816  14.921  0.00  0.00    +0.000 NA
ATOM      4  N   UNL     1       6.582   4.128  14.086  0.00  0.00    +0.000 NA
ATOM      5  N   UNL     1       5.369   3.865  14.638  0.00  0.00    +0.000 NA
ATOM      6  C   UNL     1       5.366   4.417  15.833  0.00  0.00    +0.000 A 
BRANCH   2  12
ATOM      7  C   UNL     1       8.401   9.254  17.997  0.00  0.00    +0.000 C 
ATOM      8  C   UNL     1       8.093   7.792  18.121  0.00  0.00    +0.000 A 
ATOM      9  C   UNL     1       8.483   7.071  19.259  0.00  0.00    +0.000 A 
ATOM     10  C   UNL     1       8.208   5.714  19.349  0.00  0.00    +0.000 A 
ATOM     11  C   UNL     1       7.572   5.058  18.295  0.00  0.00    +0.000 A 
ATOM     12  C   UNL     1       7.190   5.753  17.129  0.00  0.00    +0.000 A 
ATOM     13  C   UNL     1       7.428   7.131  17.074  0.00  0.00    +0.000 A 
ENDBRANCH   2  12
ENDBRANCH   1   6
BRANCH   1  14
ATOM     14  C   UNL     1       3.917   6.171  17.371  0.00  0.00    +0.000 C 
BRANCH  14  15
ATOM     15  C   UNL     1       2.778   6.448  18.303  0.00  0.00    +0.000 A 
ATOM     16  C   UNL     1       2.025   5.424  18.766  0.00  0.00    +0.000 A 
ATOM     17  C   UNL     1       2.086   5.412  20.265  0.00  0.00    +0.000 A 
ATOM     18  O   UNL     1       2.289   4.368  20.884  0.00  0.00    +0.000 OA
ATOM     19  O   UNL     1       1.830   6.620  20.879  0.00  0.00    +0.000 OA
ATOM     20  C   UNL     1       1.696   7.737  20.038  0.00  0.00    +0.000 A 
ATOM     21  C   UNL     1       0.770   8.694  20.413  0.00  0.00    +0.000 A 
ATOM     22  C   UNL     1       0.443   9.679  19.485  0.00  0.00    +0.000 A 
ATOM     23  C   UNL     1      -0.849  10.428  19.641  0.00  0.00    +0.000 C 
ATOM     24  C   UNL     1       1.260   9.863  18.357  0.00  0.00    +0.000 A 
ATOM     25  C   UNL     1       2.228   8.909  18.009  0.00  0.00    +0.000 A 
ATOM     26  C   UNL     1       2.331   7.762  18.788  0.00  0.00    +0.000 A 
ENDBRANCH  14  15
ENDBRANCH   1  14
TORSDOF 4
ENDMDL
MODEL 8
REMARK VINA RESULT:      -8.9      3.610      5.224
REMARK  Name = 
REMARK  6 active torsions:
REMARK  status: ('A' for Active; 'I' for Inactive)
REMARK    1  A    between atoms: C_1  and  C_2
REMARK    2  A    between atoms: C_6  and  N_7
REMARK    3  A    between atoms: C_11  and  S_12
REMARK    4  A    between atoms: S_12  and  C_13
REMARK    5  A    between atoms: C_13  and  C_14
REMARK    6  A    between atoms: C_21  and  C_22
REMARK                            x       y       z     vdW  Elec       q    Type
REMARK                         _______ _______ _______ _____ _____    ______ ____
ROOT
ATOM      1  S   UNL     1       2.207   5.788  20.382  0.00  0.00    +0.000 S 
ENDROOT
BRANCH   1   6
ATOM      2  N   UNL     1       3.316   4.619  18.058  0.00  0.00    +0.000 N 
ATOM      3  N   UNL     1       2.884   3.708  17.135  0.00  0.00    +0.000 NA
ATOM      4  N   UNL     1       1.697   3.288  17.531  0.00  0.00    +0.000 NA
ATOM      5  N   UNL     1       1.331   3.892  18.691  0.00  0.00    +0.000 NA
ATOM      6  C   UNL     1       2.302   4.719  19.013  0.00  0.00    +0.000 A 
BRANCH   2  12
ATOM      7  C   UNL     1       7.963   5.671  19.555  0.00  0.00    +0.000 C 
ATOM      8  C   UNL     1       6.854   5.805  18.554  0.00  0.00    +0.000 A 
ATOM      9  C   UNL     1       6.986   6.659  17.450  0.00  0.00    +0.000 A 
ATOM     10  C   UNL     1       5.942   6.788  16.544  0.00  0.00    +0.000 A 
ATOM     11  C   UNL     1       4.749   6.094  16.749  0.00  0.00    +0.000 A 
ATOM     12  C   UNL     1       4.581   5.247  17.863  0.00  0.00    +0.000 A 
ATOM     13  C   UNL     1       5.660   5.087  18.740  0.00  0.00    +0.000 A 
ENDBRANCH   2  12
ENDBRANCH   1   6
BRANCH   1  14
ATOM     14  C   UNL     1       2.294   7.412  19.554  0.00  0.00    +0.000 C 
BRANCH  14  15
ATOM     15  C   UNL     1       1.325   8.389  20.144  0.00  0.00    +0.000 A 
ATOM     16  C   UNL     1       0.929   8.249  21.430  0.00  0.00    +0.000 A 
ATOM     17  C   UNL     1       1.280   9.495  22.187  0.00  0.00    +0.000 A 
ATOM     18  O   UNL     1       1.831   9.436  23.285  0.00  0.00    +0.000 OA
ATOM     19  O   UNL     1       0.880  10.679  21.602  0.00  0.00    +0.000 OA
ATOM     20  C   UNL     1       0.335  10.588  20.310  0.00  0.00    +0.000 A 
ATOM     21  C   UNL     1      -0.694  11.460  20.004  0.00  0.00    +0.000 A 
ATOM     22  C   UNL     1      -1.410  11.234  18.831  0.00  0.00    +0.000 A 
ATOM     23  C   UNL     1      -2.783  11.824  18.689  0.00  0.00    +0.000 C 
ATOM     24  C   UNL     1      -0.890  10.356  17.865  0.00  0.00    +0.000 A 
ATOM     25  C   UNL     1       0.183   9.506  18.171  0.00  0.00    +0.000 A 
ATOM     26  C   UNL     1       0.694   9.529  19.463  0.00  0.00    +0.000 A 
ENDBRANCH  14  15
ENDBRANCH   1  14
TORSDOF 4
ENDMDL
MODEL 9
REMARK VINA RESULT:      -8.9      3.145      7.657
REMARK  Name = 
REMARK  6 active torsions:
REMARK  status: ('A' for Active; 'I' for Inactive)
REMARK    1  A    between atoms: C_1  and  C_2
REMARK    2  A    between atoms: C_6  and  N_7
REMARK    3  A    between atoms: C_11  and  S_12
REMARK    4  A    between atoms: S_12  and  C_13
REMARK    5  A    between atoms: C_13  and  C_14
REMARK    6  A    between atoms: C_21  and  C_22
REMARK                            x       y       z     vdW  Elec       q    Type
REMARK                         _______ _______ _______ _____ _____    ______ ____
ROOT
ATOM      1  S   UNL     1       4.725   3.841  18.730  0.00  0.00    +0.000 S 
ENDROOT
BRANCH   1   6
ATOM      2  N   UNL     1       2.154   4.551  19.671  0.00  0.00    +0.000 N 
ATOM      3  N   UNL     1       1.105   3.870  20.221  0.00  0.00    +0.000 NA
ATOM      4  N   UNL     1       1.429   2.590  20.217  0.00  0.00    +0.000 NA
ATOM      5  N   UNL     1       2.662   2.404  19.678  0.00  0.00    +0.000 NA
ATOM      6  C   UNL     1       3.121   3.594  19.357  0.00  0.00    +0.000 A 
BRANCH   2  12
ATOM      7  C   UNL     1       1.051   9.033  21.579  0.00  0.00    +0.000 C 
ATOM      8  C   UNL     1       1.534   8.184  20.442  0.00  0.00    +0.000 A 
ATOM      9  C   UNL     1       1.806   8.752  19.189  0.00  0.00    +0.000 A 
ATOM     10  C   UNL     1       2.233   7.949  18.141  0.00  0.00    +0.000 A 
ATOM     11  C   UNL     1       2.361   6.572  18.322  0.00  0.00    +0.000 A 
ATOM     12  C   UNL     1       2.072   5.971  19.565  0.00  0.00    +0.000 A 
ATOM     13  C   UNL     1       1.692   6.799  20.626  0.00  0.00    +0.000 A 
ENDBRANCH   2  12
ENDBRANCH   1   6
BRANCH   1  14
ATOM     14  C   UNL     1       4.421   3.680  16.938  0.00  0.00    +0.000 C 
BRANCH  14  15
ATOM     15  C   UNL     1       5.285   4.608  16.143  0.00  0.00    +0.000 A 
ATOM     16  C   UNL     1       5.357   5.915  16.483  0.00  0.00    +0.000 A 
ATOM     17  C   UNL     1       6.786   6.265  16.779  0.00  0.00    +0.000 A 
ATOM     18  O   UNL     1       7.087   6.907  17.784  0.00  0.00    +0.000 OA
ATOM     19  O   UNL     1       7.702   5.882  15.821  0.00  0.00    +0.000 OA
ATOM     20  C   UNL     1       7.217   5.086  14.770  0.00  0.00    +0.000 A 
ATOM     21  C   UNL     1       7.769   5.298  13.520  0.00  0.00    +0.000 A 
ATOM     22  C   UNL     1       7.146   4.705  12.426  0.00  0.00    +0.000 A 
ATOM     23  C   UNL     1       7.396   5.260  11.053  0.00  0.00    +0.000 C 
ATOM     24  C   UNL     1       6.201   3.687  12.639  0.00  0.00    +0.000 A 
ATOM     25  C   UNL     1       5.677   3.450  13.918  0.00  0.00    +0.000 A 
ATOM     26  C   UNL     1       6.091   4.271  14.961  0.00  0.00    +0.000 A 
ENDBRANCH  14  15
ENDBRANCH   1  14
TORSDOF 4
ENDMDL
