MODEL 1
REMARK VINA RESULT:      -8.3      0.000      0.000
REMARK  Name = 
REMARK  5 active torsions:
REMARK  status: ('A' for Active; 'I' for Inactive)
REMARK    1  A    between atoms: S_2  and  N_4
REMARK    2  A    between atoms: S_2  and  C_20
REMARK    3  A    between atoms: N_4  and  C_5
REMARK    4  A    between atoms: C_9  and  S_10
REMARK    5  A    between atoms: S_10  and  N_13
REMARK                            x       y       z     vdW  Elec       q    Type
REMARK                         _______ _______ _______ _____ _____    ______ ____
ROOT
ATOM      1  N   UNL     1       3.243   4.926  18.607  0.00  0.00    +0.000 N 
ATOM      2  H   UNL     1       2.586   4.295  19.048  0.00  0.00    +0.000 HD
ENDROOT
BRANCH   1   3
ATOM      3  C   UNL     1       2.914   6.309  18.655  0.00  0.00    +0.000 A 
ATOM      4  C   UNL     1       3.208   7.130  17.581  0.00  0.00    +0.000 A 
ATOM      5  C   UNL     1       2.783   8.489  17.616  0.00  0.00    +0.000 A 
ATOM      6  C   UNL     1       2.067   8.966  18.707  0.00  0.00    +0.000 A 
ATOM      7  C   UNL     1       1.749   8.102  19.776  0.00  0.00    +0.000 A 
ATOM      8  C   UNL     1       2.200   6.789  19.761  0.00  0.00    +0.000 A 
BRANCH   7   9
ATOM      9  S   UNL     1       0.811   8.711  21.167  0.00  0.00    +0.000 S 
ATOM     10  O   UNL     1      -0.300   7.808  21.344  0.00  0.00    +0.000 OA
ATOM     11  O   UNL     1       1.751   8.958  22.234  0.00  0.00    +0.000 OA
BRANCH   9  12
ATOM     12  N   UNL     1       0.200  10.226  20.622  0.00  0.00    +0.000 NA
ATOM     13  C   UNL     1      -0.874  10.122  19.602  0.00  0.00    +0.000 C 
ATOM     14  C   UNL     1      -1.367  11.480  19.120  0.00  0.00    +0.000 C 
ATOM     15  C   UNL     1      -1.728  12.384  20.286  0.00  0.00    +0.000 C 
ATOM     16  C   UNL     1      -0.498  12.573  21.158  0.00  0.00    +0.000 C 
ATOM     17  C   UNL     1       0.008  11.241  21.695  0.00  0.00    +0.000 C 
ENDBRANCH   9  12
ENDBRANCH   7   9
ENDBRANCH   1   3
BRANCH   1  19
ATOM     18  O   UNL     1       5.418   5.573  19.735  0.00  0.00    +0.000 OA
ATOM     19  S   UNL     1       4.859   4.480  18.988  0.00  0.00    +0.000 S 
ATOM     20  O   UNL     1       4.884   3.114  19.446  0.00  0.00    +0.000 OA
BRANCH  19  21
ATOM     21  C   UNL     1       5.602   4.505  17.367  0.00  0.00    +0.000 A 
ATOM     22  C   UNL     1       6.985   4.715  17.305  0.00  0.00    +0.000 A 
ATOM     23  C   UNL     1       7.574   4.922  16.069  0.00  0.00    +0.000 A 
ATOM     24  C   UNL     1       6.820   4.776  14.908  0.00  0.00    +0.000 A 
ATOM     25  C   UNL     1       7.426   4.990  13.686  0.00  0.00    +0.000 A 
ATOM     26  C   UNL     1       7.092   4.132  12.655  0.00  0.00    +0.000 A 
ATOM     27  C   UNL     1       5.838   3.548  12.671  0.00  0.00    +0.000 A 
ATOM     28  C   UNL     1       4.982   3.750  13.762  0.00  0.00    +0.000 A 
ATOM     29  C   UNL     1       5.500   4.284  14.957  0.00  0.00    +0.000 A 
ATOM     30  C   UNL     1       4.855   4.265  16.209  0.00  0.00    +0.000 A 
ENDBRANCH  19  21
ENDBRANCH   1  19
TORSDOF 5
ENDMDL
MODEL 2
REMARK VINA RESULT:      -8.1      2.138      2.853
REMARK  Name = 
REMARK  5 active torsions:
REMARK  status: ('A' for Active; 'I' for Inactive)
REMARK    1  A    between atoms: S_2  and  N_4
REMARK    2  A    between atoms: S_2  and  C_20
REMARK    3  A    between atoms: N_4  and  C_5
REMARK    4  A    between atoms: C_9  and  S_10
REMARK    5  A    between atoms: S_10  and  N_13
REMARK                            x       y       z     vdW  Elec       q    Type
REMARK                         _______ _______ _______ _____ _____    ______ ____
ROOT
ATOM      1  N   UNL     1       2.344   6.385  20.652  0.00  0.00    +0.000 N 
ATOM      2  H   UNL     1       3.121   6.464  21.296  0.00  0.00    +0.000 HD
ENDROOT
BRANCH   1   3
ATOM      3  C   UNL     1       2.113   7.505  19.807  0.00  0.00    +0.000 A 
ATOM      4  C   UNL     1       2.621   7.521  18.520  0.00  0.00    +0.000 A 
ATOM      5  C   UNL     1       2.294   8.610  17.663  0.00  0.00    +0.000 A 
ATOM      6  C   UNL     1       1.460   9.626  18.116  0.00  0.00    +0.000 A 
ATOM      7  C   UNL     1       0.926   9.572  19.421  0.00  0.00    +0.000 A 
ATOM      8  C   UNL     1       1.279   8.531  20.270  0.00  0.00    +0.000 A 
BRANCH   7   9
ATOM      9  S   UNL     1      -0.162  10.866  19.994  0.00  0.00    +0.000 S 
ATOM     10  O   UNL     1      -0.487  10.557  21.366  0.00  0.00    +0.000 OA
ATOM     11  O   UNL     1       0.451  12.122  19.636  0.00  0.00    +0.000 OA
BRANCH   9  12
ATOM     12  N   UNL     1      -1.581  10.665  19.040  0.00  0.00    +0.000 NA
ATOM     13  C   UNL     1      -2.524  11.810  19.097  0.00  0.00    +0.000 C 
ATOM     14  C   UNL     1      -3.782  11.584  18.268  0.00  0.00    +0.000 C 
ATOM     15  C   UNL     1      -3.441  11.154  16.851  0.00  0.00    +0.000 C 
ATOM     16  C   UNL     1      -2.637   9.867  16.911  0.00  0.00    +0.000 C 
ATOM     17  C   UNL     1      -1.349  10.056  17.701  0.00  0.00    +0.000 C 
ENDBRANCH   9  12
ENDBRANCH   7   9
ENDBRANCH   1   3
BRANCH   1  19
ATOM     18  O   UNL     1       2.623   3.887  20.971  0.00  0.00    +0.000 OA
ATOM     19  S   UNL     1       2.316   4.826  19.928  0.00  0.00    +0.000 S 
ATOM     20  O   UNL     1       1.158   4.713  19.077  0.00  0.00    +0.000 OA
BRANCH  19  21
ATOM     21  C   UNL     1       3.742   4.927  18.862  0.00  0.00    +0.000 A 
ATOM     22  C   UNL     1       4.973   5.197  19.473  0.00  0.00    +0.000 A 
ATOM     23  C   UNL     1       6.071   5.464  18.671  0.00  0.00    +0.000 A 
ATOM     24  C   UNL     1       5.974   5.318  17.291  0.00  0.00    +0.000 A 
ATOM     25  C   UNL     1       7.079   5.592  16.510  0.00  0.00    +0.000 A 
ATOM     26  C   UNL     1       7.324   4.751  15.441  0.00  0.00    +0.000 A 
ATOM     27  C   UNL     1       6.246   4.114  14.851  0.00  0.00    +0.000 A 
ATOM     28  C   UNL     1       4.963   4.249  15.399  0.00  0.00    +0.000 A 
ATOM     29  C   UNL     1       4.818   4.770  16.698  0.00  0.00    +0.000 A 
ATOM     30  C   UNL     1       3.654   4.688  17.487  0.00  0.00    +0.000 A 
ENDBRANCH  19  21
ENDBRANCH   1  19
TORSDOF 5
ENDMDL
MODEL 3
REMARK VINA RESULT:      -8.0      1.654      2.315
REMARK  Name = 
REMARK  5 active torsions:
REMARK  status: ('A' for Active; 'I' for Inactive)
REMARK    1  A    between atoms: S_2  and  N_4
REMARK    2  A    between atoms: S_2  and  C_20
REMARK    3  A    between atoms: N_4  and  C_5
REMARK    4  A    between atoms: C_9  and  S_10
REMARK    5  A    between atoms: S_10  and  N_13
REMARK                            x       y       z     vdW  Elec       q    Type
REMARK                         _______ _______ _______ _____ _____    ______ ____
ROOT
ATOM      1  N   UNL     1       3.504   6.628  17.734  0.00  0.00    +0.000 N 
ATOM      2  H   UNL     1       3.146   6.604  16.788  0.00  0.00    +0.000 HD
ENDROOT
BRANCH   1   3
ATOM      3  C   UNL     1       2.623   7.142  18.725  0.00  0.00    +0.000 A 
ATOM      4  C   UNL     1       2.292   6.373  19.826  0.00  0.00    +0.000 A 
ATOM      5  C   UNL     1       1.487   6.946  20.851  0.00  0.00    +0.000 A 
ATOM      6  C   UNL     1       1.061   8.265  20.746  0.00  0.00    +0.000 A 
ATOM      7  C   UNL     1       1.439   9.041  19.630  0.00  0.00    +0.000 A 
ATOM      8  C   UNL     1       2.190   8.469  18.611  0.00  0.00    +0.000 A 
BRANCH   7   9
ATOM      9  S   UNL     1       0.910  10.742  19.506  0.00  0.00    +0.000 S 
ATOM     10  O   UNL     1       0.925  11.279  20.844  0.00  0.00    +0.000 OA
ATOM     11  O   UNL     1       1.683  11.347  18.448  0.00  0.00    +0.000 OA
BRANCH   9  12
ATOM     12  N   UNL     1      -0.727  10.628  18.983  0.00  0.00    +0.000 NA
ATOM     13  C   UNL     1      -1.537  11.846  19.239  0.00  0.00    +0.000 C 
ATOM     14  C   UNL     1      -2.986  11.698  18.794  0.00  0.00    +0.000 C 
ATOM     15  C   UNL     1      -3.077  11.203  17.360  0.00  0.00    +0.000 C 
ATOM     16  C   UNL     1      -2.378   9.858  17.261  0.00  0.00    +0.000 C 
ATOM     17  C   UNL     1      -0.913   9.967  17.662  0.00  0.00    +0.000 C 
ENDBRANCH   9  12
ENDBRANCH   7   9
ENDBRANCH   1   3
BRANCH   1  19
ATOM     18  O   UNL     1       5.285   5.498  19.138  0.00  0.00    +0.000 OA
ATOM     19  S   UNL     1       4.347   5.175  18.099  0.00  0.00    +0.000 S 
ATOM     20  O   UNL     1       3.408   4.085  18.190  0.00  0.00    +0.000 OA
BRANCH  19  21
ATOM     21  C   UNL     1       5.276   4.942  16.594  0.00  0.00    +0.000 A 
ATOM     22  C   UNL     1       6.664   5.111  16.672  0.00  0.00    +0.000 A 
ATOM     23  C   UNL     1       7.402   5.119  15.500  0.00  0.00    +0.000 A 
ATOM     24  C   UNL     1       6.784   4.820  14.289  0.00  0.00    +0.000 A 
ATOM     25  C   UNL     1       7.538   4.838  13.132  0.00  0.00    +0.000 A 
ATOM     26  C   UNL     1       7.293   3.844  12.202  0.00  0.00    +0.000 A 
ATOM     27  C   UNL     1       6.023   3.297  12.149  0.00  0.00    +0.000 A 
ATOM     28  C   UNL     1       5.054   3.677  13.087  0.00  0.00    +0.000 A 
ATOM     29  C   UNL     1       5.449   4.370  14.246  0.00  0.00    +0.000 A 
ATOM     30  C   UNL     1       4.662   4.550  15.401  0.00  0.00    +0.000 A 
ENDBRANCH  19  21
ENDBRANCH   1  19
TORSDOF 5
ENDMDL
MODEL 4
REMARK VINA RESULT:      -8.0      2.042      2.508
REMARK  Name = 
REMARK  5 active torsions:
REMARK  status: ('A' for Active; 'I' for Inactive)
REMARK    1  A    between atoms: S_2  and  N_4
REMARK    2  A    between atoms: S_2  and  C_20
REMARK    3  A    between atoms: N_4  and  C_5
REMARK    4  A    between atoms: C_9  and  S_10
REMARK    5  A    between atoms: S_10  and  N_13
REMARK                            x       y       z     vdW  Elec       q    Type
REMARK                         _______ _______ _______ _____ _____    ______ ____
ROOT
ATOM      1  N   UNL     1       2.491   6.113  20.652  0.00  0.00    +0.000 N 
ATOM      2  H   UNL     1       3.315   6.167  21.236  0.00  0.00    +0.000 HD
ENDROOT
BRANCH   1   3
ATOM      3  C   UNL     1       2.166   7.285  19.915  0.00  0.00    +0.000 A 
ATOM      4  C   UNL     1       2.430   7.348  18.559  0.00  0.00    +0.000 A 
ATOM      5  C   UNL     1       2.009   8.493  17.826  0.00  0.00    +0.000 A 
ATOM      6  C   UNL     1       1.325   9.518  18.469  0.00  0.00    +0.000 A 
ATOM      7  C   UNL     1       1.037   9.418  19.847  0.00  0.00    +0.000 A 
ATOM      8  C   UNL     1       1.485   8.320  20.569  0.00  0.00    +0.000 A 
BRANCH   7   9
ATOM      9  S   UNL     1       0.140  10.724  20.668  0.00  0.00    +0.000 S 
ATOM     10  O   UNL     1      -1.261  10.481  20.426  0.00  0.00    +0.000 OA
ATOM     11  O   UNL     1       0.662  10.815  22.011  0.00  0.00    +0.000 OA
BRANCH   9  12
ATOM     12  N   UNL     1       0.602  12.145  19.811  0.00  0.00    +0.000 NA
ATOM     13  C   UNL     1      -0.532  13.022  19.423  0.00  0.00    +0.000 C 
ATOM     14  C   UNL     1      -0.089  14.250  18.639  0.00  0.00    +0.000 C 
ATOM     15  C   UNL     1       1.028  14.990  19.354  0.00  0.00    +0.000 C 
ATOM     16  C   UNL     1       2.207  14.049  19.526  0.00  0.00    +0.000 C 
ATOM     17  C   UNL     1       1.819  12.820  20.338  0.00  0.00    +0.000 C 
ENDBRANCH   9  12
ENDBRANCH   7   9
ENDBRANCH   1   3
BRANCH   1  19
ATOM     18  O   UNL     1       2.765   3.598  20.782  0.00  0.00    +0.000 OA
ATOM     19  S   UNL     1       2.438   4.611  19.818  0.00  0.00    +0.000 S 
ATOM     20  O   UNL     1       1.259   4.564  18.989  0.00  0.00    +0.000 OA
BRANCH  19  21
ATOM     21  C   UNL     1       3.839   4.785  18.728  0.00  0.00    +0.000 A 
ATOM     22  C   UNL     1       5.066   5.112  19.319  0.00  0.00    +0.000 A 
ATOM     23  C   UNL     1       6.136   5.434  18.500  0.00  0.00    +0.000 A 
ATOM     24  C   UNL     1       6.021   5.290  17.120  0.00  0.00    +0.000 A 
ATOM     25  C   UNL     1       7.099   5.621  16.323  0.00  0.00    +0.000 A 
ATOM     26  C   UNL     1       7.365   4.796  15.245  0.00  0.00    +0.000 A 
ATOM     27  C   UNL     1       6.308   4.111  14.671  0.00  0.00    +0.000 A 
ATOM     28  C   UNL     1       5.030   4.182  15.241  0.00  0.00    +0.000 A 
ATOM     29  C   UNL     1       4.883   4.690  16.545  0.00  0.00    +0.000 A 
ATOM     30  C   UNL     1       3.739   4.549  17.354  0.00  0.00    +0.000 A 
ENDBRANCH  19  21
ENDBRANCH   1  19
TORSDOF 5
ENDMDL
MODEL 5
REMARK VINA RESULT:      -8.0      1.850      8.917
REMARK  Name = 
REMARK  5 active torsions:
REMARK  status: ('A' for Active; 'I' for Inactive)
REMARK    1  A    between atoms: S_2  and  N_4
REMARK    2  A    between atoms: S_2  and  C_20
REMARK    3  A    between atoms: N_4  and  C_5
REMARK    4  A    between atoms: C_9  and  S_10
REMARK    5  A    between atoms: S_10  and  N_13
REMARK                            x       y       z     vdW  Elec       q    Type
REMARK                         _______ _______ _______ _____ _____    ______ ____
ROOT
ATOM      1  N   UNL     1       1.794   8.566  21.644  0.00  0.00    +0.000 N 
ATOM      2  H   UNL     1       2.263   8.093  22.406  0.00  0.00    +0.000 HD
ENDROOT
BRANCH   1   3
ATOM      3  C   UNL     1       1.893   7.950  20.366  0.00  0.00    +0.000 A 
ATOM      4  C   UNL     1       1.820   8.718  19.218  0.00  0.00    +0.000 A 
ATOM      5  C   UNL     1       2.019   8.091  17.955  0.00  0.00    +0.000 A 
ATOM      6  C   UNL     1       2.302   6.732  17.890  0.00  0.00    +0.000 A 
ATOM      7  C   UNL     1       2.405   5.975  19.076  0.00  0.00    +0.000 A 
ATOM      8  C   UNL     1       2.170   6.578  20.304  0.00  0.00    +0.000 A 
BRANCH   7   9
ATOM      9  S   UNL     1       2.789   4.233  18.993  0.00  0.00    +0.000 S 
ATOM     10  O   UNL     1       2.838   3.754  20.352  0.00  0.00    +0.000 OA
ATOM     11  O   UNL     1       1.892   3.649  18.025  0.00  0.00    +0.000 OA
BRANCH   9  12
ATOM     12  N   UNL     1       4.384   4.193  18.344  0.00  0.00    +0.000 NA
ATOM     13  C   UNL     1       4.440   4.133  16.861  0.00  0.00    +0.000 C 
ATOM     14  C   UNL     1       5.864   4.066  16.324  0.00  0.00    +0.000 C 
ATOM     15  C   UNL     1       6.731   5.164  16.916  0.00  0.00    +0.000 C 
ATOM     16  C   UNL     1       6.753   5.010  18.427  0.00  0.00    +0.000 C 
ATOM     17  C   UNL     1       5.350   5.108  19.012  0.00  0.00    +0.000 C 
ENDBRANCH   9  12
ENDBRANCH   7   9
ENDBRANCH   1   3
BRANCH   1  19
ATOM     18  O   UNL     1      -0.703   8.136  21.694  0.00  0.00    +0.000 OA
ATOM     19  S   UNL     1       0.244   9.121  22.139  0.00  0.00    +0.000 S 
ATOM     20  O   UNL     1       0.315   9.592  23.500  0.00  0.00    +0.000 OA
BRANCH  19  21
ATOM     21  C   UNL     1       0.055  10.555  21.096  0.00  0.00    +0.000 A 
ATOM     22  C   UNL     1      -1.058  10.580  20.247  0.00  0.00    +0.000 A 
ATOM     23  C   UNL     1      -1.148  11.582  19.294  0.00  0.00    +0.000 A 
ATOM     24  C   UNL     1      -0.220  12.619  19.288  0.00  0.00    +0.000 A 
ATOM     25  C   UNL     1      -0.326  13.606  18.328  0.00  0.00    +0.000 A 
ATOM     26  C   UNL     1      -0.081  14.906  18.727  0.00  0.00    +0.000 A 
ATOM     27  C   UNL     1       0.786  15.112  19.786  0.00  0.00    +0.000 A 
ATOM     28  C   UNL     1       1.310  14.020  20.489  0.00  0.00    +0.000 A 
ATOM     29  C   UNL     1       0.732  12.748  20.321  0.00  0.00    +0.000 A 
ATOM     30  C   UNL     1       0.939  11.637  21.161  0.00  0.00    +0.000 A 
ENDBRANCH  19  21
ENDBRANCH   1  19
TORSDOF 5
ENDMDL
MODEL 6
REMARK VINA RESULT:      -8.0      2.469      3.606
REMARK  Name = 
REMARK  5 active torsions:
REMARK  status: ('A' for Active; 'I' for Inactive)
REMARK    1  A    between atoms: S_2  and  N_4
REMARK    2  A    between atoms: S_2  and  C_20
REMARK    3  A    between atoms: N_4  and  C_5
REMARK    4  A    between atoms: C_9  and  S_10
REMARK    5  A    between atoms: S_10  and  N_13
REMARK                            x       y       z     vdW  Elec       q    Type
REMARK                         _______ _______ _______ _____ _____    ______ ____
ROOT
ATOM      1  N   UNL     1       2.505   7.093  20.314  0.00  0.00    +0.000 N 
ATOM      2  H   UNL     1       3.114   7.360  19.551  0.00  0.00    +0.000 HD
ENDROOT
BRANCH   1   3
ATOM      3  C   UNL     1       1.457   8.002  20.629  0.00  0.00    +0.000 A 
ATOM      4  C   UNL     1       0.653   7.778  21.732  0.00  0.00    +0.000 A 
ATOM      5  C   UNL     1      -0.326   8.752  22.080  0.00  0.00    +0.000 A 
ATOM      6  C   UNL     1      -0.450   9.914  21.328  0.00  0.00    +0.000 A 
ATOM      7  C   UNL     1       0.404  10.136  20.227  0.00  0.00    +0.000 A 
ATOM      8  C   UNL     1       1.330   9.168  19.863  0.00  0.00    +0.000 A 
BRANCH   7   9
ATOM      9  S   UNL     1       0.259  11.639  19.275  0.00  0.00    +0.000 S 
ATOM     10  O   UNL     1      -0.055  12.693  20.209  0.00  0.00    +0.000 OA
ATOM     11  O   UNL     1       1.424  11.715  18.426  0.00  0.00    +0.000 OA
BRANCH   9  12
ATOM     12  N   UNL     1      -1.119  11.366  18.278  0.00  0.00    +0.000 NA
ATOM     13  C   UNL     1      -1.113  10.060  17.571  0.00  0.00    +0.000 C 
ATOM     14  C   UNL     1      -2.329   9.866  16.675  0.00  0.00    +0.000 C 
ATOM     15  C   UNL     1      -3.621  10.138  17.428  0.00  0.00    +0.000 C 
ATOM     16  C   UNL     1      -3.596  11.566  17.944  0.00  0.00    +0.000 C 
ATOM     17  C   UNL     1      -2.413  11.796  18.876  0.00  0.00    +0.000 C 
ENDBRANCH   9  12
ENDBRANCH   7   9
ENDBRANCH   1   3
BRANCH   1  19
ATOM     18  O   UNL     1       2.645   4.804  21.391  0.00  0.00    +0.000 OA
ATOM     19  S   UNL     1       2.105   5.424  20.213  0.00  0.00    +0.000 S 
ATOM     20  O   UNL     1       0.730   5.284  19.804  0.00  0.00    +0.000 OA
BRANCH  19  21
ATOM     21  C   UNL     1       3.118   4.923  18.833  0.00  0.00    +0.000 A 
ATOM     22  C   UNL     1       3.079   3.569  18.476  0.00  0.00    +0.000 A 
ATOM     23  C   UNL     1       3.981   3.102  17.534  0.00  0.00    +0.000 A 
ATOM     24  C   UNL     1       4.804   3.997  16.857  0.00  0.00    +0.000 A 
ATOM     25  C   UNL     1       5.698   3.510  15.925  0.00  0.00    +0.000 A 
ATOM     26  C   UNL     1       5.861   4.240  14.762  0.00  0.00    +0.000 A 
ATOM     27  C   UNL     1       5.646   5.606  14.813  0.00  0.00    +0.000 A 
ATOM     28  C   UNL     1       5.177   6.201  15.992  0.00  0.00    +0.000 A 
ATOM     29  C   UNL     1       4.643   5.390  17.010  0.00  0.00    +0.000 A 
ATOM     30  C   UNL     1       3.872   5.843  18.098  0.00  0.00    +0.000 A 
ENDBRANCH  19  21
ENDBRANCH   1  19
TORSDOF 5
ENDMDL
MODEL 7
REMARK VINA RESULT:      -8.0      3.660     10.163
REMARK  Name = 
REMARK  5 active torsions:
REMARK  status: ('A' for Active; 'I' for Inactive)
REMARK    1  A    between atoms: S_2  and  N_4
REMARK    2  A    between atoms: S_2  and  C_20
REMARK    3  A    between atoms: N_4  and  C_5
REMARK    4  A    between atoms: C_9  and  S_10
REMARK    5  A    between atoms: S_10  and  N_13
REMARK                            x       y       z     vdW  Elec       q    Type
REMARK                         _______ _______ _______ _____ _____    ______ ____
ROOT
ATOM      1  N   UNL     1       0.088   9.031  21.046  0.00  0.00    +0.000 N 
ATOM      2  H   UNL     1      -0.914   9.014  20.905  0.00  0.00    +0.000 HD
ENDROOT
BRANCH   1   3
ATOM      3  C   UNL     1       0.887   8.803  19.892  0.00  0.00    +0.000 A 
ATOM      4  C   UNL     1       1.017   9.790  18.931  0.00  0.00    +0.000 A 
ATOM      5  C   UNL     1       1.899   9.574  17.834  0.00  0.00    +0.000 A 
ATOM      6  C   UNL     1       2.628   8.394  17.750  0.00  0.00    +0.000 A 
ATOM      7  C   UNL     1       2.505   7.415  18.759  0.00  0.00    +0.000 A 
ATOM      8  C   UNL     1       1.614   7.608  19.806  0.00  0.00    +0.000 A 
BRANCH   7   9
ATOM      9  S   UNL     1       3.458   5.908  18.661  0.00  0.00    +0.000 S 
ATOM     10  O   UNL     1       3.743   5.688  17.264  0.00  0.00    +0.000 OA
ATOM     11  O   UNL     1       4.520   6.017  19.632  0.00  0.00    +0.000 OA
BRANCH   9  12
ATOM     12  N   UNL     1       2.362   4.691  19.192  0.00  0.00    +0.000 NA
ATOM     13  C   UNL     1       1.781   3.871  18.098  0.00  0.00    +0.000 C 
ATOM     14  C   UNL     1       0.792   2.828  18.602  0.00  0.00    +0.000 C 
ATOM     15  C   UNL     1       1.388   1.997  19.726  0.00  0.00    +0.000 C 
ATOM     16  C   UNL     1       1.771   2.923  20.868  0.00  0.00    +0.000 C 
ATOM     17  C   UNL     1       2.789   3.963  20.419  0.00  0.00    +0.000 C 
ENDBRANCH   9  12
ENDBRANCH   7   9
ENDBRANCH   1   3
BRANCH   1  19
ATOM     18  O   UNL     1       0.685   9.779  23.392  0.00  0.00    +0.000 OA
ATOM     19  S   UNL     1       0.533  10.333  22.075  0.00  0.00    +0.000 S 
ATOM     20  O   UNL     1       1.547  11.130  21.430  0.00  0.00    +0.000 OA
BRANCH  19  21
ATOM     21  C   UNL     1      -0.971  11.292  22.068  0.00  0.00    +0.000 A 
ATOM     22  C   UNL     1      -1.435  11.737  20.824  0.00  0.00    +0.000 A 
ATOM     23  C   UNL     1      -2.491  12.632  20.787  0.00  0.00    +0.000 A 
ATOM     24  C   UNL     1      -3.164  12.960  21.961  0.00  0.00    +0.000 A 
ATOM     25  C   UNL     1      -4.212  13.856  21.902  0.00  0.00    +0.000 A 
ATOM     26  C   UNL     1      -5.320  13.587  22.684  0.00  0.00    +0.000 A 
ATOM     27  C   UNL     1      -5.136  12.869  23.853  0.00  0.00    +0.000 A 
ATOM     28  C   UNL     1      -3.874  12.348  24.167  0.00  0.00    +0.000 A 
ATOM     29  C   UNL     1      -2.882  12.293  23.171  0.00  0.00    +0.000 A 
ATOM     30  C   UNL     1      -1.694  11.540  23.240  0.00  0.00    +0.000 A 
ENDBRANCH  19  21
ENDBRANCH   1  19
TORSDOF 5
ENDMDL
MODEL 8
REMARK VINA RESULT:      -8.0      1.811      9.102
REMARK  Name = 
REMARK  5 active torsions:
REMARK  status: ('A' for Active; 'I' for Inactive)
REMARK    1  A    between atoms: S_2  and  N_4
REMARK    2  A    between atoms: S_2  and  C_20
REMARK    3  A    between atoms: N_4  and  C_5
REMARK    4  A    between atoms: C_9  and  S_10
REMARK    5  A    between atoms: S_10  and  N_13
REMARK                            x       y       z     vdW  Elec       q    Type
REMARK                         _______ _______ _______ _____ _____    ______ ____
ROOT
ATOM      1  N   UNL     1       1.680   8.602  21.702  0.00  0.00    +0.000 N 
ATOM      2  H   UNL     1       2.088   8.018  22.421  0.00  0.00    +0.000 HD
ENDROOT
BRANCH   1   3
ATOM      3  C   UNL     1       1.813   8.138  20.365  0.00  0.00    +0.000 A 
ATOM      4  C   UNL     1       1.563   8.992  19.305  0.00  0.00    +0.000 A 
ATOM      5  C   UNL     1       1.796   8.532  17.978  0.00  0.00    +0.000 A 
ATOM      6  C   UNL     1       2.287   7.249  17.763  0.00  0.00    +0.000 A 
ATOM      7  C   UNL     1       2.567   6.407  18.860  0.00  0.00    +0.000 A 
ATOM      8  C   UNL     1       2.300   6.842  20.151  0.00  0.00    +0.000 A 
BRANCH   7   9
ATOM      9  S   UNL     1       3.217   4.768  18.584  0.00  0.00    +0.000 S 
ATOM     10  O   UNL     1       3.291   4.128  19.874  0.00  0.00    +0.000 OA
ATOM     11  O   UNL     1       2.455   4.188  17.504  0.00  0.00    +0.000 OA
BRANCH   9  12
ATOM     12  N   UNL     1       4.821   5.049  18.022  0.00  0.00    +0.000 NA
ATOM     13  C   UNL     1       5.811   5.302  19.100  0.00  0.00    +0.000 C 
ATOM     14  C   UNL     1       7.210   5.579  18.566  0.00  0.00    +0.000 C 
ATOM     15  C   UNL     1       7.649   4.507  17.583  0.00  0.00    +0.000 C 
ATOM     16  C   UNL     1       6.665   4.471  16.426  0.00  0.00    +0.000 C 
ATOM     17  C   UNL     1       5.255   4.160  16.911  0.00  0.00    +0.000 C 
ENDBRANCH   9  12
ENDBRANCH   7   9
ENDBRANCH   1   3
BRANCH   1  19
ATOM     18  O   UNL     1      -0.823   8.209  21.731  0.00  0.00    +0.000 OA
ATOM     19  S   UNL     1       0.135   9.174  22.194  0.00  0.00    +0.000 S 
ATOM     20  O   UNL     1       0.204   9.628  23.560  0.00  0.00    +0.000 OA
BRANCH  19  21
ATOM     21  C   UNL     1      -0.026  10.624  21.167  0.00  0.00    +0.000 A 
ATOM     22  C   UNL     1      -1.111  10.658  20.282  0.00  0.00    +0.000 A 
ATOM     23  C   UNL     1      -1.174  11.674  19.343  0.00  0.00    +0.000 A 
ATOM     24  C   UNL     1      -0.250  12.714  19.383  0.00  0.00    +0.000 A 
ATOM     25  C   UNL     1      -0.329  13.715  18.435  0.00  0.00    +0.000 A 
ATOM     26  C   UNL     1      -0.102  15.010  18.861  0.00  0.00    +0.000 A 
ATOM     27  C   UNL     1       0.730  15.203  19.950  0.00  0.00    +0.000 A 
ATOM     28  C   UNL     1       1.235  14.101  20.653  0.00  0.00    +0.000 A 
ATOM     29  C   UNL     1       0.667  12.830  20.447  0.00  0.00    +0.000 A 
ATOM     30  C   UNL     1       0.852  11.707  21.277  0.00  0.00    +0.000 A 
ENDBRANCH  19  21
ENDBRANCH   1  19
TORSDOF 5
ENDMDL
MODEL 9
REMARK VINA RESULT:      -8.0      2.227      3.250
REMARK  Name = 
REMARK  5 active torsions:
REMARK  status: ('A' for Active; 'I' for Inactive)
REMARK    1  A    between atoms: S_2  and  N_4
REMARK    2  A    between atoms: S_2  and  C_20
REMARK    3  A    between atoms: N_4  and  C_5
REMARK    4  A    between atoms: C_9  and  S_10
REMARK    5  A    between atoms: S_10  and  N_13
REMARK                            x       y       z     vdW  Elec       q    Type
REMARK                         _______ _______ _______ _____ _____    ______ ____
ROOT
ATOM      1  N   UNL     1       2.348   6.534  20.948  0.00  0.00    +0.000 N 
ATOM      2  H   UNL     1       3.270   6.590  21.363  0.00  0.00    +0.000 HD
ENDROOT
BRANCH   1   3
ATOM      3  C   UNL     1       2.017   7.556  20.016  0.00  0.00    +0.000 A 
ATOM      4  C   UNL     1       2.487   7.489  18.717  0.00  0.00    +0.000 A 
ATOM      5  C   UNL     1       2.062   8.473  17.779  0.00  0.00    +0.000 A 
ATOM      6  C   UNL     1       1.173   9.468  18.168  0.00  0.00    +0.000 A 
ATOM      7  C   UNL     1       0.681   9.496  19.490  0.00  0.00    +0.000 A 
ATOM      8  C   UNL     1       1.127   8.562  20.415  0.00  0.00    +0.000 A 
BRANCH   7   9
ATOM      9  S   UNL     1      -0.478  10.762  19.984  0.00  0.00    +0.000 S 
ATOM     10  O   UNL     1      -1.608  10.659  19.093  0.00  0.00    +0.000 OA
ATOM     11  O   UNL     1      -0.640  10.651  21.413  0.00  0.00    +0.000 OA
BRANCH   9  12
ATOM     12  N   UNL     1       0.350  12.234  19.646  0.00  0.00    +0.000 NA
ATOM     13  C   UNL     1      -0.523  13.326  19.147  0.00  0.00    +0.000 C 
ATOM     14  C   UNL     1       0.247  14.601  18.828  0.00  0.00    +0.000 C 
ATOM     15  C   UNL     1       1.132  15.019  19.990  0.00  0.00    +0.000 C 
ATOM     16  C   UNL     1       2.112  13.898  20.288  0.00  0.00    +0.000 C 
ATOM     17  C   UNL     1       1.384  12.609  20.649  0.00  0.00    +0.000 C 
ENDBRANCH   9  12
ENDBRANCH   7   9
ENDBRANCH   1   3
BRANCH   1  19
ATOM     18  O   UNL     1       2.399   4.089  21.613  0.00  0.00    +0.000 OA
ATOM     19  S   UNL     1       1.978   4.912  20.513  0.00  0.00    +0.000 S 
ATOM     20  O   UNL     1       0.655   4.858  19.945  0.00  0.00    +0.000 OA
BRANCH  19  21
ATOM     21  C   UNL     1       3.133   4.654  19.179  0.00  0.00    +0.000 A 
ATOM     22  C   UNL     1       2.601   4.254  17.947  0.00  0.00    +0.000 A 
ATOM     23  C   UNL     1       3.469   3.867  16.940  0.00  0.00    +0.000 A 
ATOM     24  C   UNL     1       4.842   4.017  17.111  0.00  0.00    +0.000 A 
ATOM     25  C   UNL     1       5.690   3.622  16.095  0.00  0.00    +0.000 A 
ATOM     26  C   UNL     1       6.782   4.429  15.832  0.00  0.00    +0.000 A 
ATOM     27  C   UNL     1       7.307   5.177  16.871  0.00  0.00    +0.000 A 
ATOM     28  C   UNL     1       6.676   5.184  18.122  0.00  0.00    +0.000 A 
ATOM     29  C   UNL     1       5.365   4.685  18.238  0.00  0.00    +0.000 A 
ATOM     30  C   UNL     1       4.502   4.896  19.331  0.00  0.00    +0.000 A 
ENDBRANCH  19  21
ENDBRANCH   1  19
TORSDOF 5
ENDMDL
