MODEL 1
REMARK VINA RESULT:      -8.2      0.000      0.000
REMARK  Name = 
REMARK  4 active torsions:
REMARK  status: ('A' for Active; 'I' for Inactive)
REMARK    1  A    between atoms: C_2  and  C_16
REMARK    2  A    between atoms: N_3  and  C_4
REMARK    3  A    between atoms: C_4  and  C_5
REMARK    4  A    between atoms: C_5  and  C_6
REMARK                            x       y       z     vdW  Elec       q    Type
REMARK                         _______ _______ _______ _____ _____    ______ ____
ROOT
ATOM      1  O   UNL     1       4.768   3.940  15.982  0.00  0.00    +0.000 OA
ATOM      2  C   UNL     1       5.165   3.927  17.142  0.00  0.00    +0.000 C 
ATOM      3  N   UNL     1       4.716   3.023  18.084  0.00  0.00    +0.000 N 
ATOM      4  H   UNL     1       4.853   3.231  19.067  0.00  0.00    +0.000 HD
ENDROOT
BRANCH   2   5
ATOM      5  C   UNL     1       6.156   4.940  17.589  0.00  0.00    +0.000 A 
ATOM      6  C   UNL     1       6.951   4.627  18.705  0.00  0.00    +0.000 A 
ATOM      7  C   UNL     1       7.852   5.549  19.250  0.00  0.00    +0.000 A 
ATOM      8  C   UNL     1       7.899   6.796  18.632  0.00  0.00    +0.000 A 
ATOM      9  N   UNL     1       8.603   7.941  18.885  0.00  0.00    +0.000 N 
ATOM     10  N   UNL     1       8.303   8.916  18.012  0.00  0.00    +0.000 NA
ATOM     11  N   UNL     1       7.398   8.432  17.169  0.00  0.00    +0.000 NA
ATOM     12  C   UNL     1       7.130   7.136  17.526  0.00  0.00    +0.000 A 
ATOM     13  C   UNL     1       6.243   6.199  16.975  0.00  0.00    +0.000 A 
ATOM     14  H   UNL     1       9.272   8.133  19.621  0.00  0.00    +0.000 HD
ENDBRANCH   2   5
BRANCH   3  15
ATOM     15  C   UNL     1       3.666   2.086  17.719  0.00  0.00    +0.000 C 
BRANCH  15  16
ATOM     16  C   UNL     1       2.263   2.697  17.714  0.00  0.00    +0.000 C 
BRANCH  16  17
ATOM     17  C   UNL     1       1.977   3.524  18.933  0.00  0.00    +0.000 A 
ATOM     18  C   UNL     1       1.565   3.057  20.166  0.00  0.00    +0.000 A 
ATOM     19  N   UNL     1       1.376   4.130  20.995  0.00  0.00    +0.000 N 
ATOM     20  C   UNL     1       1.662   5.298  20.329  0.00  0.00    +0.000 A 
ATOM     21  C   UNL     1       1.594   6.626  20.767  0.00  0.00    +0.000 A 
ATOM     22  C   UNL     1       1.961   7.615  19.855  0.00  0.00    +0.000 A 
ATOM     23  F   UNL     1       1.902   8.900  20.234  0.00  0.00    +0.000 F 
ATOM     24  C   UNL     1       2.384   7.309  18.570  0.00  0.00    +0.000 A 
ATOM     25  C   UNL     1       2.442   5.978  18.147  0.00  0.00    +0.000 A 
ATOM     26  C   UNL     1       2.066   4.949  19.039  0.00  0.00    +0.000 A 
ATOM     27  H   UNL     1       1.064   4.077  21.955  0.00  0.00    +0.000 HD
ENDBRANCH  16  17
ENDBRANCH  15  16
ENDBRANCH   3  15
TORSDOF 4
ENDMDL
MODEL 2
REMARK VINA RESULT:      -7.9      4.724      6.471
REMARK  Name = 
REMARK  4 active torsions:
REMARK  status: ('A' for Active; 'I' for Inactive)
REMARK    1  A    between atoms: C_2  and  C_16
REMARK    2  A    between atoms: N_3  and  C_4
REMARK    3  A    between atoms: C_4  and  C_5
REMARK    4  A    between atoms: C_5  and  C_6
REMARK                            x       y       z     vdW  Elec       q    Type
REMARK                         _______ _______ _______ _____ _____    ______ ____
ROOT
ATOM      1  O   UNL     1       9.372   9.947  19.757  0.00  0.00    +0.000 OA
ATOM      2  C   UNL     1       9.103  10.295  18.613  0.00  0.00    +0.000 C 
ATOM      3  N   UNL     1       8.443   9.483  17.712  0.00  0.00    +0.000 N 
ATOM      4  H   UNL     1       8.501   9.699  16.723  0.00  0.00    +0.000 HD
ENDROOT
BRANCH   2   5
ATOM      5  C   UNL     1       9.520  11.640  18.138  0.00  0.00    +0.000 A 
ATOM      6  C   UNL     1      10.822  11.775  17.625  0.00  0.00    +0.000 A 
ATOM      7  C   UNL     1      11.334  13.016  17.231  0.00  0.00    +0.000 A 
ATOM      8  C   UNL     1      10.484  14.107  17.397  0.00  0.00    +0.000 A 
ATOM      9  N   UNL     1      10.627  15.449  17.171  0.00  0.00    +0.000 N 
ATOM     10  N   UNL     1       9.520  16.133  17.500  0.00  0.00    +0.000 NA
ATOM     11  N   UNL     1       8.628  15.256  17.948  0.00  0.00    +0.000 NA
ATOM     12  C   UNL     1       9.192  14.008  17.898  0.00  0.00    +0.000 A 
ATOM     13  C   UNL     1       8.681  12.757  18.272  0.00  0.00    +0.000 A 
ATOM     14  H   UNL     1      11.429  15.958  16.820  0.00  0.00    +0.000 HD
ENDBRANCH   2   5
BRANCH   3  15
ATOM     15  C   UNL     1       8.114   8.120  18.099  0.00  0.00    +0.000 C 
BRANCH  15  16
ATOM     16  C   UNL     1       7.012   7.484  17.249  0.00  0.00    +0.000 C 
BRANCH  16  17
ATOM     17  C   UNL     1       6.516   6.183  17.809  0.00  0.00    +0.000 A 
ATOM     18  C   UNL     1       7.289   5.116  18.224  0.00  0.00    +0.000 A 
ATOM     19  N   UNL     1       6.457   4.109  18.630  0.00  0.00    +0.000 N 
ATOM     20  C   UNL     1       5.144   4.496  18.492  0.00  0.00    +0.000 A 
ATOM     21  C   UNL     1       3.964   3.794  18.763  0.00  0.00    +0.000 A 
ATOM     22  C   UNL     1       2.761   4.459  18.531  0.00  0.00    +0.000 A 
ATOM     23  F   UNL     1       1.608   3.818  18.770  0.00  0.00    +0.000 F 
ATOM     24  C   UNL     1       2.723   5.764  18.059  0.00  0.00    +0.000 A 
ATOM     25  C   UNL     1       3.911   6.449  17.790  0.00  0.00    +0.000 A 
ATOM     26  C   UNL     1       5.149   5.802  18.002  0.00  0.00    +0.000 A 
ATOM     27  H   UNL     1       6.757   3.207  18.974  0.00  0.00    +0.000 HD
ENDBRANCH  16  17
ENDBRANCH  15  16
ENDBRANCH   3  15
TORSDOF 4
ENDMDL
MODEL 3
REMARK VINA RESULT:      -7.9      2.992      5.498
REMARK  Name = 
REMARK  4 active torsions:
REMARK  status: ('A' for Active; 'I' for Inactive)
REMARK    1  A    between atoms: C_2  and  C_16
REMARK    2  A    between atoms: N_3  and  C_4
REMARK    3  A    between atoms: C_4  and  C_5
REMARK    4  A    between atoms: C_5  and  C_6
REMARK                            x       y       z     vdW  Elec       q    Type
REMARK                         _______ _______ _______ _____ _____    ______ ____
ROOT
ATOM      1  O   UNL     1       2.831   4.163  19.956  0.00  0.00    +0.000 OA
ATOM      2  C   UNL     1       2.562   4.886  19.004  0.00  0.00    +0.000 C 
ATOM      3  N   UNL     1       2.544   4.440  17.698  0.00  0.00    +0.000 N 
ATOM      4  H   UNL     1       2.600   5.119  16.946  0.00  0.00    +0.000 HD
ENDROOT
BRANCH   2   5
ATOM      5  C   UNL     1       2.264   6.324  19.236  0.00  0.00    +0.000 A 
ATOM      6  C   UNL     1       1.760   6.690  20.496  0.00  0.00    +0.000 A 
ATOM      7  C   UNL     1       1.373   8.004  20.781  0.00  0.00    +0.000 A 
ATOM      8  C   UNL     1       1.498   8.918  19.737  0.00  0.00    +0.000 A 
ATOM      9  N   UNL     1       1.200  10.247  19.615  0.00  0.00    +0.000 N 
ATOM     10  N   UNL     1       1.484  10.713  18.389  0.00  0.00    +0.000 NA
ATOM     11  N   UNL     1       1.976   9.702  17.682  0.00  0.00    +0.000 NA
ATOM     12  C   UNL     1       1.994   8.589  18.482  0.00  0.00    +0.000 A 
ATOM     13  C   UNL     1       2.398   7.274  18.211  0.00  0.00    +0.000 A 
ATOM     14  H   UNL     1       0.796  10.879  20.297  0.00  0.00    +0.000 HD
ENDBRANCH   2   5
BRANCH   3  15
ATOM     15  C   UNL     1       2.937   3.069  17.414  0.00  0.00    +0.000 C 
BRANCH  15  16
ATOM     16  C   UNL     1       4.446   2.876  17.254  0.00  0.00    +0.000 C 
BRANCH  16  17
ATOM     17  C   UNL     1       5.147   4.109  16.765  0.00  0.00    +0.000 A 
ATOM     18  C   UNL     1       5.077   4.648  15.495  0.00  0.00    +0.000 A 
ATOM     19  N   UNL     1       5.891   5.746  15.444  0.00  0.00    +0.000 N 
ATOM     20  C   UNL     1       6.496   5.944  16.663  0.00  0.00    +0.000 A 
ATOM     21  C   UNL     1       7.411   6.923  17.067  0.00  0.00    +0.000 A 
ATOM     22  C   UNL     1       7.849   6.875  18.390  0.00  0.00    +0.000 A 
ATOM     23  F   UNL     1       8.732   7.790  18.814  0.00  0.00    +0.000 F 
ATOM     24  C   UNL     1       7.398   5.910  19.279  0.00  0.00    +0.000 A 
ATOM     25  C   UNL     1       6.486   4.937  18.857  0.00  0.00    +0.000 A 
ATOM     26  C   UNL     1       6.030   4.947  17.521  0.00  0.00    +0.000 A 
ATOM     27  H   UNL     1       6.037   6.327  14.629  0.00  0.00    +0.000 HD
ENDBRANCH  16  17
ENDBRANCH  15  16
ENDBRANCH   3  15
TORSDOF 4
ENDMDL
MODEL 4
REMARK VINA RESULT:      -7.8      3.143      5.885
REMARK  Name = 
REMARK  4 active torsions:
REMARK  status: ('A' for Active; 'I' for Inactive)
REMARK    1  A    between atoms: C_2  and  C_16
REMARK    2  A    between atoms: N_3  and  C_4
REMARK    3  A    between atoms: C_4  and  C_5
REMARK    4  A    between atoms: C_5  and  C_6
REMARK                            x       y       z     vdW  Elec       q    Type
REMARK                         _______ _______ _______ _____ _____    ______ ____
ROOT
ATOM      1  O   UNL     1       3.734   5.375  20.078  0.00  0.00    +0.000 OA
ATOM      2  C   UNL     1       3.002   5.671  19.140  0.00  0.00    +0.000 C 
ATOM      3  N   UNL     1       2.743   4.819  18.086  0.00  0.00    +0.000 N 
ATOM      4  H   UNL     1       2.378   5.204  17.222  0.00  0.00    +0.000 HD
ENDROOT
BRANCH   2   5
ATOM      5  C   UNL     1       2.372   7.017  19.098  0.00  0.00    +0.000 A 
ATOM      6  C   UNL     1       2.466   7.743  17.898  0.00  0.00    +0.000 A 
ATOM      7  C   UNL     1       1.978   9.050  17.788  0.00  0.00    +0.000 A 
ATOM      8  C   UNL     1       1.414   9.590  18.941  0.00  0.00    +0.000 A 
ATOM      9  N   UNL     1       0.876  10.813  19.236  0.00  0.00    +0.000 N 
ATOM     10  N   UNL     1       0.462  10.883  20.511  0.00  0.00    +0.000 NA
ATOM     11  N   UNL     1       0.719   9.710  21.079  0.00  0.00    +0.000 NA
ATOM     12  C   UNL     1       1.304   8.899  20.141  0.00  0.00    +0.000 A 
ATOM     13  C   UNL     1       1.778   7.583  20.237  0.00  0.00    +0.000 A 
ATOM     14  H   UNL     1       0.775  11.629  18.644  0.00  0.00    +0.000 HD
ENDBRANCH   2   5
BRANCH   3  15
ATOM     15  C   UNL     1       3.425   3.535  18.031  0.00  0.00    +0.000 C 
BRANCH  15  16
ATOM     16  C   UNL     1       4.501   3.451  16.946  0.00  0.00    +0.000 C 
BRANCH  16  17
ATOM     17  C   UNL     1       5.156   4.770  16.663  0.00  0.00    +0.000 A 
ATOM     18  C   UNL     1       4.941   5.576  15.561  0.00  0.00    +0.000 A 
ATOM     19  N   UNL     1       5.758   6.669  15.658  0.00  0.00    +0.000 N 
ATOM     20  C   UNL     1       6.507   6.601  16.810  0.00  0.00    +0.000 A 
ATOM     21  C   UNL     1       7.477   7.477  17.309  0.00  0.00    +0.000 A 
ATOM     22  C   UNL     1       8.068   7.143  18.527  0.00  0.00    +0.000 A 
ATOM     23  F   UNL     1       9.008   7.953  19.035  0.00  0.00    +0.000 F 
ATOM     24  C   UNL     1       7.713   5.999  19.227  0.00  0.00    +0.000 A 
ATOM     25  C   UNL     1       6.745   5.132  18.711  0.00  0.00    +0.000 A 
ATOM     26  C   UNL     1       6.133   5.431  17.474  0.00  0.00    +0.000 A 
ATOM     27  H   UNL     1       5.814   7.418  14.981  0.00  0.00    +0.000 HD
ENDBRANCH  16  17
ENDBRANCH  15  16
ENDBRANCH   3  15
TORSDOF 4
ENDMDL
MODEL 5
REMARK VINA RESULT:      -7.8      3.401      5.215
REMARK  Name = 
REMARK  4 active torsions:
REMARK  status: ('A' for Active; 'I' for Inactive)
REMARK    1  A    between atoms: C_2  and  C_16
REMARK    2  A    between atoms: N_3  and  C_4
REMARK    3  A    between atoms: C_4  and  C_5
REMARK    4  A    between atoms: C_5  and  C_6
REMARK                            x       y       z     vdW  Elec       q    Type
REMARK                         _______ _______ _______ _____ _____    ______ ____
ROOT
ATOM      1  O   UNL     1       7.496   8.052  16.992  0.00  0.00    +0.000 OA
ATOM      2  C   UNL     1       8.101   8.242  18.041  0.00  0.00    +0.000 C 
ATOM      3  N   UNL     1       8.388   7.236  18.941  0.00  0.00    +0.000 N 
ATOM      4  H   UNL     1       8.625   7.485  19.896  0.00  0.00    +0.000 HD
ENDROOT
BRANCH   2   5
ATOM      5  C   UNL     1       8.534   9.619  18.397  0.00  0.00    +0.000 A 
ATOM      6  C   UNL     1       8.203  10.657  17.510  0.00  0.00    +0.000 A 
ATOM      7  C   UNL     1       8.638  11.971  17.718  0.00  0.00    +0.000 A 
ATOM      8  C   UNL     1       9.432  12.181  18.842  0.00  0.00    +0.000 A 
ATOM      9  N   UNL     1      10.062  13.283  19.352  0.00  0.00    +0.000 N 
ATOM     10  N   UNL     1      10.742  12.997  20.473  0.00  0.00    +0.000 NA
ATOM     11  N   UNL     1      10.573  11.704  20.724  0.00  0.00    +0.000 NA
ATOM     12  C   UNL     1       9.776  11.178  19.740  0.00  0.00    +0.000 A 
ATOM     13  C   UNL     1       9.320   9.867  19.534  0.00  0.00    +0.000 A 
ATOM     14  H   UNL     1      10.087  14.230  18.993  0.00  0.00    +0.000 HD
ENDBRANCH   2   5
BRANCH   3  15
ATOM     15  C   UNL     1       7.887   5.895  18.686  0.00  0.00    +0.000 C 
BRANCH  15  16
ATOM     16  C   UNL     1       6.487   5.639  19.247  0.00  0.00    +0.000 C 
BRANCH  16  17
ATOM     17  C   UNL     1       5.590   4.916  18.285  0.00  0.00    +0.000 A 
ATOM     18  C   UNL     1       5.846   4.667  16.950  0.00  0.00    +0.000 A 
ATOM     19  N   UNL     1       4.765   4.020  16.415  0.00  0.00    +0.000 N 
ATOM     20  C   UNL     1       3.801   3.834  17.378  0.00  0.00    +0.000 A 
ATOM     21  C   UNL     1       2.536   3.241  17.285  0.00  0.00    +0.000 A 
ATOM     22  C   UNL     1       1.774   3.187  18.451  0.00  0.00    +0.000 A 
ATOM     23  F   UNL     1       0.553   2.634  18.402  0.00  0.00    +0.000 F 
ATOM     24  C   UNL     1       2.239   3.687  19.658  0.00  0.00    +0.000 A 
ATOM     25  C   UNL     1       3.504   4.280  19.732  0.00  0.00    +0.000 A 
ATOM     26  C   UNL     1       4.300   4.364  18.568  0.00  0.00    +0.000 A 
ATOM     27  H   UNL     1       4.680   3.726  15.451  0.00  0.00    +0.000 HD
ENDBRANCH  16  17
ENDBRANCH  15  16
ENDBRANCH   3  15
TORSDOF 4
ENDMDL
MODEL 6
REMARK VINA RESULT:      -7.7      4.755      6.052
REMARK  Name = 
REMARK  4 active torsions:
REMARK  status: ('A' for Active; 'I' for Inactive)
REMARK    1  A    between atoms: C_2  and  C_16
REMARK    2  A    between atoms: N_3  and  C_4
REMARK    3  A    between atoms: C_4  and  C_5
REMARK    4  A    between atoms: C_5  and  C_6
REMARK                            x       y       z     vdW  Elec       q    Type
REMARK                         _______ _______ _______ _____ _____    ______ ____
ROOT
ATOM      1  O   UNL     1       2.203   6.481  19.397  0.00  0.00    +0.000 OA
ATOM      2  C   UNL     1       2.856   6.945  18.469  0.00  0.00    +0.000 C 
ATOM      3  N   UNL     1       2.712   8.241  18.017  0.00  0.00    +0.000 N 
ATOM      4  H   UNL     1       3.054   8.479  17.092  0.00  0.00    +0.000 HD
ENDROOT
BRANCH   2   5
ATOM      5  C   UNL     1       3.837   6.082  17.760  0.00  0.00    +0.000 A 
ATOM      6  C   UNL     1       3.575   4.702  17.711  0.00  0.00    +0.000 A 
ATOM      7  C   UNL     1       4.480   3.799  17.140  0.00  0.00    +0.000 A 
ATOM      8  C   UNL     1       5.659   4.350  16.643  0.00  0.00    +0.000 A 
ATOM      9  N   UNL     1       6.772   3.809  16.061  0.00  0.00    +0.000 N 
ATOM     10  N   UNL     1       7.681   4.747  15.751  0.00  0.00    +0.000 NA
ATOM     11  N   UNL     1       7.184   5.921  16.122  0.00  0.00    +0.000 NA
ATOM     12  C   UNL     1       5.947   5.708  16.673  0.00  0.00    +0.000 A 
ATOM     13  C   UNL     1       5.026   6.607  17.231  0.00  0.00    +0.000 A 
ATOM     14  H   UNL     1       6.985   2.838  15.863  0.00  0.00    +0.000 HD
ENDBRANCH   2   5
BRANCH   3  15
ATOM     15  C   UNL     1       1.687   9.086  18.608  0.00  0.00    +0.000 C 
BRANCH  15  16
ATOM     16  C   UNL     1       0.560   9.460  17.644  0.00  0.00    +0.000 C 
BRANCH  16  17
ATOM     17  C   UNL     1      -0.515  10.286  18.287  0.00  0.00    +0.000 A 
ATOM     18  C   UNL     1      -0.460  10.885  19.531  0.00  0.00    +0.000 A 
ATOM     19  N   UNL     1      -1.654  11.511  19.765  0.00  0.00    +0.000 N 
ATOM     20  C   UNL     1      -2.497  11.338  18.692  0.00  0.00    +0.000 A 
ATOM     21  C   UNL     1      -3.810  11.780  18.496  0.00  0.00    +0.000 A 
ATOM     22  C   UNL     1      -4.416  11.455  17.283  0.00  0.00    +0.000 A 
ATOM     23  F   UNL     1      -5.676  11.853  17.060  0.00  0.00    +0.000 F 
ATOM     24  C   UNL     1      -3.753  10.731  16.302  0.00  0.00    +0.000 A 
ATOM     25  C   UNL     1      -2.443  10.293  16.516  0.00  0.00    +0.000 A 
ATOM     26  C   UNL     1      -1.801  10.593  17.738  0.00  0.00    +0.000 A 
ATOM     27  H   UNL     1      -1.891  12.021  20.605  0.00  0.00    +0.000 HD
ENDBRANCH  16  17
ENDBRANCH  15  16
ENDBRANCH   3  15
TORSDOF 4
ENDMDL
MODEL 7
REMARK VINA RESULT:      -7.7      5.858      8.840
REMARK  Name = 
REMARK  4 active torsions:
REMARK  status: ('A' for Active; 'I' for Inactive)
REMARK    1  A    between atoms: C_2  and  C_16
REMARK    2  A    between atoms: N_3  and  C_4
REMARK    3  A    between atoms: C_4  and  C_5
REMARK    4  A    between atoms: C_5  and  C_6
REMARK                            x       y       z     vdW  Elec       q    Type
REMARK                         _______ _______ _______ _____ _____    ______ ____
ROOT
ATOM      1  O   UNL     1      -0.048  10.204  19.677  0.00  0.00    +0.000 OA
ATOM      2  C   UNL     1      -0.320  10.039  18.494  0.00  0.00    +0.000 C 
ATOM      3  N   UNL     1       0.593   9.587  17.563  0.00  0.00    +0.000 N 
ATOM      4  H   UNL     1       0.408   9.741  16.578  0.00  0.00    +0.000 HD
ENDROOT
BRANCH   2   5
ATOM      5  C   UNL     1      -1.686  10.363  18.005  0.00  0.00    +0.000 A 
ATOM      6  C   UNL     1      -2.050   9.898  16.729  0.00  0.00    +0.000 A 
ATOM      7  C   UNL     1      -3.281  10.221  16.149  0.00  0.00    +0.000 A 
ATOM      8  C   UNL     1      -4.113  11.045  16.904  0.00  0.00    +0.000 A 
ATOM      9  N   UNL     1      -5.344  11.597  16.674  0.00  0.00    +0.000 N 
ATOM     10  N   UNL     1      -5.754  12.352  17.705  0.00  0.00    +0.000 NA
ATOM     11  N   UNL     1      -4.804  12.312  18.632  0.00  0.00    +0.000 NA
ATOM     12  C   UNL     1      -3.786  11.520  18.167  0.00  0.00    +0.000 A 
ATOM     13  C   UNL     1      -2.557  11.175  18.748  0.00  0.00    +0.000 A 
ATOM     14  H   UNL     1      -5.939  11.520  15.857  0.00  0.00    +0.000 HD
ENDBRANCH   2   5
BRANCH   3  15
ATOM     15  C   UNL     1       1.970   9.364  17.976  0.00  0.00    +0.000 C 
BRANCH  15  16
ATOM     16  C   UNL     1       2.168   8.105  18.822  0.00  0.00    +0.000 C 
BRANCH  16  17
ATOM     17  C   UNL     1       2.996   7.060  18.136  0.00  0.00    +0.000 A 
ATOM     18  C   UNL     1       4.115   7.277  17.354  0.00  0.00    +0.000 A 
ATOM     19  N   UNL     1       4.555   6.071  16.882  0.00  0.00    +0.000 N 
ATOM     20  C   UNL     1       3.746   5.058  17.343  0.00  0.00    +0.000 A 
ATOM     21  C   UNL     1       3.803   3.680  17.106  0.00  0.00    +0.000 A 
ATOM     22  C   UNL     1       2.838   2.889  17.727  0.00  0.00    +0.000 A 
ATOM     23  F   UNL     1       2.853   1.565  17.519  0.00  0.00    +0.000 F 
ATOM     24  C   UNL     1       1.863   3.431  18.552  0.00  0.00    +0.000 A 
ATOM     25  C   UNL     1       1.819   4.811  18.775  0.00  0.00    +0.000 A 
ATOM     26  C   UNL     1       2.773   5.645  18.152  0.00  0.00    +0.000 A 
ATOM     27  H   UNL     1       5.354   5.938  16.276  0.00  0.00    +0.000 HD
ENDBRANCH  16  17
ENDBRANCH  15  16
ENDBRANCH   3  15
TORSDOF 4
ENDMDL
MODEL 8
REMARK VINA RESULT:      -7.6      5.455      7.392
REMARK  Name = 
REMARK  4 active torsions:
REMARK  status: ('A' for Active; 'I' for Inactive)
REMARK    1  A    between atoms: C_2  and  C_16
REMARK    2  A    between atoms: N_3  and  C_4
REMARK    3  A    between atoms: C_4  and  C_5
REMARK    4  A    between atoms: C_5  and  C_6
REMARK                            x       y       z     vdW  Elec       q    Type
REMARK                         _______ _______ _______ _____ _____    ______ ____
ROOT
ATOM      1  O   UNL     1       9.193  11.373  19.969  0.00  0.00    +0.000 OA
ATOM      2  C   UNL     1       9.378  11.380  18.757  0.00  0.00    +0.000 C 
ATOM      3  N   UNL     1       9.072  10.312  17.939  0.00  0.00    +0.000 N 
ATOM      4  H   UNL     1       9.498  10.259  17.021  0.00  0.00    +0.000 HD
ENDROOT
BRANCH   2   5
ATOM      5  C   UNL     1       9.986  12.576  18.116  0.00  0.00    +0.000 A 
ATOM      6  C   UNL     1      11.193  12.399  17.419  0.00  0.00    +0.000 A 
ATOM      7  C   UNL     1      11.883  13.478  16.855  0.00  0.00    +0.000 A 
ATOM      8  C   UNL     1      11.311  14.734  17.042  0.00  0.00    +0.000 A 
ATOM      9  N   UNL     1      11.691  15.998  16.685  0.00  0.00    +0.000 N 
ATOM     10  N   UNL     1      10.811  16.922  17.104  0.00  0.00    +0.000 NA
ATOM     11  N   UNL     1       9.838  16.284  17.744  0.00  0.00    +0.000 NA
ATOM     12  C   UNL     1      10.119  14.943  17.723  0.00  0.00    +0.000 A 
ATOM     13  C   UNL     1       9.424  13.853  18.269  0.00  0.00    +0.000 A 
ATOM     14  H   UNL     1      12.518  16.303  16.185  0.00  0.00    +0.000 HD
ENDBRANCH   2   5
BRANCH   3  15
ATOM     15  C   UNL     1       8.579   9.082  18.539  0.00  0.00    +0.000 C 
BRANCH  15  16
ATOM     16  C   UNL     1       7.878   8.148  17.550  0.00  0.00    +0.000 C 
BRANCH  16  17
ATOM     17  C   UNL     1       7.380   6.884  18.187  0.00  0.00    +0.000 A 
ATOM     18  C   UNL     1       8.047   6.114  19.121  0.00  0.00    +0.000 A 
ATOM     19  N   UNL     1       7.273   5.026  19.418  0.00  0.00    +0.000 N 
ATOM     20  C   UNL     1       6.102   5.068  18.698  0.00  0.00    +0.000 A 
ATOM     21  C   UNL     1       5.030   4.168  18.667  0.00  0.00    +0.000 A 
ATOM     22  C   UNL     1       3.958   4.485  17.834  0.00  0.00    +0.000 A 
ATOM     23  F   UNL     1       2.916   3.645  17.769  0.00  0.00    +0.000 F 
ATOM     24  C   UNL     1       3.939   5.644  17.071  0.00  0.00    +0.000 A 
ATOM     25  C   UNL     1       5.020   6.530  17.111  0.00  0.00    +0.000 A 
ATOM     26  C   UNL     1       6.129   6.235  17.934  0.00  0.00    +0.000 A 
ATOM     27  H   UNL     1       7.523   4.292  20.067  0.00  0.00    +0.000 HD
ENDBRANCH  16  17
ENDBRANCH  15  16
ENDBRANCH   3  15
TORSDOF 4
ENDMDL
MODEL 9
REMARK VINA RESULT:      -7.6      4.075      5.891
REMARK  Name = 
REMARK  4 active torsions:
REMARK  status: ('A' for Active; 'I' for Inactive)
REMARK    1  A    between atoms: C_2  and  C_16
REMARK    2  A    between atoms: N_3  and  C_4
REMARK    3  A    between atoms: C_4  and  C_5
REMARK    4  A    between atoms: C_5  and  C_6
REMARK                            x       y       z     vdW  Elec       q    Type
REMARK                         _______ _______ _______ _____ _____    ______ ____
ROOT
ATOM      1  O   UNL     1       9.012   8.617  19.206  0.00  0.00    +0.000 OA
ATOM      2  C   UNL     1       8.560   9.272  18.274  0.00  0.00    +0.000 C 
ATOM      3  N   UNL     1       7.628   8.777  17.385  0.00  0.00    +0.000 N 
ATOM      4  H   UNL     1       7.507   9.241  16.491  0.00  0.00    +0.000 HD
ENDROOT
BRANCH   2   5
ATOM      5  C   UNL     1       9.044  10.659  18.051  0.00  0.00    +0.000 A 
ATOM      6  C   UNL     1       8.081  11.658  17.828  0.00  0.00    +0.000 A 
ATOM      7  C   UNL     1       8.442  12.976  17.526  0.00  0.00    +0.000 A 
ATOM      8  C   UNL     1       9.809  13.231  17.441  0.00  0.00    +0.000 A 
ATOM      9  N   UNL     1      10.536  14.349  17.140  0.00  0.00    +0.000 N 
ATOM     10  N   UNL     1      11.857  14.109  17.167  0.00  0.00    +0.000 NA
ATOM     11  N   UNL     1      12.024  12.831  17.486  0.00  0.00    +0.000 NA
ATOM     12  C   UNL     1      10.786  12.267  17.658  0.00  0.00    +0.000 A 
ATOM     13  C   UNL     1      10.415  10.953  17.979  0.00  0.00    +0.000 A 
ATOM     14  H   UNL     1      10.213  15.278  16.898  0.00  0.00    +0.000 HD
ENDBRANCH   2   5
BRANCH   3  15
ATOM     15  C   UNL     1       7.209   7.389  17.500  0.00  0.00    +0.000 C 
BRANCH  15  16
ATOM     16  C   UNL     1       5.831   7.105  16.899  0.00  0.00    +0.000 C 
BRANCH  16  17
ATOM     17  C   UNL     1       5.456   5.653  16.947  0.00  0.00    +0.000 A 
ATOM     18  C   UNL     1       6.245   4.585  16.566  0.00  0.00    +0.000 A 
ATOM     19  N   UNL     1       5.524   3.434  16.727  0.00  0.00    +0.000 N 
ATOM     20  C   UNL     1       4.270   3.724  17.213  0.00  0.00    +0.000 A 
ATOM     21  C   UNL     1       3.199   2.875  17.511  0.00  0.00    +0.000 A 
ATOM     22  C   UNL     1       2.038   3.466  18.006  0.00  0.00    +0.000 A 
ATOM     23  F   UNL     1       0.986   2.687  18.295  0.00  0.00    +0.000 F 
ATOM     24  C   UNL     1       1.939   4.835  18.207  0.00  0.00    +0.000 A 
ATOM     25  C   UNL     1       3.018   5.671  17.900  0.00  0.00    +0.000 A 
ATOM     26  C   UNL     1       4.206   5.108  17.385  0.00  0.00    +0.000 A 
ATOM     27  H   UNL     1       5.856   2.503  16.514  0.00  0.00    +0.000 HD
ENDBRANCH  16  17
ENDBRANCH  15  16
ENDBRANCH   3  15
TORSDOF 4
ENDMDL
