MODEL 1
REMARK VINA RESULT:      -8.3      0.000      0.000
REMARK  Name = 
REMARK  7 active torsions:
REMARK  status: ('A' for Active; 'I' for Inactive)
REMARK    1  A    between atoms: C_1  and  C_2
REMARK    2  A    between atoms: C_2  and  C_3
REMARK    3  A    between atoms: C_5  and  N_6
REMARK    4  A    between atoms: C_7  and  C_9
REMARK    5  A    between atoms: C_9  and  C_10
REMARK    6  A    between atoms: C_13  and  S_14
REMARK    7  A    between atoms: S_14  and  N_15
REMARK                            x       y       z     vdW  Elec       q    Type
REMARK                         _______ _______ _______ _____ _____    ______ ____
ROOT
ATOM      1  N   UNL     1       4.333   4.224  16.753  0.00  0.00    +0.000 N 
ATOM      2  C   UNL     1       3.678   4.098  17.959  0.00  0.00    +0.000 C 
ATOM      3  O   UNL     1       4.209   3.652  18.973  0.00  0.00    +0.000 OA
ATOM      4  H   UNL     1       3.814   4.511  15.931  0.00  0.00    +0.000 HD
ENDROOT
BRANCH   1   9
ATOM      5  C   UNL     1       7.661   6.935  18.096  0.00  0.00    +0.000 C 
ATOM      6  C   UNL     1       6.793   6.184  17.074  0.00  0.00    +0.000 C 
ATOM      7  C   UNL     1       5.496   6.992  16.885  0.00  0.00    +0.000 C 
ATOM      8  C   UNL     1       6.602   4.750  17.582  0.00  0.00    +0.000 C 
ATOM      9  C   UNL     1       5.750   3.927  16.615  0.00  0.00    +0.000 C 
ATOM     10  C   UNL     1       6.225   4.172  15.201  0.00  0.00    +0.000 A 
ATOM     11  C   UNL     1       5.829   3.313  14.161  0.00  0.00    +0.000 A 
ATOM     12  C   UNL     1       6.294   3.518  12.861  0.00  0.00    +0.000 A 
ATOM     13  C   UNL     1       7.161   4.572  12.600  0.00  0.00    +0.000 A 
ATOM     14  F   UNL     1       7.613   4.760  11.354  0.00  0.00    +0.000 F 
ATOM     15  C   UNL     1       7.559   5.437  13.610  0.00  0.00    +0.000 A 
ATOM     16  C   UNL     1       7.080   5.248  14.905  0.00  0.00    +0.000 A 
ATOM     17  O   UNL     1       7.514   6.165  15.830  0.00  0.00    +0.000 OA
ENDBRANCH   1   9
BRANCH   2  18
ATOM     18  C   UNL     1       2.233   4.559  17.944  0.00  0.00    +0.000 C 
BRANCH  18  19
ATOM     19  C   UNL     1       2.027   5.753  18.838  0.00  0.00    +0.000 A 
ATOM     20  C   UNL     1       1.627   5.562  20.171  0.00  0.00    +0.000 A 
ATOM     21  C   UNL     1       1.370   6.652  20.992  0.00  0.00    +0.000 A 
ATOM     22  C   UNL     1       1.548   7.939  20.486  0.00  0.00    +0.000 A 
ATOM     23  C   UNL     1       1.969   8.150  19.171  0.00  0.00    +0.000 A 
ATOM     24  C   UNL     1       2.214   7.052  18.349  0.00  0.00    +0.000 A 
BRANCH  22  25
ATOM     25  S   UNL     1       1.279   9.320  21.550  0.00  0.00    +0.000 S 
ATOM     26  O   UNL     1       2.148   9.213  22.698  0.00  0.00    +0.000 OA
ATOM     27  O   UNL     1       1.172  10.521  20.760  0.00  0.00    +0.000 OA
BRANCH  25  28
ATOM     28  N   UNL     1      -0.267   8.964  22.092  0.00  0.00    +0.000 NA
ATOM     29  H   UNL     1      -0.961   9.525  21.600  0.00  0.00    +0.000 HD
ATOM     30  H   UNL     1      -0.430   7.959  22.088  0.00  0.00    +0.000 HD
ENDBRANCH  25  28
ENDBRANCH  22  25
ENDBRANCH  18  19
ENDBRANCH   2  18
TORSDOF 5
ENDMDL
MODEL 2
REMARK VINA RESULT:      -8.2      4.858      9.145
REMARK  Name = 
REMARK  7 active torsions:
REMARK  status: ('A' for Active; 'I' for Inactive)
REMARK    1  A    between atoms: C_1  and  C_2
REMARK    2  A    between atoms: C_2  and  C_3
REMARK    3  A    between atoms: C_5  and  N_6
REMARK    4  A    between atoms: C_7  and  C_9
REMARK    5  A    between atoms: C_9  and  C_10
REMARK    6  A    between atoms: C_13  and  S_14
REMARK    7  A    between atoms: S_14  and  N_15
REMARK                            x       y       z     vdW  Elec       q    Type
REMARK                         _______ _______ _______ _____ _____    ______ ____
ROOT
ATOM      1  N   UNL     1       1.032   9.401  18.996  0.00  0.00    +0.000 N 
ATOM      2  C   UNL     1       1.878   8.606  18.254  0.00  0.00    +0.000 C 
ATOM      3  O   UNL     1       2.228   8.876  17.108  0.00  0.00    +0.000 OA
ATOM      4  H   UNL     1       0.706   9.077  19.899  0.00  0.00    +0.000 HD
ENDROOT
BRANCH   1   9
ATOM      5  C   UNL     1       0.334  13.023  21.569  0.00  0.00    +0.000 C 
ATOM      6  C   UNL     1      -0.072  11.854  20.657  0.00  0.00    +0.000 C 
ATOM      7  C   UNL     1      -0.095  10.580  21.520  0.00  0.00    +0.000 C 
ATOM      8  C   UNL     1       0.900  11.824  19.471  0.00  0.00    +0.000 C 
ATOM      9  C   UNL     1       0.563  10.687  18.506  0.00  0.00    +0.000 C 
ATOM     10  C   UNL     1      -0.929  10.668  18.262  0.00  0.00    +0.000 A 
ATOM     11  C   UNL     1      -1.462   9.937  17.186  0.00  0.00    +0.000 A 
ATOM     12  C   UNL     1      -2.836   9.946  16.939  0.00  0.00    +0.000 A 
ATOM     13  C   UNL     1      -3.676  10.691  17.758  0.00  0.00    +0.000 A 
ATOM     14  F   UNL     1      -4.993  10.706  17.513  0.00  0.00    +0.000 F 
ATOM     15  C   UNL     1      -3.172  11.414  18.830  0.00  0.00    +0.000 A 
ATOM     16  C   UNL     1      -1.804  11.391  19.092  0.00  0.00    +0.000 A 
ATOM     17  O   UNL     1      -1.404  12.120  20.184  0.00  0.00    +0.000 OA
ENDBRANCH   1   9
BRANCH   2  18
ATOM     18  C   UNL     1       2.356   7.355  18.967  0.00  0.00    +0.000 C 
BRANCH  18  19
ATOM     19  C   UNL     1       3.446   6.662  18.194  0.00  0.00    +0.000 A 
ATOM     20  C   UNL     1       4.634   7.352  17.899  0.00  0.00    +0.000 A 
ATOM     21  C   UNL     1       5.624   6.752  17.132  0.00  0.00    +0.000 A 
ATOM     22  C   UNL     1       5.438   5.444  16.687  0.00  0.00    +0.000 A 
ATOM     23  C   UNL     1       4.274   4.733  16.990  0.00  0.00    +0.000 A 
ATOM     24  C   UNL     1       3.279   5.344  17.750  0.00  0.00    +0.000 A 
BRANCH  22  25
ATOM     25  S   UNL     1       6.723   4.664  15.764  0.00  0.00    +0.000 S 
ATOM     26  O   UNL     1       6.217   3.444  15.181  0.00  0.00    +0.000 OA
ATOM     27  O   UNL     1       7.437   5.657  15.002  0.00  0.00    +0.000 OA
BRANCH  25  28
ATOM     28  N   UNL     1       7.735   4.204  17.019  0.00  0.00    +0.000 NA
ATOM     29  H   UNL     1       8.084   5.019  17.520  0.00  0.00    +0.000 HD
ATOM     30  H   UNL     1       7.295   3.489  17.595  0.00  0.00    +0.000 HD
ENDBRANCH  25  28
ENDBRANCH  22  25
ENDBRANCH  18  19
ENDBRANCH   2  18
TORSDOF 5
ENDMDL
MODEL 3
REMARK VINA RESULT:      -8.1      4.808      9.134
REMARK  Name = 
REMARK  7 active torsions:
REMARK  status: ('A' for Active; 'I' for Inactive)
REMARK    1  A    between atoms: C_1  and  C_2
REMARK    2  A    between atoms: C_2  and  C_3
REMARK    3  A    between atoms: C_5  and  N_6
REMARK    4  A    between atoms: C_7  and  C_9
REMARK    5  A    between atoms: C_9  and  C_10
REMARK    6  A    between atoms: C_13  and  S_14
REMARK    7  A    between atoms: S_14  and  N_15
REMARK                            x       y       z     vdW  Elec       q    Type
REMARK                         _______ _______ _______ _____ _____    ______ ____
ROOT
ATOM      1  N   UNL     1       1.022   9.422  19.034  0.00  0.00    +0.000 N 
ATOM      2  C   UNL     1       1.847   8.636  18.258  0.00  0.00    +0.000 C 
ATOM      3  O   UNL     1       2.174   8.926  17.110  0.00  0.00    +0.000 OA
ATOM      4  H   UNL     1       0.714   9.083  19.937  0.00  0.00    +0.000 HD
ENDROOT
BRANCH   1   9
ATOM      5  C   UNL     1       0.194  12.932  21.721  0.00  0.00    +0.000 C 
ATOM      6  C   UNL     1      -0.167  11.795  20.752  0.00  0.00    +0.000 C 
ATOM      7  C   UNL     1      -0.200  10.487  21.564  0.00  0.00    +0.000 C 
ATOM      8  C   UNL     1       0.843  11.823  19.598  0.00  0.00    +0.000 C 
ATOM      9  C   UNL     1       0.551  10.721  18.578  0.00  0.00    +0.000 C 
ATOM     10  C   UNL     1      -0.932  10.693  18.287  0.00  0.00    +0.000 A 
ATOM     11  C   UNL     1      -1.420   9.997  17.166  0.00  0.00    +0.000 A 
ATOM     12  C   UNL     1      -2.786   9.999  16.876  0.00  0.00    +0.000 A 
ATOM     13  C   UNL     1      -3.662  10.701  17.696  0.00  0.00    +0.000 A 
ATOM     14  F   UNL     1      -4.970  10.709  17.409  0.00  0.00    +0.000 F 
ATOM     15  C   UNL     1      -3.202  11.388  18.810  0.00  0.00    +0.000 A 
ATOM     16  C   UNL     1      -1.842  11.372  19.115  0.00  0.00    +0.000 A 
ATOM     17  O   UNL     1      -1.487  12.062  20.247  0.00  0.00    +0.000 OA
ENDBRANCH   1   9
BRANCH   2  18
ATOM     18  C   UNL     1       2.331   7.368  18.936  0.00  0.00    +0.000 C 
BRANCH  18  19
ATOM     19  C   UNL     1       3.441   6.716  18.155  0.00  0.00    +0.000 A 
ATOM     20  C   UNL     1       3.366   5.346  17.854  0.00  0.00    +0.000 A 
ATOM     21  C   UNL     1       4.409   4.714  17.190  0.00  0.00    +0.000 A 
ATOM     22  C   UNL     1       5.517   5.463  16.799  0.00  0.00    +0.000 A 
ATOM     23  C   UNL     1       5.600   6.832  17.068  0.00  0.00    +0.000 A 
ATOM     24  C   UNL     1       4.555   7.458  17.743  0.00  0.00    +0.000 A 
BRANCH  22  25
ATOM     25  S   UNL     1       6.813   4.669  15.904  0.00  0.00    +0.000 S 
ATOM     26  O   UNL     1       7.006   5.346  14.643  0.00  0.00    +0.000 OA
ATOM     27  O   UNL     1       7.899   4.363  16.801  0.00  0.00    +0.000 OA
BRANCH  25  28
ATOM     28  N   UNL     1       6.062   3.213  15.548  0.00  0.00    +0.000 NA
ATOM     29  H   UNL     1       5.831   3.157  14.558  0.00  0.00    +0.000 HD
ATOM     30  H   UNL     1       6.596   2.430  15.920  0.00  0.00    +0.000 HD
ENDBRANCH  25  28
ENDBRANCH  22  25
ENDBRANCH  18  19
ENDBRANCH   2  18
TORSDOF 5
ENDMDL
MODEL 4
REMARK VINA RESULT:      -8.0      3.866      5.767
REMARK  Name = 
REMARK  7 active torsions:
REMARK  status: ('A' for Active; 'I' for Inactive)
REMARK    1  A    between atoms: C_1  and  C_2
REMARK    2  A    between atoms: C_2  and  C_3
REMARK    3  A    between atoms: C_5  and  N_6
REMARK    4  A    between atoms: C_7  and  C_9
REMARK    5  A    between atoms: C_9  and  C_10
REMARK    6  A    between atoms: C_13  and  S_14
REMARK    7  A    between atoms: S_14  and  N_15
REMARK                            x       y       z     vdW  Elec       q    Type
REMARK                         _______ _______ _______ _____ _____    ______ ____
ROOT
ATOM      1  N   UNL     1       2.110   7.411  18.716  0.00  0.00    +0.000 N 
ATOM      2  C   UNL     1       1.984   8.691  18.223  0.00  0.00    +0.000 C 
ATOM      3  O   UNL     1       2.275   9.006  17.072  0.00  0.00    +0.000 OA
ATOM      4  H   UNL     1       1.942   7.235  19.699  0.00  0.00    +0.000 HD
ENDROOT
BRANCH   1   9
ATOM      5  C   UNL     1       1.293   3.079  19.609  0.00  0.00    +0.000 C 
ATOM      6  C   UNL     1       2.168   4.327  19.410  0.00  0.00    +0.000 C 
ATOM      7  C   UNL     1       2.092   5.157  20.704  0.00  0.00    +0.000 C 
ATOM      8  C   UNL     1       1.685   5.043  18.143  0.00  0.00    +0.000 C 
ATOM      9  C   UNL     1       2.511   6.300  17.866  0.00  0.00    +0.000 C 
ATOM     10  C   UNL     1       3.978   5.979  18.042  0.00  0.00    +0.000 A 
ATOM     11  C   UNL     1       4.959   6.857  17.548  0.00  0.00    +0.000 A 
ATOM     12  C   UNL     1       6.314   6.546  17.679  0.00  0.00    +0.000 A 
ATOM     13  C   UNL     1       6.689   5.357  18.292  0.00  0.00    +0.000 A 
ATOM     14  F   UNL     1       7.989   5.056  18.408  0.00  0.00    +0.000 F 
ATOM     15  C   UNL     1       5.738   4.480  18.793  0.00  0.00    +0.000 A 
ATOM     16  C   UNL     1       4.385   4.796  18.683  0.00  0.00    +0.000 A 
ATOM     17  O   UNL     1       3.522   3.877  19.225  0.00  0.00    +0.000 OA
ENDBRANCH   1   9
BRANCH   2  18
ATOM     18  C   UNL     1       1.447   9.701  19.221  0.00  0.00    +0.000 C 
BRANCH  18  19
ATOM     19  C   UNL     1       0.029  10.092  18.900  0.00  0.00    +0.000 A 
ATOM     20  C   UNL     1      -0.589   9.579  17.747  0.00  0.00    +0.000 A 
ATOM     21  C   UNL     1      -1.873   9.978  17.401  0.00  0.00    +0.000 A 
ATOM     22  C   UNL     1      -2.554  10.869  18.230  0.00  0.00    +0.000 A 
ATOM     23  C   UNL     1      -1.965  11.371  19.394  0.00  0.00    +0.000 A 
ATOM     24  C   UNL     1      -0.673  10.975  19.730  0.00  0.00    +0.000 A 
BRANCH  22  25
ATOM     25  S   UNL     1      -4.207  11.326  17.818  0.00  0.00    +0.000 S 
ATOM     26  O   UNL     1      -4.246  11.790  16.451  0.00  0.00    +0.000 OA
ATOM     27  O   UNL     1      -5.121  10.340  18.336  0.00  0.00    +0.000 OA
BRANCH  25  28
ATOM     28  N   UNL     1      -4.373  12.688  18.783  0.00  0.00    +0.000 NA
ATOM     29  H   UNL     1      -5.082  12.540  19.498  0.00  0.00    +0.000 HD
ATOM     30  H   UNL     1      -3.466  13.004  19.121  0.00  0.00    +0.000 HD
ENDBRANCH  25  28
ENDBRANCH  22  25
ENDBRANCH  18  19
ENDBRANCH   2  18
TORSDOF 5
ENDMDL
MODEL 5
REMARK VINA RESULT:      -8.0      3.619      5.465
REMARK  Name = 
REMARK  7 active torsions:
REMARK  status: ('A' for Active; 'I' for Inactive)
REMARK    1  A    between atoms: C_1  and  C_2
REMARK    2  A    between atoms: C_2  and  C_3
REMARK    3  A    between atoms: C_5  and  N_6
REMARK    4  A    between atoms: C_7  and  C_9
REMARK    5  A    between atoms: C_9  and  C_10
REMARK    6  A    between atoms: C_13  and  S_14
REMARK    7  A    between atoms: S_14  and  N_15
REMARK                            x       y       z     vdW  Elec       q    Type
REMARK                         _______ _______ _______ _____ _____    ______ ____
ROOT
ATOM      1  N   UNL     1       3.171   6.964  18.326  0.00  0.00    +0.000 N 
ATOM      2  C   UNL     1       2.326   7.930  18.829  0.00  0.00    +0.000 C 
ATOM      3  O   UNL     1       1.889   7.915  19.977  0.00  0.00    +0.000 OA
ATOM      4  H   UNL     1       3.422   6.982  17.345  0.00  0.00    +0.000 HD
ENDROOT
BRANCH   1   9
ATOM      5  C   UNL     1       6.812   4.507  17.361  0.00  0.00    +0.000 C 
ATOM      6  C   UNL     1       5.313   4.760  17.585  0.00  0.00    +0.000 C 
ATOM      7  C   UNL     1       4.755   5.406  16.304  0.00  0.00    +0.000 C 
ATOM      8  C   UNL     1       5.163   5.599  18.860  0.00  0.00    +0.000 C 
ATOM      9  C   UNL     1       3.693   5.893  19.161  0.00  0.00    +0.000 C 
ATOM     10  C   UNL     1       2.887   4.625  18.990  0.00  0.00    +0.000 A 
ATOM     11  C   UNL     1       1.581   4.541  19.504  0.00  0.00    +0.000 A 
ATOM     12  C   UNL     1       0.848   3.360  19.378  0.00  0.00    +0.000 A 
ATOM     13  C   UNL     1       1.421   2.261  18.749  0.00  0.00    +0.000 A 
ATOM     14  F   UNL     1       0.719   1.125  18.638  0.00  0.00    +0.000 F 
ATOM     15  C   UNL     1       2.705   2.324  18.228  0.00  0.00    +0.000 A 
ATOM     16  C   UNL     1       3.433   3.508  18.334  0.00  0.00    +0.000 A 
ATOM     17  O   UNL     1       4.684   3.480  17.772  0.00  0.00    +0.000 OA
ENDBRANCH   1   9
BRANCH   2  18
ATOM     18  C   UNL     1       1.973   9.032  17.848  0.00  0.00    +0.000 C 
BRANCH  18  19
ATOM     19  C   UNL     1       0.860   9.900  18.372  0.00  0.00    +0.000 A 
ATOM     20  C   UNL     1       1.146  10.909  19.306  0.00  0.00    +0.000 A 
ATOM     21  C   UNL     1       0.124  11.677  19.848  0.00  0.00    +0.000 A 
ATOM     22  C   UNL     1      -1.187  11.455  19.428  0.00  0.00    +0.000 A 
ATOM     23  C   UNL     1      -1.489  10.472  18.482  0.00  0.00    +0.000 A 
ATOM     24  C   UNL     1      -0.461   9.698  17.950  0.00  0.00    +0.000 A 
BRANCH  22  25
ATOM     25  S   UNL     1      -2.475  12.472  20.074  0.00  0.00    +0.000 S 
ATOM     26  O   UNL     1      -3.668  12.291  19.281  0.00  0.00    +0.000 OA
ATOM     27  O   UNL     1      -2.474  12.392  21.513  0.00  0.00    +0.000 OA
BRANCH  25  28
ATOM     28  N   UNL     1      -1.868  13.984  19.678  0.00  0.00    +0.000 NA
ATOM     29  H   UNL     1      -2.623  14.628  19.449  0.00  0.00    +0.000 HD
ATOM     30  H   UNL     1      -1.214  14.308  20.388  0.00  0.00    +0.000 HD
ENDBRANCH  25  28
ENDBRANCH  22  25
ENDBRANCH  18  19
ENDBRANCH   2  18
TORSDOF 5
ENDMDL
MODEL 6
REMARK VINA RESULT:      -8.0      3.815      5.669
REMARK  Name = 
REMARK  7 active torsions:
REMARK  status: ('A' for Active; 'I' for Inactive)
REMARK    1  A    between atoms: C_1  and  C_2
REMARK    2  A    between atoms: C_2  and  C_3
REMARK    3  A    between atoms: C_5  and  N_6
REMARK    4  A    between atoms: C_7  and  C_9
REMARK    5  A    between atoms: C_9  and  C_10
REMARK    6  A    between atoms: C_13  and  S_14
REMARK    7  A    between atoms: S_14  and  N_15
REMARK                            x       y       z     vdW  Elec       q    Type
REMARK                         _______ _______ _______ _____ _____    ______ ____
ROOT
ATOM      1  N   UNL     1       2.198   7.358  18.738  0.00  0.00    +0.000 N 
ATOM      2  C   UNL     1       2.035   8.641  18.261  0.00  0.00    +0.000 C 
ATOM      3  O   UNL     1       2.264   8.964  17.098  0.00  0.00    +0.000 OA
ATOM      4  H   UNL     1       2.083   7.175  19.728  0.00  0.00    +0.000 HD
ENDROOT
BRANCH   1   9
ATOM      5  C   UNL     1       1.259   3.033  19.535  0.00  0.00    +0.000 C 
ATOM      6  C   UNL     1       2.169   4.259  19.362  0.00  0.00    +0.000 C 
ATOM      7  C   UNL     1       2.119   5.062  20.675  0.00  0.00    +0.000 C 
ATOM      8  C   UNL     1       1.704   5.017  18.113  0.00  0.00    +0.000 C 
ATOM      9  C   UNL     1       2.565   6.256  17.862  0.00  0.00    +0.000 C 
ATOM     10  C   UNL     1       4.022   5.889  18.027  0.00  0.00    +0.000 A 
ATOM     11  C   UNL     1       5.027   6.750  17.550  0.00  0.00    +0.000 A 
ATOM     12  C   UNL     1       6.373   6.398  17.670  0.00  0.00    +0.000 A 
ATOM     13  C   UNL     1       6.715   5.184  18.255  0.00  0.00    +0.000 A 
ATOM     14  F   UNL     1       8.006   4.844  18.360  0.00  0.00    +0.000 F 
ATOM     15  C   UNL     1       5.740   4.324  18.738  0.00  0.00    +0.000 A 
ATOM     16  C   UNL     1       4.396   4.681  18.639  0.00  0.00    +0.000 A 
ATOM     17  O   UNL     1       3.509   3.775  19.163  0.00  0.00    +0.000 OA
ENDBRANCH   1   9
BRANCH   2  18
ATOM     18  C   UNL     1       1.541   9.639  19.291  0.00  0.00    +0.000 C 
BRANCH  18  19
ATOM     19  C   UNL     1       0.142  10.102  18.982  0.00  0.00    +0.000 A 
ATOM     20  C   UNL     1      -0.513  10.974  19.867  0.00  0.00    +0.000 A 
ATOM     21  C   UNL     1      -1.826  11.361  19.632  0.00  0.00    +0.000 A 
ATOM     22  C   UNL     1      -2.475  10.898  18.488  0.00  0.00    +0.000 A 
ATOM     23  C   UNL     1      -1.833  10.049  17.583  0.00  0.00    +0.000 A 
ATOM     24  C   UNL     1      -0.519   9.656  17.830  0.00  0.00    +0.000 A 
BRANCH  22  25
ATOM     25  S   UNL     1      -4.121  11.439  18.162  0.00  0.00    +0.000 S 
ATOM     26  O   UNL     1      -5.001  10.294  18.126  0.00  0.00    +0.000 OA
ATOM     27  O   UNL     1      -4.404  12.617  18.943  0.00  0.00    +0.000 OA
BRANCH  25  28
ATOM     28  N   UNL     1      -3.944  11.949  16.575  0.00  0.00    +0.000 NA
ATOM     29  H   UNL     1      -2.961  12.080  16.344  0.00  0.00    +0.000 HD
ATOM     30  H   UNL     1      -4.467  11.347  15.941  0.00  0.00    +0.000 HD
ENDBRANCH  25  28
ENDBRANCH  22  25
ENDBRANCH  18  19
ENDBRANCH   2  18
TORSDOF 5
ENDMDL
MODEL 7
REMARK VINA RESULT:      -7.9      3.559      5.349
REMARK  Name = 
REMARK  7 active torsions:
REMARK  status: ('A' for Active; 'I' for Inactive)
REMARK    1  A    between atoms: C_1  and  C_2
REMARK    2  A    between atoms: C_2  and  C_3
REMARK    3  A    between atoms: C_5  and  N_6
REMARK    4  A    between atoms: C_7  and  C_9
REMARK    5  A    between atoms: C_9  and  C_10
REMARK    6  A    between atoms: C_13  and  S_14
REMARK    7  A    between atoms: S_14  and  N_15
REMARK                            x       y       z     vdW  Elec       q    Type
REMARK                         _______ _______ _______ _____ _____    ______ ____
ROOT
ATOM      1  N   UNL     1       3.232   6.970  18.270  0.00  0.00    +0.000 N 
ATOM      2  C   UNL     1       2.371   7.912  18.791  0.00  0.00    +0.000 C 
ATOM      3  O   UNL     1       1.937   7.870  19.939  0.00  0.00    +0.000 OA
ATOM      4  H   UNL     1       3.480   7.009  17.289  0.00  0.00    +0.000 HD
ENDROOT
BRANCH   1   9
ATOM      5  C   UNL     1       6.863   4.536  17.210  0.00  0.00    +0.000 C 
ATOM      6  C   UNL     1       5.368   4.781  17.468  0.00  0.00    +0.000 C 
ATOM      7  C   UNL     1       4.781   5.434  16.203  0.00  0.00    +0.000 C 
ATOM      8  C   UNL     1       5.241   5.610  18.751  0.00  0.00    +0.000 C 
ATOM      9  C   UNL     1       3.776   5.895  19.086  0.00  0.00    +0.000 C 
ATOM     10  C   UNL     1       2.972   4.625  18.922  0.00  0.00    +0.000 A 
ATOM     11  C   UNL     1       1.677   4.532  19.462  0.00  0.00    +0.000 A 
ATOM     12  C   UNL     1       0.947   3.348  19.342  0.00  0.00    +0.000 A 
ATOM     13  C   UNL     1       1.511   2.256  18.693  0.00  0.00    +0.000 A 
ATOM     14  F   UNL     1       0.812   1.119  18.588  0.00  0.00    +0.000 F 
ATOM     15  C   UNL     1       2.784   2.329  18.146  0.00  0.00    +0.000 A 
ATOM     16  C   UNL     1       3.509   3.516  18.246  0.00  0.00    +0.000 A 
ATOM     17  O   UNL     1       4.748   3.497  17.658  0.00  0.00    +0.000 OA
ENDBRANCH   1   9
BRANCH   2  18
ATOM     18  C   UNL     1       1.995   9.023  17.829  0.00  0.00    +0.000 C 
BRANCH  18  19
ATOM     19  C   UNL     1       0.987   9.961  18.438  0.00  0.00    +0.000 A 
ATOM     20  C   UNL     1      -0.379   9.789  18.159  0.00  0.00    +0.000 A 
ATOM     21  C   UNL     1      -1.317  10.682  18.660  0.00  0.00    +0.000 A 
ATOM     22  C   UNL     1      -0.889  11.732  19.470  0.00  0.00    +0.000 A 
ATOM     23  C   UNL     1       0.463  11.907  19.779  0.00  0.00    +0.000 A 
ATOM     24  C   UNL     1       1.401  11.014  19.265  0.00  0.00    +0.000 A 
BRANCH  22  25
ATOM     25  S   UNL     1      -2.089  12.829  20.154  0.00  0.00    +0.000 S 
ATOM     26  O   UNL     1      -2.538  12.312  21.425  0.00  0.00    +0.000 OA
ATOM     27  O   UNL     1      -1.653  14.191  19.974  0.00  0.00    +0.000 OA
BRANCH  25  28
ATOM     28  N   UNL     1      -3.347  12.582  19.073  0.00  0.00    +0.000 NA
ATOM     29  H   UNL     1      -3.922  13.418  18.990  0.00  0.00    +0.000 HD
ATOM     30  H   UNL     1      -3.001  12.198  18.196  0.00  0.00    +0.000 HD
ENDBRANCH  25  28
ENDBRANCH  22  25
ENDBRANCH  18  19
ENDBRANCH   2  18
TORSDOF 5
ENDMDL
MODEL 8
REMARK VINA RESULT:      -7.8      3.684      5.532
REMARK  Name = 
REMARK  7 active torsions:
REMARK  status: ('A' for Active; 'I' for Inactive)
REMARK    1  A    between atoms: C_1  and  C_2
REMARK    2  A    between atoms: C_2  and  C_3
REMARK    3  A    between atoms: C_5  and  N_6
REMARK    4  A    between atoms: C_7  and  C_9
REMARK    5  A    between atoms: C_9  and  C_10
REMARK    6  A    between atoms: C_13  and  S_14
REMARK    7  A    between atoms: S_14  and  N_15
REMARK                            x       y       z     vdW  Elec       q    Type
REMARK                         _______ _______ _______ _____ _____    ______ ____
ROOT
ATOM      1  N   UNL     1       3.119   6.897  18.328  0.00  0.00    +0.000 N 
ATOM      2  C   UNL     1       2.284   7.900  18.773  0.00  0.00    +0.000 C 
ATOM      3  O   UNL     1       1.908   7.999  19.938  0.00  0.00    +0.000 OA
ATOM      4  H   UNL     1       3.317   6.816  17.338  0.00  0.00    +0.000 HD
ENDROOT
BRANCH   1   9
ATOM      5  C   UNL     1       6.894   4.587  17.532  0.00  0.00    +0.000 C 
ATOM      6  C   UNL     1       5.383   4.769  17.745  0.00  0.00    +0.000 C 
ATOM      7  C   UNL     1       4.787   5.281  16.421  0.00  0.00    +0.000 C 
ATOM      8  C   UNL     1       5.187   5.695  18.952  0.00  0.00    +0.000 C 
ATOM      9  C   UNL     1       3.703   5.926  19.239  0.00  0.00    +0.000 C 
ATOM     10  C   UNL     1       2.972   4.604  19.171  0.00  0.00    +0.000 A 
ATOM     11  C   UNL     1       1.673   4.485  19.698  0.00  0.00    +0.000 A 
ATOM     12  C   UNL     1       1.010   3.257  19.667  0.00  0.00    +0.000 A 
ATOM     13  C   UNL     1       1.644   2.148  19.121  0.00  0.00    +0.000 A 
ATOM     14  F   UNL     1       1.009   0.969  19.102  0.00  0.00    +0.000 F 
ATOM     15  C   UNL     1       2.922   2.245  18.590  0.00  0.00    +0.000 A 
ATOM     16  C   UNL     1       3.580   3.473  18.600  0.00  0.00    +0.000 A 
ATOM     17  O   UNL     1       4.830   3.474  18.034  0.00  0.00    +0.000 OA
ENDBRANCH   1   9
BRANCH   2  18
ATOM     18  C   UNL     1       1.860   8.889  17.704  0.00  0.00    +0.000 C 
BRANCH  18  19
ATOM     19  C   UNL     1       1.222  10.112  18.307  0.00  0.00    +0.000 A 
ATOM     20  C   UNL     1      -0.142  10.091  18.640  0.00  0.00    +0.000 A 
ATOM     21  C   UNL     1      -0.763  11.229  19.138  0.00  0.00    +0.000 A 
ATOM     22  C   UNL     1      -0.006  12.384  19.334  0.00  0.00    +0.000 A 
ATOM     23  C   UNL     1       1.358  12.417  19.032  0.00  0.00    +0.000 A 
ATOM     24  C   UNL     1       1.972  11.275  18.523  0.00  0.00    +0.000 A 
BRANCH  22  25
ATOM     25  S   UNL     1      -0.784  13.809  20.022  0.00  0.00    +0.000 S 
ATOM     26  O   UNL     1      -2.195  13.548  20.188  0.00  0.00    +0.000 OA
ATOM     27  O   UNL     1       0.041  14.345  21.076  0.00  0.00    +0.000 OA
BRANCH  25  28
ATOM     28  N   UNL     1      -0.648  14.862  18.725  0.00  0.00    +0.000 NA
ATOM     29  H   UNL     1      -0.545  15.822  19.047  0.00  0.00    +0.000 HD
ATOM     30  H   UNL     1       0.063  14.539  18.070  0.00  0.00    +0.000 HD
ENDBRANCH  25  28
ENDBRANCH  22  25
ENDBRANCH  18  19
ENDBRANCH   2  18
TORSDOF 5
ENDMDL
MODEL 9
REMARK VINA RESULT:      -7.6      2.922      4.987
REMARK  Name = 
REMARK  7 active torsions:
REMARK  status: ('A' for Active; 'I' for Inactive)
REMARK    1  A    between atoms: C_1  and  C_2
REMARK    2  A    between atoms: C_2  and  C_3
REMARK    3  A    between atoms: C_5  and  N_6
REMARK    4  A    between atoms: C_7  and  C_9
REMARK    5  A    between atoms: C_9  and  C_10
REMARK    6  A    between atoms: C_13  and  S_14
REMARK    7  A    between atoms: S_14  and  N_15
REMARK                            x       y       z     vdW  Elec       q    Type
REMARK                         _______ _______ _______ _____ _____    ______ ____
ROOT
ATOM      1  N   UNL     1       2.259   6.497  19.643  0.00  0.00    +0.000 N 
ATOM      2  C   UNL     1       1.853   7.782  19.931  0.00  0.00    +0.000 C 
ATOM      3  O   UNL     1       1.517   8.594  19.073  0.00  0.00    +0.000 OA
ATOM      4  H   UNL     1       2.612   5.906  20.386  0.00  0.00    +0.000 HD
ENDROOT
BRANCH   1   9
ATOM      5  C   UNL     1       1.584   2.176  18.594  0.00  0.00    +0.000 C 
ATOM      6  C   UNL     1       2.388   3.481  18.704  0.00  0.00    +0.000 C 
ATOM      7  C   UNL     1       2.877   3.602  20.159  0.00  0.00    +0.000 C 
ATOM      8  C   UNL     1       1.494   4.627  18.217  0.00  0.00    +0.000 C 
ATOM      9  C   UNL     1       2.224   5.969  18.287  0.00  0.00    +0.000 C 
ATOM     10  C   UNL     1       3.619   5.807  17.729  0.00  0.00    +0.000 A 
ATOM     11  C   UNL     1       4.382   6.938  17.389  0.00  0.00    +0.000 A 
ATOM     12  C   UNL     1       5.658   6.789  16.840  0.00  0.00    +0.000 A 
ATOM     13  C   UNL     1       6.167   5.514  16.622  0.00  0.00    +0.000 A 
ATOM     14  F   UNL     1       7.386   5.375  16.086  0.00  0.00    +0.000 F 
ATOM     15  C   UNL     1       5.434   4.385  16.957  0.00  0.00    +0.000 A 
ATOM     16  C   UNL     1       4.168   4.529  17.524  0.00  0.00    +0.000 A 
ATOM     17  O   UNL     1       3.530   3.356  17.839  0.00  0.00    +0.000 OA
ENDBRANCH   1   9
BRANCH   2  18
ATOM     18  C   UNL     1       1.848   8.125  21.409  0.00  0.00    +0.000 C 
BRANCH  18  19
ATOM     19  C   UNL     1       0.893   9.248  21.711  0.00  0.00    +0.000 A 
ATOM     20  C   UNL     1       0.913  10.409  20.920  0.00  0.00    +0.000 A 
ATOM     21  C   UNL     1       0.083  11.481  21.221  0.00  0.00    +0.000 A 
ATOM     22  C   UNL     1      -0.793  11.378  22.301  0.00  0.00    +0.000 A 
ATOM     23  C   UNL     1      -0.845  10.222  23.085  0.00  0.00    +0.000 A 
ATOM     24  C   UNL     1      -0.003   9.155  22.784  0.00  0.00    +0.000 A 
BRANCH  22  25
ATOM     25  S   UNL     1      -1.887  12.718  22.644  0.00  0.00    +0.000 S 
ATOM     26  O   UNL     1      -1.275  13.596  23.614  0.00  0.00    +0.000 OA
ATOM     27  O   UNL     1      -2.464  13.195  21.413  0.00  0.00    +0.000 OA
BRANCH  25  28
ATOM     28  N   UNL     1      -3.101  11.893  23.454  0.00  0.00    +0.000 NA
ATOM     29  H   UNL     1      -3.163  10.930  23.130  0.00  0.00    +0.000 HD
ATOM     30  H   UNL     1      -3.010  12.012  24.462  0.00  0.00    +0.000 HD
ENDBRANCH  25  28
ENDBRANCH  22  25
ENDBRANCH  18  19
ENDBRANCH   2  18
TORSDOF 5
ENDMDL
