MODEL 1
REMARK VINA RESULT:      -8.9      0.000      0.000
REMARK  Name = 
REMARK  5 active torsions:
REMARK  status: ('A' for Active; 'I' for Inactive)
REMARK    1  A    between atoms: C_1  and  C_2
REMARK    2  A    between atoms: C_5  and  N_6
REMARK    3  A    between atoms: C_7  and  C_9
REMARK    4  A    between atoms: C_13  and  S_14
REMARK    5  A    between atoms: S_14  and  N_17
REMARK                            x       y       z     vdW  Elec       q    Type
REMARK                         _______ _______ _______ _____ _____    ______ ____
ROOT
ATOM      1  C   UNL     1       2.880   4.265  20.226  0.00  0.00    +0.000 A 
ATOM      2  S   UNL     1       2.615   2.903  21.281  0.00  0.00    +0.000 S 
ATOM      3  C   UNL     1       3.859   1.979  20.579  0.00  0.00    +0.000 A 
ATOM      4  C   UNL     1       4.487   2.670  19.581  0.00  0.00    +0.000 A 
ATOM      5  C   UNL     1       3.955   3.998  19.380  0.00  0.00    +0.000 A 
ENDROOT
BRANCH   1   7
ATOM      6  N   UNL     1       2.492   6.717  20.133  0.00  0.00    +0.000 N 
ATOM      7  C   UNL     1       1.971   5.423  20.352  0.00  0.00    +0.000 C 
ATOM      8  O   UNL     1       0.810   5.251  20.686  0.00  0.00    +0.000 OA
ATOM      9  H   UNL     1       3.481   6.785  19.911  0.00  0.00    +0.000 HD
BRANCH   6  14
ATOM     10  C   UNL     1      -0.817  11.480  20.001  0.00  0.00    +0.000 C 
ATOM     11  C   UNL     1       0.175  10.348  20.064  0.00  0.00    +0.000 A 
ATOM     12  C   UNL     1       0.400   9.669  21.263  0.00  0.00    +0.000 A 
ATOM     13  C   UNL     1       1.191   8.500  21.313  0.00  0.00    +0.000 A 
ATOM     14  C   UNL     1       1.778   7.962  20.163  0.00  0.00    +0.000 A 
ATOM     15  C   UNL     1       1.603   8.699  18.976  0.00  0.00    +0.000 A 
ATOM     16  F   UNL     1       2.176   8.271  17.836  0.00  0.00    +0.000 F 
ATOM     17  C   UNL     1       0.819   9.874  18.918  0.00  0.00    +0.000 A 
ENDBRANCH   6  14
ENDBRANCH   1   7
BRANCH   5  18
ATOM     18  S   UNL     1       4.829   4.962  18.209  0.00  0.00    +0.000 S 
ATOM     19  O   UNL     1       3.723   5.464  17.421  0.00  0.00    +0.000 OA
ATOM     20  O   UNL     1       5.590   5.871  19.050  0.00  0.00    +0.000 OA
BRANCH  18  21
ATOM     21  N   UNL     1       5.912   4.254  17.144  0.00  0.00    +0.000 NA
ATOM     22  C   UNL     1       7.251   4.874  16.998  0.00  0.00    +0.000 C 
ATOM     23  C   UNL     1       7.468   5.635  15.697  0.00  0.00    +0.000 C 
ATOM     24  C   UNL     1       7.079   4.833  14.490  0.00  0.00    +0.000 A 
ATOM     25  C   UNL     1       7.722   5.018  13.258  0.00  0.00    +0.000 A 
ATOM     26  C   UNL     1       7.213   4.430  12.101  0.00  0.00    +0.000 A 
ATOM     27  C   UNL     1       6.054   3.663  12.166  0.00  0.00    +0.000 A 
ATOM     28  C   UNL     1       5.444   3.431  13.399  0.00  0.00    +0.000 A 
ATOM     29  C   UNL     1       5.968   3.991  14.576  0.00  0.00    +0.000 A 
ATOM     30  C   UNL     1       5.279   3.732  15.896  0.00  0.00    +0.000 C 
ENDBRANCH  18  21
ENDBRANCH   5  18
TORSDOF 4
ENDMDL
MODEL 2
REMARK VINA RESULT:      -8.4      0.891      1.256
REMARK  Name = 
REMARK  5 active torsions:
REMARK  status: ('A' for Active; 'I' for Inactive)
REMARK    1  A    between atoms: C_1  and  C_2
REMARK    2  A    between atoms: C_5  and  N_6
REMARK    3  A    between atoms: C_7  and  C_9
REMARK    4  A    between atoms: C_13  and  S_14
REMARK    5  A    between atoms: S_14  and  N_17
REMARK                            x       y       z     vdW  Elec       q    Type
REMARK                         _______ _______ _______ _____ _____    ______ ____
ROOT
ATOM      1  C   UNL     1       2.807   4.496  20.192  0.00  0.00    +0.000 A 
ATOM      2  S   UNL     1       2.472   3.179  21.285  0.00  0.00    +0.000 S 
ATOM      3  C   UNL     1       3.727   2.207  20.671  0.00  0.00    +0.000 A 
ATOM      4  C   UNL     1       4.409   2.849  19.676  0.00  0.00    +0.000 A 
ATOM      5  C   UNL     1       3.912   4.178  19.402  0.00  0.00    +0.000 A 
ENDROOT
BRANCH   1   7
ATOM      6  N   UNL     1       2.448   6.935  19.888  0.00  0.00    +0.000 N 
ATOM      7  C   UNL     1       1.917   5.674  20.235  0.00  0.00    +0.000 C 
ATOM      8  O   UNL     1       0.762   5.550  20.612  0.00  0.00    +0.000 OA
ATOM      9  H   UNL     1       3.433   6.968  19.636  0.00  0.00    +0.000 HD
BRANCH   6  14
ATOM     10  C   UNL     1       0.096  12.237  19.837  0.00  0.00    +0.000 C 
ATOM     11  C   UNL     1       0.546  10.800  19.835  0.00  0.00    +0.000 A 
ATOM     12  C   UNL     1       0.932  10.179  18.646  0.00  0.00    +0.000 A 
ATOM     13  C   UNL     1       1.520   8.895  18.639  0.00  0.00    +0.000 A 
ATOM     14  C   UNL     1       1.751   8.188  19.823  0.00  0.00    +0.000 A 
ATOM     15  C   UNL     1       1.289   8.795  21.007  0.00  0.00    +0.000 A 
ATOM     16  F   UNL     1       1.433   8.157  22.182  0.00  0.00    +0.000 F 
ATOM     17  C   UNL     1       0.694  10.077  21.022  0.00  0.00    +0.000 A 
ENDBRANCH   6  14
ENDBRANCH   1   7
BRANCH   5  18
ATOM     18  S   UNL     1       4.852   5.079  18.235  0.00  0.00    +0.000 S 
ATOM     19  O   UNL     1       3.785   5.664  17.449  0.00  0.00    +0.000 OA
ATOM     20  O   UNL     1       5.678   5.927  19.079  0.00  0.00    +0.000 OA
BRANCH  18  21
ATOM     21  N   UNL     1       5.880   4.299  17.166  0.00  0.00    +0.000 NA
ATOM     22  C   UNL     1       7.253   4.837  17.000  0.00  0.00    +0.000 C 
ATOM     23  C   UNL     1       7.500   5.572  15.690  0.00  0.00    +0.000 C 
ATOM     24  C   UNL     1       7.052   4.784  14.495  0.00  0.00    +0.000 A 
ATOM     25  C   UNL     1       7.692   4.919  13.255  0.00  0.00    +0.000 A 
ATOM     26  C   UNL     1       7.137   4.352  12.108  0.00  0.00    +0.000 A 
ATOM     27  C   UNL     1       5.935   3.655  12.192  0.00  0.00    +0.000 A 
ATOM     28  C   UNL     1       5.325   3.471  13.434  0.00  0.00    +0.000 A 
ATOM     29  C   UNL     1       5.893   4.010  14.600  0.00  0.00    +0.000 A 
ATOM     30  C   UNL     1       5.205   3.804  15.929  0.00  0.00    +0.000 C 
ENDBRANCH  18  21
ENDBRANCH   5  18
TORSDOF 4
ENDMDL
MODEL 3
REMARK VINA RESULT:      -7.9      5.135      8.331
REMARK  Name = 
REMARK  5 active torsions:
REMARK  status: ('A' for Active; 'I' for Inactive)
REMARK    1  A    between atoms: C_1  and  C_2
REMARK    2  A    between atoms: C_5  and  N_6
REMARK    3  A    between atoms: C_7  and  C_9
REMARK    4  A    between atoms: C_13  and  S_14
REMARK    5  A    between atoms: S_14  and  N_17
REMARK                            x       y       z     vdW  Elec       q    Type
REMARK                         _______ _______ _______ _____ _____    ______ ____
ROOT
ATOM      1  C   UNL     1      -2.092  12.484  20.994  0.00  0.00    +0.000 A 
ATOM      2  S   UNL     1      -3.200  13.618  21.720  0.00  0.00    +0.000 S 
ATOM      3  C   UNL     1      -2.741  13.216  23.308  0.00  0.00    +0.000 A 
ATOM      4  C   UNL     1      -1.761  12.264  23.314  0.00  0.00    +0.000 A 
ATOM      5  C   UNL     1      -1.355  11.848  21.992  0.00  0.00    +0.000 A 
ENDROOT
BRANCH   1   7
ATOM      6  N   UNL     1      -2.939  11.363  18.945  0.00  0.00    +0.000 N 
ATOM      7  C   UNL     1      -2.108  12.348  19.523  0.00  0.00    +0.000 C 
ATOM      8  O   UNL     1      -1.376  13.046  18.839  0.00  0.00    +0.000 OA
ATOM      9  H   UNL     1      -3.480  10.784  19.581  0.00  0.00    +0.000 HD
BRANCH   6  14
ATOM     10  C   UNL     1      -3.906   9.770  13.451  0.00  0.00    +0.000 C 
ATOM     11  C   UNL     1      -3.557  10.311  14.814  0.00  0.00    +0.000 A 
ATOM     12  C   UNL     1      -4.399  11.225  15.449  0.00  0.00    +0.000 A 
ATOM     13  C   UNL     1      -4.188  11.614  16.791  0.00  0.00    +0.000 A 
ATOM     14  C   UNL     1      -3.133  11.095  17.548  0.00  0.00    +0.000 A 
ATOM     15  C   UNL     1      -2.251  10.232  16.870  0.00  0.00    +0.000 A 
ATOM     16  F   UNL     1      -1.185   9.727  17.518  0.00  0.00    +0.000 F 
ATOM     17  C   UNL     1      -2.450   9.842  15.526  0.00  0.00    +0.000 A 
ENDBRANCH   6  14
ENDBRANCH   1   7
BRANCH   5  18
ATOM     18  S   UNL     1      -0.004  10.736  21.961  0.00  0.00    +0.000 S 
ATOM     19  O   UNL     1       1.053  11.634  21.546  0.00  0.00    +0.000 OA
ATOM     20  O   UNL     1      -0.007  10.196  23.311  0.00  0.00    +0.000 OA
BRANCH  18  21
ATOM     21  N   UNL     1       0.016   9.431  20.910  0.00  0.00    +0.000 NA
ATOM     22  C   UNL     1       0.112   8.069  21.491  0.00  0.00    +0.000 C 
ATOM     23  C   UNL     1       1.467   7.395  21.327  0.00  0.00    +0.000 C 
ATOM     24  C   UNL     1       1.966   7.445  19.912  0.00  0.00    +0.000 A 
ATOM     25  C   UNL     1       2.789   6.433  19.398  0.00  0.00    +0.000 A 
ATOM     26  C   UNL     1       3.420   6.595  18.165  0.00  0.00    +0.000 A 
ATOM     27  C   UNL     1       3.239   7.772  17.444  0.00  0.00    +0.000 A 
ATOM     28  C   UNL     1       2.376   8.756  17.927  0.00  0.00    +0.000 A 
ATOM     29  C   UNL     1       1.710   8.588  19.152  0.00  0.00    +0.000 A 
ATOM     30  C   UNL     1       0.790   9.676  19.656  0.00  0.00    +0.000 C 
ENDBRANCH  18  21
ENDBRANCH   5  18
TORSDOF 4
ENDMDL
MODEL 4
REMARK VINA RESULT:      -7.7      8.795     11.473
REMARK  Name = 
REMARK  5 active torsions:
REMARK  status: ('A' for Active; 'I' for Inactive)
REMARK    1  A    between atoms: C_1  and  C_2
REMARK    2  A    between atoms: C_5  and  N_6
REMARK    3  A    between atoms: C_7  and  C_9
REMARK    4  A    between atoms: C_13  and  S_14
REMARK    5  A    between atoms: S_14  and  N_17
REMARK                            x       y       z     vdW  Elec       q    Type
REMARK                         _______ _______ _______ _____ _____    ______ ____
ROOT
ATOM      1  C   UNL     1      -4.956  13.989  21.800  0.00  0.00    +0.000 A 
ATOM      2  S   UNL     1      -5.871  15.404  21.353  0.00  0.00    +0.000 S 
ATOM      3  C   UNL     1      -5.644  16.160  22.860  0.00  0.00    +0.000 A 
ATOM      4  C   UNL     1      -4.882  15.388  23.692  0.00  0.00    +0.000 A 
ATOM      5  C   UNL     1      -4.454  14.146  23.091  0.00  0.00    +0.000 A 
ENDROOT
BRANCH   1   7
ATOM      6  N   UNL     1      -4.056  13.056  19.680  0.00  0.00    +0.000 N 
ATOM      7  C   UNL     1      -4.869  12.885  20.822  0.00  0.00    +0.000 C 
ATOM      8  O   UNL     1      -5.531  11.872  20.988  0.00  0.00    +0.000 OA
ATOM      9  H   UNL     1      -3.577  13.947  19.584  0.00  0.00    +0.000 HD
BRANCH   6  14
ATOM     10  C   UNL     1      -2.913   9.636  15.137  0.00  0.00    +0.000 C 
ATOM     11  C   UNL     1      -3.288  10.387  16.387  0.00  0.00    +0.000 A 
ATOM     12  C   UNL     1      -2.394  10.476  17.455  0.00  0.00    +0.000 A 
ATOM     13  C   UNL     1      -2.649  11.314  18.564  0.00  0.00    +0.000 A 
ATOM     14  C   UNL     1      -3.802  12.101  18.639  0.00  0.00    +0.000 A 
ATOM     15  C   UNL     1      -4.728  11.945  17.589  0.00  0.00    +0.000 A 
ATOM     16  F   UNL     1      -5.883  12.634  17.613  0.00  0.00    +0.000 F 
ATOM     17  C   UNL     1      -4.485  11.103  16.480  0.00  0.00    +0.000 A 
ENDBRANCH   6  14
ENDBRANCH   1   7
BRANCH   5  18
ATOM     18  S   UNL     1      -3.359  13.201  24.076  0.00  0.00    +0.000 S 
ATOM     19  O   UNL     1      -3.317  14.024  25.267  0.00  0.00    +0.000 OA
ATOM     20  O   UNL     1      -4.009  11.902  24.117  0.00  0.00    +0.000 OA
BRANCH  18  21
ATOM     21  N   UNL     1      -1.773  12.942  23.599  0.00  0.00    +0.000 NA
ATOM     22  C   UNL     1      -1.064  14.048  22.910  0.00  0.00    +0.000 C 
ATOM     23  C   UNL     1      -0.865  13.849  21.413  0.00  0.00    +0.000 C 
ATOM     24  C   UNL     1      -0.280  12.507  21.085  0.00  0.00    +0.000 A 
ATOM     25  C   UNL     1       0.537  12.328  19.959  0.00  0.00    +0.000 A 
ATOM     26  C   UNL     1       0.895  11.046  19.544  0.00  0.00    +0.000 A 
ATOM     27  C   UNL     1       0.432   9.936  20.244  0.00  0.00    +0.000 A 
ATOM     28  C   UNL     1      -0.334  10.113  21.397  0.00  0.00    +0.000 A 
ATOM     29  C   UNL     1      -0.673  11.402  21.843  0.00  0.00    +0.000 A 
ATOM     30  C   UNL     1      -1.512  11.563  23.089  0.00  0.00    +0.000 C 
ENDBRANCH  18  21
ENDBRANCH   5  18
TORSDOF 4
ENDMDL
MODEL 5
REMARK VINA RESULT:      -7.7      0.879      1.585
REMARK  Name = 
REMARK  5 active torsions:
REMARK  status: ('A' for Active; 'I' for Inactive)
REMARK    1  A    between atoms: C_1  and  C_2
REMARK    2  A    between atoms: C_5  and  N_6
REMARK    3  A    between atoms: C_7  and  C_9
REMARK    4  A    between atoms: C_13  and  S_14
REMARK    5  A    between atoms: S_14  and  N_17
REMARK                            x       y       z     vdW  Elec       q    Type
REMARK                         _______ _______ _______ _____ _____    ______ ____
ROOT
ATOM      1  C   UNL     1       3.254   4.125  19.958  0.00  0.00    +0.000 A 
ATOM      2  S   UNL     1       2.780   2.812  21.001  0.00  0.00    +0.000 S 
ATOM      3  C   UNL     1       4.205   1.926  20.715  0.00  0.00    +0.000 A 
ATOM      4  C   UNL     1       5.042   2.597  19.869  0.00  0.00    +0.000 A 
ATOM      5  C   UNL     1       4.525   3.876  19.442  0.00  0.00    +0.000 A 
ENDROOT
BRANCH   1   7
ATOM      6  N   UNL     1       2.714   6.548  20.046  0.00  0.00    +0.000 N 
ATOM      7  C   UNL     1       2.294   5.231  19.760  0.00  0.00    +0.000 C 
ATOM      8  O   UNL     1       1.152   4.989  19.403  0.00  0.00    +0.000 OA
ATOM      9  H   UNL     1       3.663   6.666  20.390  0.00  0.00    +0.000 HD
BRANCH   6  14
ATOM     10  C   UNL     1      -0.711  11.135  19.109  0.00  0.00    +0.000 C 
ATOM     11  C   UNL     1       0.303  10.057  19.388  0.00  0.00    +0.000 A 
ATOM     12  C   UNL     1       0.399   9.486  20.658  0.00  0.00    +0.000 A 
ATOM     13  C   UNL     1       1.216   8.361  20.903  0.00  0.00    +0.000 A 
ATOM     14  C   UNL     1       1.960   7.759  19.883  0.00  0.00    +0.000 A 
ATOM     15  C   UNL     1       1.911   8.392  18.626  0.00  0.00    +0.000 A 
ATOM     16  F   UNL     1       2.636   7.899  17.605  0.00  0.00    +0.000 F 
ATOM     17  C   UNL     1       1.101   9.522  18.374  0.00  0.00    +0.000 A 
ENDBRANCH   6  14
ENDBRANCH   1   7
BRANCH   5  18
ATOM     18  S   UNL     1       5.633   4.822  18.473  0.00  0.00    +0.000 S 
ATOM     19  O   UNL     1       5.600   6.073  19.202  0.00  0.00    +0.000 OA
ATOM     20  O   UNL     1       6.839   4.010  18.485  0.00  0.00    +0.000 OA
BRANCH  18  21
ATOM     21  N   UNL     1       5.294   5.176  16.870  0.00  0.00    +0.000 NA
ATOM     22  C   UNL     1       4.318   4.315  16.159  0.00  0.00    +0.000 C 
ATOM     23  C   UNL     1       4.927   3.357  15.144  0.00  0.00    +0.000 C 
ATOM     24  C   UNL     1       5.872   4.042  14.202  0.00  0.00    +0.000 A 
ATOM     25  C   UNL     1       6.051   3.580  12.890  0.00  0.00    +0.000 A 
ATOM     26  C   UNL     1       7.082   4.084  12.099  0.00  0.00    +0.000 A 
ATOM     27  C   UNL     1       7.945   5.046  12.615  0.00  0.00    +0.000 A 
ATOM     28  C   UNL     1       7.735   5.548  13.900  0.00  0.00    +0.000 A 
ATOM     29  C   UNL     1       6.679   5.071  14.694  0.00  0.00    +0.000 A 
ATOM     30  C   UNL     1       6.483   5.625  16.085  0.00  0.00    +0.000 C 
ENDBRANCH  18  21
ENDBRANCH   5  18
TORSDOF 4
ENDMDL
MODEL 6
REMARK VINA RESULT:      -7.6      1.166      1.981
REMARK  Name = 
REMARK  5 active torsions:
REMARK  status: ('A' for Active; 'I' for Inactive)
REMARK    1  A    between atoms: C_1  and  C_2
REMARK    2  A    between atoms: C_5  and  N_6
REMARK    3  A    between atoms: C_7  and  C_9
REMARK    4  A    between atoms: C_13  and  S_14
REMARK    5  A    between atoms: S_14  and  N_17
REMARK                            x       y       z     vdW  Elec       q    Type
REMARK                         _______ _______ _______ _____ _____    ______ ____
ROOT
ATOM      1  C   UNL     1       3.165   4.186  20.072  0.00  0.00    +0.000 A 
ATOM      2  S   UNL     1       2.672   2.863  21.094  0.00  0.00    +0.000 S 
ATOM      3  C   UNL     1       4.063   1.943  20.758  0.00  0.00    +0.000 A 
ATOM      4  C   UNL     1       4.904   2.607  19.910  0.00  0.00    +0.000 A 
ATOM      5  C   UNL     1       4.418   3.912  19.524  0.00  0.00    +0.000 A 
ENDROOT
BRANCH   1   7
ATOM      6  N   UNL     1       2.772   6.601  19.638  0.00  0.00    +0.000 N 
ATOM      7  C   UNL     1       2.236   5.325  19.919  0.00  0.00    +0.000 C 
ATOM      8  O   UNL     1       1.038   5.159  20.084  0.00  0.00    +0.000 OA
ATOM      9  H   UNL     1       3.784   6.671  19.567  0.00  0.00    +0.000 HD
BRANCH   6  14
ATOM     10  C   UNL     1       0.273  11.795  18.990  0.00  0.00    +0.000 C 
ATOM     11  C   UNL     1       0.768  10.379  19.123  0.00  0.00    +0.000 A 
ATOM     12  C   UNL     1       1.348   9.726  18.034  0.00  0.00    +0.000 A 
ATOM     13  C   UNL     1       1.973   8.467  18.175  0.00  0.00    +0.000 A 
ATOM     14  C   UNL     1       2.050   7.821  19.412  0.00  0.00    +0.000 A 
ATOM     15  C   UNL     1       1.396   8.457  20.485  0.00  0.00    +0.000 A 
ATOM     16  F   UNL     1       1.386   7.875  21.698  0.00  0.00    +0.000 F 
ATOM     17  C   UNL     1       0.762   9.713  20.352  0.00  0.00    +0.000 A 
ENDBRANCH   6  14
ENDBRANCH   1   7
BRANCH   5  18
ATOM     18  S   UNL     1       5.535   4.847  18.555  0.00  0.00    +0.000 S 
ATOM     19  O   UNL     1       5.508   6.101  19.279  0.00  0.00    +0.000 OA
ATOM     20  O   UNL     1       6.735   4.027  18.574  0.00  0.00    +0.000 OA
BRANCH  18  21
ATOM     21  N   UNL     1       5.203   5.197  16.950  0.00  0.00    +0.000 NA
ATOM     22  C   UNL     1       4.226   4.337  16.238  0.00  0.00    +0.000 C 
ATOM     23  C   UNL     1       4.835   3.373  15.229  0.00  0.00    +0.000 C 
ATOM     24  C   UNL     1       5.786   4.052  14.287  0.00  0.00    +0.000 A 
ATOM     25  C   UNL     1       5.968   3.584  12.978  0.00  0.00    +0.000 A 
ATOM     26  C   UNL     1       7.004   4.082  12.188  0.00  0.00    +0.000 A 
ATOM     27  C   UNL     1       7.869   5.042  12.705  0.00  0.00    +0.000 A 
ATOM     28  C   UNL     1       7.657   5.549  13.987  0.00  0.00    +0.000 A 
ATOM     29  C   UNL     1       6.595   5.079  14.779  0.00  0.00    +0.000 A 
ATOM     30  C   UNL     1       6.396   5.639  16.168  0.00  0.00    +0.000 C 
ENDBRANCH  18  21
ENDBRANCH   5  18
TORSDOF 4
ENDMDL
MODEL 7
REMARK VINA RESULT:      -7.5      9.241     11.741
REMARK  Name = 
REMARK  5 active torsions:
REMARK  status: ('A' for Active; 'I' for Inactive)
REMARK    1  A    between atoms: C_1  and  C_2
REMARK    2  A    between atoms: C_5  and  N_6
REMARK    3  A    between atoms: C_7  and  C_9
REMARK    4  A    between atoms: C_13  and  S_14
REMARK    5  A    between atoms: S_14  and  N_17
REMARK                            x       y       z     vdW  Elec       q    Type
REMARK                         _______ _______ _______ _____ _____    ______ ____
ROOT
ATOM      1  C   UNL     1      -5.602  13.602  21.884  0.00  0.00    +0.000 A 
ATOM      2  S   UNL     1      -7.007  14.624  21.740  0.00  0.00    +0.000 S 
ATOM      3  C   UNL     1      -6.721  15.410  23.222  0.00  0.00    +0.000 A 
ATOM      4  C   UNL     1      -5.585  14.941  23.820  0.00  0.00    +0.000 A 
ATOM      5  C   UNL     1      -4.912  13.918  23.054  0.00  0.00    +0.000 A 
ENDROOT
BRANCH   1   7
ATOM      6  N   UNL     1      -4.478  12.907  19.780  0.00  0.00    +0.000 N 
ATOM      7  C   UNL     1      -5.370  12.594  20.829  0.00  0.00    +0.000 C 
ATOM      8  O   UNL     1      -5.982  11.537  20.853  0.00  0.00    +0.000 OA
ATOM      9  H   UNL     1      -4.047  13.827  19.800  0.00  0.00    +0.000 HD
BRANCH   6  14
ATOM     10  C   UNL     1      -2.798   9.961  15.074  0.00  0.00    +0.000 C 
ATOM     11  C   UNL     1      -3.301  10.578  16.353  0.00  0.00    +0.000 A 
ATOM     12  C   UNL     1      -2.468  10.674  17.469  0.00  0.00    +0.000 A 
ATOM     13  C   UNL     1      -2.854  11.399  18.618  0.00  0.00    +0.000 A 
ATOM     14  C   UNL     1      -4.083  12.061  18.689  0.00  0.00    +0.000 A 
ATOM     15  C   UNL     1      -4.942  11.893  17.586  0.00  0.00    +0.000 A 
ATOM     16  F   UNL     1      -6.161  12.462  17.599  0.00  0.00    +0.000 F 
ATOM     17  C   UNL     1      -4.567  11.164  16.435  0.00  0.00    +0.000 A 
ENDBRANCH   6  14
ENDBRANCH   1   7
BRANCH   5  18
ATOM     18  S   UNL     1      -3.381  13.398  23.721  0.00  0.00    +0.000 S 
ATOM     19  O   UNL     1      -3.421  14.074  25.001  0.00  0.00    +0.000 OA
ATOM     20  O   UNL     1      -3.485  11.949  23.665  0.00  0.00    +0.000 OA
BRANCH  18  21
ATOM     21  N   UNL     1      -1.933  13.816  22.988  0.00  0.00    +0.000 NA
ATOM     22  C   UNL     1      -1.885  15.077  22.209  0.00  0.00    +0.000 C 
ATOM     23  C   UNL     1      -1.853  14.897  20.697  0.00  0.00    +0.000 C 
ATOM     24  C   UNL     1      -0.804  13.918  20.257  0.00  0.00    +0.000 A 
ATOM     25  C   UNL     1      -0.174  14.041  19.011  0.00  0.00    +0.000 A 
ATOM     26  C   UNL     1       0.634  13.014  18.524  0.00  0.00    +0.000 A 
ATOM     27  C   UNL     1       0.809  11.855  19.274  0.00  0.00    +0.000 A 
ATOM     28  C   UNL     1       0.229  11.754  20.539  0.00  0.00    +0.000 A 
ATOM     29  C   UNL     1      -0.559  12.797  21.054  0.00  0.00    +0.000 A 
ATOM     30  C   UNL     1      -1.184  12.654  22.422  0.00  0.00    +0.000 C 
ENDBRANCH  18  21
ENDBRANCH   5  18
TORSDOF 4
ENDMDL
MODEL 8
REMARK VINA RESULT:      -7.4      1.408      1.649
REMARK  Name = 
REMARK  5 active torsions:
REMARK  status: ('A' for Active; 'I' for Inactive)
REMARK    1  A    between atoms: C_1  and  C_2
REMARK    2  A    between atoms: C_5  and  N_6
REMARK    3  A    between atoms: C_7  and  C_9
REMARK    4  A    between atoms: C_13  and  S_14
REMARK    5  A    between atoms: S_14  and  N_17
REMARK                            x       y       z     vdW  Elec       q    Type
REMARK                         _______ _______ _______ _____ _____    ______ ____
ROOT
ATOM      1  C   UNL     1       2.242   5.489  19.769  0.00  0.00    +0.000 A 
ATOM      2  S   UNL     1       1.151   4.275  20.383  0.00  0.00    +0.000 S 
ATOM      3  C   UNL     1       1.948   3.001  19.585  0.00  0.00    +0.000 A 
ATOM      4  C   UNL     1       3.027   3.455  18.880  0.00  0.00    +0.000 A 
ATOM      5  C   UNL     1       3.229   4.881  18.995  0.00  0.00    +0.000 A 
ENDROOT
BRANCH   1   7
ATOM      6  N   UNL     1       0.815   7.200  20.869  0.00  0.00    +0.000 N 
ATOM      7  C   UNL     1       1.969   6.900  20.112  0.00  0.00    +0.000 C 
ATOM      8  O   UNL     1       2.708   7.780  19.700  0.00  0.00    +0.000 OA
ATOM      9  H   UNL     1       0.219   6.420  21.131  0.00  0.00    +0.000 HD
BRANCH   6  14
ATOM     10  C   UNL     1      -1.416  12.261  22.619  0.00  0.00    +0.000 C 
ATOM     11  C   UNL     1      -0.683  11.023  22.171  0.00  0.00    +0.000 A 
ATOM     12  C   UNL     1      -0.283  10.061  23.100  0.00  0.00    +0.000 A 
ATOM     13  C   UNL     1       0.249   8.817  22.693  0.00  0.00    +0.000 A 
ATOM     14  C   UNL     1       0.392   8.488  21.342  0.00  0.00    +0.000 A 
ATOM     15  C   UNL     1       0.055   9.497  20.419  0.00  0.00    +0.000 A 
ATOM     16  F   UNL     1       0.208   9.272  19.102  0.00  0.00    +0.000 F 
ATOM     17  C   UNL     1      -0.472  10.747  20.818  0.00  0.00    +0.000 A 
ENDBRANCH   6  14
ENDBRANCH   1   7
BRANCH   5  18
ATOM     18  S   UNL     1       4.683   5.474  18.223  0.00  0.00    +0.000 S 
ATOM     19  O   UNL     1       4.121   6.524  17.399  0.00  0.00    +0.000 OA
ATOM     20  O   UNL     1       5.527   5.817  19.356  0.00  0.00    +0.000 OA
BRANCH  18  21
ATOM     21  N   UNL     1       5.589   4.488  17.215  0.00  0.00    +0.000 NA
ATOM     22  C   UNL     1       7.037   4.776  17.077  0.00  0.00    +0.000 C 
ATOM     23  C   UNL     1       7.443   5.407  15.752  0.00  0.00    +0.000 C 
ATOM     24  C   UNL     1       6.897   4.662  14.569  0.00  0.00    +0.000 A 
ATOM     25  C   UNL     1       7.584   4.638  13.347  0.00  0.00    +0.000 A 
ATOM     26  C   UNL     1       6.970   4.131  12.203  0.00  0.00    +0.000 A 
ATOM     27  C   UNL     1       5.664   3.654  12.270  0.00  0.00    +0.000 A 
ATOM     28  C   UNL     1       4.999   3.626  13.496  0.00  0.00    +0.000 A 
ATOM     29  C   UNL     1       5.621   4.103  14.662  0.00  0.00    +0.000 A 
ATOM     30  C   UNL     1       4.871   4.070  15.973  0.00  0.00    +0.000 C 
ENDBRANCH  18  21
ENDBRANCH   5  18
TORSDOF 4
ENDMDL
MODEL 9
REMARK VINA RESULT:      -7.3      1.346      1.687
REMARK  Name = 
REMARK  5 active torsions:
REMARK  status: ('A' for Active; 'I' for Inactive)
REMARK    1  A    between atoms: C_1  and  C_2
REMARK    2  A    between atoms: C_5  and  N_6
REMARK    3  A    between atoms: C_7  and  C_9
REMARK    4  A    between atoms: C_13  and  S_14
REMARK    5  A    between atoms: S_14  and  N_17
REMARK                            x       y       z     vdW  Elec       q    Type
REMARK                         _______ _______ _______ _____ _____    ______ ____
ROOT
ATOM      1  C   UNL     1       2.541   4.528  18.910  0.00  0.00    +0.000 A 
ATOM      2  S   UNL     1       1.465   3.313  19.547  0.00  0.00    +0.000 S 
ATOM      3  C   UNL     1       2.687   2.135  19.658  0.00  0.00    +0.000 A 
ATOM      4  C   UNL     1       3.892   2.630  19.247  0.00  0.00    +0.000 A 
ATOM      5  C   UNL     1       3.835   4.014  18.837  0.00  0.00    +0.000 A 
ENDROOT
BRANCH   1   7
ATOM      6  N   UNL     1       2.291   6.966  19.318  0.00  0.00    +0.000 N 
ATOM      7  C   UNL     1       1.963   5.836  18.538  0.00  0.00    +0.000 C 
ATOM      8  O   UNL     1       1.182   5.912  17.603  0.00  0.00    +0.000 OA
ATOM      9  H   UNL     1       2.906   6.815  20.114  0.00  0.00    +0.000 HD
BRANCH   6  14
ATOM     10  C   UNL     1       0.994  12.600  18.849  0.00  0.00    +0.000 C 
ATOM     11  C   UNL     1       1.181  11.106  18.891  0.00  0.00    +0.000 A 
ATOM     12  C   UNL     1       1.891  10.452  17.884  0.00  0.00    +0.000 A 
ATOM     13  C   UNL     1       2.229   9.084  17.987  0.00  0.00    +0.000 A 
ATOM     14  C   UNL     1       1.876   8.324  19.106  0.00  0.00    +0.000 A 
ATOM     15  C   UNL     1       1.096   8.979  20.079  0.00  0.00    +0.000 A 
ATOM     16  F   UNL     1       0.678   8.301  21.163  0.00  0.00    +0.000 F 
ATOM     17  C   UNL     1       0.748  10.345  19.981  0.00  0.00    +0.000 A 
ENDBRANCH   6  14
ENDBRANCH   1   7
BRANCH   5  18
ATOM     18  S   UNL     1       5.386   4.721  18.442  0.00  0.00    +0.000 S 
ATOM     19  O   UNL     1       4.961   6.033  18.000  0.00  0.00    +0.000 OA
ATOM     20  O   UNL     1       6.126   4.580  19.685  0.00  0.00    +0.000 OA
BRANCH  18  21
ATOM     21  N   UNL     1       6.343   4.077  17.225  0.00  0.00    +0.000 NA
ATOM     22  C   UNL     1       7.637   4.740  16.933  0.00  0.00    +0.000 C 
ATOM     23  C   UNL     1       7.668   5.547  15.642  0.00  0.00    +0.000 C 
ATOM     24  C   UNL     1       7.149   4.771  14.467  0.00  0.00    +0.000 A 
ATOM     25  C   UNL     1       7.626   5.013  13.170  0.00  0.00    +0.000 A 
ATOM     26  C   UNL     1       6.989   4.446  12.067  0.00  0.00    +0.000 A 
ATOM     27  C   UNL     1       5.866   3.644  12.251  0.00  0.00    +0.000 A 
ATOM     28  C   UNL     1       5.423   3.357  13.543  0.00  0.00    +0.000 A 
ATOM     29  C   UNL     1       6.079   3.895  14.663  0.00  0.00    +0.000 A 
ATOM     30  C   UNL     1       5.570   3.576  16.049  0.00  0.00    +0.000 C 
ENDBRANCH  18  21
ENDBRANCH   5  18
TORSDOF 4
ENDMDL
