MODEL 1
REMARK VINA RESULT:      -7.7      0.000      0.000
REMARK  Name = 
REMARK  8 active torsions:
REMARK  status: ('A' for Active; 'I' for Inactive)
REMARK    1  A    between atoms: C_1  and  N_2
REMARK    2  A    between atoms: N_2  and  C_19
REMARK    3  A    between atoms: C_3  and  C_5
REMARK    4  A    between atoms: C_10  and  N_11
REMARK    5  A    between atoms: N_11  and  C_12
REMARK    6  A    between atoms: C_20  and  N_21
REMARK    7  A    between atoms: N_22  and  C_23
REMARK    8  A    between atoms: C_23  and  C_24
REMARK                            x       y       z     vdW  Elec       q    Type
REMARK                         _______ _______ _______ _____ _____    ______ ____
ROOT
ATOM      1  C   UNL     1      -0.936   9.553  19.345  0.00  0.00    +0.000 C 
ATOM      2  N   UNL     1       0.416   9.738  19.894  0.00  0.00    +0.000 N 
ATOM      3  C   UNL     1       0.717  10.462  21.076  0.00  0.00    +0.000 C 
ATOM      4  O   UNL     1       1.798  10.364  21.660  0.00  0.00    +0.000 OA
ENDROOT
BRANCH   2   5
ATOM      5  C   UNL     1       1.417   8.915  19.341  0.00  0.00    +0.000 A 
ATOM      6  C   UNL     1       1.943   7.826  19.970  0.00  0.00    +0.000 A 
ATOM      7  N   UNL     1       2.867   7.018  19.300  0.00  0.00    +0.000 N 
ATOM      8  C   UNL     1       3.308   7.300  18.013  0.00  0.00    +0.000 A 
ATOM      9  O   UNL     1       4.138   6.625  17.400  0.00  0.00    +0.000 OA
ATOM     10  N   UNL     1       2.785   8.405  17.415  0.00  0.00    +0.000 N 
ATOM     11  C   UNL     1       2.023   9.336  18.043  0.00  0.00    +0.000 A 
ATOM     12  O   UNL     1       1.942  10.486  17.614  0.00  0.00    +0.000 OA
ATOM     13  H   UNL     1       3.207   8.675  16.544  0.00  0.00    +0.000 HD
BRANCH   6  14
ATOM     14  N   UNL     1       1.517   7.514  21.259  0.00  0.00    +0.000 N 
ATOM     15  H   UNL     1       1.658   6.525  21.454  0.00  0.00    +0.000 HD
ATOM     16  H   UNL     1       1.957   8.085  21.974  0.00  0.00    +0.000 HD
ENDBRANCH   6  14
BRANCH   7  17
ATOM     17  C   UNL     1       3.292   5.719  19.847  0.00  0.00    +0.000 C 
BRANCH  17  18
ATOM     18  C   UNL     1       2.411   4.539  19.502  0.00  0.00    +0.000 A 
ATOM     19  C   UNL     1       2.703   3.777  18.356  0.00  0.00    +0.000 A 
ATOM     20  C   UNL     1       1.904   2.690  17.995  0.00  0.00    +0.000 A 
ATOM     21  C   UNL     1       0.815   2.334  18.786  0.00  0.00    +0.000 A 
ATOM     22  C   UNL     1       0.549   3.041  19.957  0.00  0.00    +0.000 A 
ATOM     23  C   UNL     1       1.349   4.128  20.318  0.00  0.00    +0.000 A 
ENDBRANCH  17  18
ENDBRANCH   7  17
ENDBRANCH   2   5
BRANCH   3  24
ATOM     24  C   UNL     1      -0.259  11.473  21.615  0.00  0.00    +0.000 A 
ATOM     25  C   UNL     1      -1.129  11.089  22.658  0.00  0.00    +0.000 A 
ATOM     26  C   UNL     1      -1.975  12.009  23.281  0.00  0.00    +0.000 A 
ATOM     27  C   UNL     1      -1.974  13.328  22.861  0.00  0.00    +0.000 A 
ATOM     28  C   UNL     1      -1.194  13.695  21.771  0.00  0.00    +0.000 A 
ATOM     29  C   UNL     1      -0.398  12.767  21.066  0.00  0.00    +0.000 A 
BRANCH  29  30
ATOM     30  N   UNL     1       0.220  13.192  19.855  0.00  0.00    +0.000 N 
ATOM     31  H   UNL     1      -0.423  13.686  19.226  0.00  0.00    +0.000 HD
BRANCH  30  32
ATOM     32  C   UNL     1       1.573  13.613  19.703  0.00  0.00    +0.000 A 
ATOM     33  C   UNL     1       2.365  13.823  20.837  0.00  0.00    +0.000 A 
ATOM     34  C   UNL     1       3.644  14.391  20.719  0.00  0.00    +0.000 A 
ATOM     35  C   UNL     1       4.141  14.723  19.465  0.00  0.00    +0.000 A 
ATOM     36  F   UNL     1       5.337  15.310  19.361  0.00  0.00    +0.000 F 
ATOM     37  C   UNL     1       3.406  14.462  18.320  0.00  0.00    +0.000 A 
ATOM     38  C   UNL     1       2.135  13.893  18.442  0.00  0.00    +0.000 A 
ENDBRANCH  30  32
ENDBRANCH  29  30
ENDBRANCH   3  24
TORSDOF 7
ENDMDL
MODEL 2
REMARK VINA RESULT:      -7.6      0.923      1.272
REMARK  Name = 
REMARK  8 active torsions:
REMARK  status: ('A' for Active; 'I' for Inactive)
REMARK    1  A    between atoms: C_1  and  N_2
REMARK    2  A    between atoms: N_2  and  C_19
REMARK    3  A    between atoms: C_3  and  C_5
REMARK    4  A    between atoms: C_10  and  N_11
REMARK    5  A    between atoms: N_11  and  C_12
REMARK    6  A    between atoms: C_20  and  N_21
REMARK    7  A    between atoms: N_22  and  C_23
REMARK    8  A    between atoms: C_23  and  C_24
REMARK                            x       y       z     vdW  Elec       q    Type
REMARK                         _______ _______ _______ _____ _____    ______ ____
ROOT
ATOM      1  C   UNL     1      -1.109   9.612  19.376  0.00  0.00    +0.000 C 
ATOM      2  N   UNL     1       0.249   9.925  19.844  0.00  0.00    +0.000 N 
ATOM      3  C   UNL     1       0.552  10.760  20.950  0.00  0.00    +0.000 C 
ATOM      4  O   UNL     1       1.661  10.778  21.488  0.00  0.00    +0.000 OA
ENDROOT
BRANCH   2   5
ATOM      5  C   UNL     1       1.278   9.125  19.309  0.00  0.00    +0.000 A 
ATOM      6  C   UNL     1       1.821   8.052  19.951  0.00  0.00    +0.000 A 
ATOM      7  N   UNL     1       2.775   7.264  19.299  0.00  0.00    +0.000 N 
ATOM      8  C   UNL     1       3.228   7.552  18.017  0.00  0.00    +0.000 A 
ATOM      9  O   UNL     1       4.083   6.895  17.420  0.00  0.00    +0.000 OA
ATOM     10  N   UNL     1       2.687   8.641  17.407  0.00  0.00    +0.000 N 
ATOM     11  C   UNL     1       1.893   9.556  18.018  0.00  0.00    +0.000 A 
ATOM     12  O   UNL     1       1.789  10.701  17.583  0.00  0.00    +0.000 OA
ATOM     13  H   UNL     1       3.115   8.918  16.540  0.00  0.00    +0.000 HD
BRANCH   6  14
ATOM     14  N   UNL     1       1.384   7.736  21.236  0.00  0.00    +0.000 N 
ATOM     15  H   UNL     1       1.941   6.979  21.627  0.00  0.00    +0.000 HD
ATOM     16  H   UNL     1       1.376   8.534  21.863  0.00  0.00    +0.000 HD
ENDBRANCH   6  14
BRANCH   7  17
ATOM     17  C   UNL     1       3.223   5.979  19.858  0.00  0.00    +0.000 C 
BRANCH  17  18
ATOM     18  C   UNL     1       2.317   4.796  19.599  0.00  0.00    +0.000 A 
ATOM     19  C   UNL     1       1.676   4.173  20.686  0.00  0.00    +0.000 A 
ATOM     20  C   UNL     1       0.843   3.068  20.489  0.00  0.00    +0.000 A 
ATOM     21  C   UNL     1       0.622   2.584  19.202  0.00  0.00    +0.000 A 
ATOM     22  C   UNL     1       1.201   3.228  18.111  0.00  0.00    +0.000 A 
ATOM     23  C   UNL     1       2.032   4.333  18.307  0.00  0.00    +0.000 A 
ENDBRANCH  17  18
ENDBRANCH   7  17
ENDBRANCH   2   5
BRANCH   3  24
ATOM     24  C   UNL     1      -0.466  11.748  21.455  0.00  0.00    +0.000 A 
ATOM     25  C   UNL     1      -1.205  11.430  22.613  0.00  0.00    +0.000 A 
ATOM     26  C   UNL     1      -2.078  12.349  23.200  0.00  0.00    +0.000 A 
ATOM     27  C   UNL     1      -2.235  13.600  22.627  0.00  0.00    +0.000 A 
ATOM     28  C   UNL     1      -1.587  13.888  21.433  0.00  0.00    +0.000 A 
ATOM     29  C   UNL     1      -0.770  12.946  20.771  0.00  0.00    +0.000 A 
BRANCH  29  30
ATOM     30  N   UNL     1      -0.298  13.263  19.465  0.00  0.00    +0.000 N 
ATOM     31  H   UNL     1      -1.035  13.232  18.751  0.00  0.00    +0.000 HD
BRANCH  30  32
ATOM     32  C   UNL     1       0.740  14.185  19.146  0.00  0.00    +0.000 A 
ATOM     33  C   UNL     1       2.078  13.794  19.276  0.00  0.00    +0.000 A 
ATOM     34  C   UNL     1       3.112  14.732  19.124  0.00  0.00    +0.000 A 
ATOM     35  C   UNL     1       2.811  16.053  18.815  0.00  0.00    +0.000 A 
ATOM     36  F   UNL     1       3.795  16.952  18.722  0.00  0.00    +0.000 F 
ATOM     37  C   UNL     1       1.500  16.451  18.612  0.00  0.00    +0.000 A 
ATOM     38  C   UNL     1       0.473  15.514  18.761  0.00  0.00    +0.000 A 
ENDBRANCH  30  32
ENDBRANCH  29  30
ENDBRANCH   3  24
TORSDOF 7
ENDMDL
MODEL 3
REMARK VINA RESULT:      -7.5      2.872      3.815
REMARK  Name = 
REMARK  8 active torsions:
REMARK  status: ('A' for Active; 'I' for Inactive)
REMARK    1  A    between atoms: C_1  and  N_2
REMARK    2  A    between atoms: N_2  and  C_19
REMARK    3  A    between atoms: C_3  and  C_5
REMARK    4  A    between atoms: C_10  and  N_11
REMARK    5  A    between atoms: N_11  and  C_12
REMARK    6  A    between atoms: C_20  and  N_21
REMARK    7  A    between atoms: N_22  and  C_23
REMARK    8  A    between atoms: C_23  and  C_24
REMARK                            x       y       z     vdW  Elec       q    Type
REMARK                         _______ _______ _______ _____ _____    ______ ____
ROOT
ATOM      1  C   UNL     1      -1.287   8.980  20.268  0.00  0.00    +0.000 C 
ATOM      2  N   UNL     1      -0.008   9.706  20.249  0.00  0.00    +0.000 N 
ATOM      3  C   UNL     1       0.286  10.848  21.037  0.00  0.00    +0.000 C 
ATOM      4  O   UNL     1       1.435  11.259  21.213  0.00  0.00    +0.000 OA
ENDROOT
BRANCH   2   5
ATOM      5  C   UNL     1       1.056   9.049  19.600  0.00  0.00    +0.000 A 
ATOM      6  C   UNL     1       1.721   7.978  20.119  0.00  0.00    +0.000 A 
ATOM      7  N   UNL     1       2.703   7.337  19.357  0.00  0.00    +0.000 N 
ATOM      8  C   UNL     1       3.064   7.773  18.088  0.00  0.00    +0.000 A 
ATOM      9  O   UNL     1       3.939   7.248  17.397  0.00  0.00    +0.000 OA
ATOM     10  N   UNL     1       2.401   8.857  17.602  0.00  0.00    +0.000 N 
ATOM     11  C   UNL     1       1.565   9.642  18.327  0.00  0.00    +0.000 A 
ATOM     12  O   UNL     1       1.342  10.806  18.001  0.00  0.00    +0.000 OA
ATOM     13  H   UNL     1       2.759   9.244  16.745  0.00  0.00    +0.000 HD
BRANCH   6  14
ATOM     14  N   UNL     1       1.379   7.516  21.388  0.00  0.00    +0.000 N 
ATOM     15  H   UNL     1       2.180   7.077  21.837  0.00  0.00    +0.000 HD
ATOM     16  H   UNL     1       0.988   8.238  21.984  0.00  0.00    +0.000 HD
ENDBRANCH   6  14
BRANCH   7  17
ATOM     17  C   UNL     1       3.288   6.054  19.779  0.00  0.00    +0.000 C 
BRANCH  17  18
ATOM     18  C   UNL     1       2.423   4.832  19.558  0.00  0.00    +0.000 A 
ATOM     19  C   UNL     1       1.901   4.151  20.673  0.00  0.00    +0.000 A 
ATOM     20  C   UNL     1       1.111   3.011  20.510  0.00  0.00    +0.000 A 
ATOM     21  C   UNL     1       0.813   2.547  19.231  0.00  0.00    +0.000 A 
ATOM     22  C   UNL     1       1.272   3.246  18.117  0.00  0.00    +0.000 A 
ATOM     23  C   UNL     1       2.061   4.387  18.279  0.00  0.00    +0.000 A 
ENDBRANCH  17  18
ENDBRANCH   7  17
ENDBRANCH   2   5
BRANCH   3  24
ATOM     24  C   UNL     1      -0.829  11.676  21.618  0.00  0.00    +0.000 A 
ATOM     25  C   UNL     1      -1.197  11.470  22.964  0.00  0.00    +0.000 A 
ATOM     26  C   UNL     1      -2.141  12.281  23.598  0.00  0.00    +0.000 A 
ATOM     27  C   UNL     1      -2.742  13.307  22.888  0.00  0.00    +0.000 A 
ATOM     28  C   UNL     1      -2.459  13.457  21.536  0.00  0.00    +0.000 A 
ATOM     29  C   UNL     1      -1.578  12.594  20.849  0.00  0.00    +0.000 A 
BRANCH  29  30
ATOM     30  N   UNL     1      -1.492  12.708  19.432  0.00  0.00    +0.000 N 
ATOM     31  H   UNL     1      -0.537  12.880  19.098  0.00  0.00    +0.000 HD
BRANCH  30  32
ATOM     32  C   UNL     1      -2.291  12.010  18.482  0.00  0.00    +0.000 A 
ATOM     33  C   UNL     1      -1.694  11.472  17.336  0.00  0.00    +0.000 A 
ATOM     34  C   UNL     1      -2.482  10.924  16.312  0.00  0.00    +0.000 A 
ATOM     35  C   UNL     1      -3.866  10.888  16.445  0.00  0.00    +0.000 A 
ATOM     36  F   UNL     1      -4.615  10.412  15.446  0.00  0.00    +0.000 F 
ATOM     37  C   UNL     1      -4.478  11.350  17.599  0.00  0.00    +0.000 A 
ATOM     38  C   UNL     1      -3.688  11.891  18.618  0.00  0.00    +0.000 A 
ENDBRANCH  30  32
ENDBRANCH  29  30
ENDBRANCH   3  24
TORSDOF 7
ENDMDL
MODEL 4
REMARK VINA RESULT:      -7.4      4.677      7.728
REMARK  Name = 
REMARK  8 active torsions:
REMARK  status: ('A' for Active; 'I' for Inactive)
REMARK    1  A    between atoms: C_1  and  N_2
REMARK    2  A    between atoms: N_2  and  C_19
REMARK    3  A    between atoms: C_3  and  C_5
REMARK    4  A    between atoms: C_10  and  N_11
REMARK    5  A    between atoms: N_11  and  C_12
REMARK    6  A    between atoms: C_20  and  N_21
REMARK    7  A    between atoms: N_22  and  C_23
REMARK    8  A    between atoms: C_23  and  C_24
REMARK                            x       y       z     vdW  Elec       q    Type
REMARK                         _______ _______ _______ _____ _____    ______ ____
ROOT
ATOM      1  C   UNL     1       5.256   3.103  18.646  0.00  0.00    +0.000 C 
ATOM      2  N   UNL     1       4.769   4.103  17.684  0.00  0.00    +0.000 N 
ATOM      3  C   UNL     1       3.612   4.904  17.866  0.00  0.00    +0.000 C 
ATOM      4  O   UNL     1       3.388   5.914  17.195  0.00  0.00    +0.000 OA
ENDROOT
BRANCH   2   5
ATOM      5  C   UNL     1       5.668   4.451  16.657  0.00  0.00    +0.000 A 
ATOM      6  C   UNL     1       5.418   4.265  15.330  0.00  0.00    +0.000 A 
ATOM      7  N   UNL     1       6.336   4.728  14.381  0.00  0.00    +0.000 N 
ATOM      8  C   UNL     1       7.528   5.347  14.738  0.00  0.00    +0.000 A 
ATOM      9  O   UNL     1       8.370   5.747  13.931  0.00  0.00    +0.000 OA
ATOM     10  N   UNL     1       7.764   5.500  16.069  0.00  0.00    +0.000 N 
ATOM     11  C   UNL     1       7.024   4.934  17.056  0.00  0.00    +0.000 A 
ATOM     12  O   UNL     1       7.498   4.736  18.173  0.00  0.00    +0.000 OA
ATOM     13  H   UNL     1       8.683   5.824  16.319  0.00  0.00    +0.000 HD
BRANCH   6  14
ATOM     14  N   UNL     1       4.229   3.652  14.941  0.00  0.00    +0.000 N 
ATOM     15  H   UNL     1       4.367   2.652  14.815  0.00  0.00    +0.000 HD
ATOM     16  H   UNL     1       3.462   3.828  15.582  0.00  0.00    +0.000 HD
ENDBRANCH   6  14
BRANCH   7  17
ATOM     17  C   UNL     1       6.012   4.752  12.946  0.00  0.00    +0.000 C 
BRANCH  17  18
ATOM     18  C   UNL     1       6.251   3.461  12.194  0.00  0.00    +0.000 A 
ATOM     19  C   UNL     1       5.152   2.654  11.851  0.00  0.00    +0.000 A 
ATOM     20  C   UNL     1       5.334   1.447  11.170  0.00  0.00    +0.000 A 
ATOM     21  C   UNL     1       6.615   1.041  10.804  0.00  0.00    +0.000 A 
ATOM     22  C   UNL     1       7.707   1.859  11.084  0.00  0.00    +0.000 A 
ATOM     23  C   UNL     1       7.525   3.067  11.763  0.00  0.00    +0.000 A 
ENDBRANCH  17  18
ENDBRANCH   7  17
ENDBRANCH   2   5
BRANCH   3  24
ATOM     24  C   UNL     1       2.544   4.484  18.841  0.00  0.00    +0.000 A 
ATOM     25  C   UNL     1       1.804   3.313  18.574  0.00  0.00    +0.000 A 
ATOM     26  C   UNL     1       0.883   2.804  19.492  0.00  0.00    +0.000 A 
ATOM     27  C   UNL     1       0.677   3.469  20.689  0.00  0.00    +0.000 A 
ATOM     28  C   UNL     1       1.328   4.674  20.919  0.00  0.00    +0.000 A 
ATOM     29  C   UNL     1       2.196   5.257  19.970  0.00  0.00    +0.000 A 
BRANCH  29  30
ATOM     30  N   UNL     1       2.671   6.577  20.213  0.00  0.00    +0.000 N 
ATOM     31  H   UNL     1       3.673   6.687  20.022  0.00  0.00    +0.000 HD
BRANCH  30  32
ATOM     32  C   UNL     1       1.938   7.784  20.023  0.00  0.00    +0.000 A 
ATOM     33  C   UNL     1       1.158   8.292  21.068  0.00  0.00    +0.000 A 
ATOM     34  C   UNL     1       0.303   9.386  20.853  0.00  0.00    +0.000 A 
ATOM     35  C   UNL     1       0.249   9.987  19.601  0.00  0.00    +0.000 A 
ATOM     36  F   UNL     1      -0.602  10.994  19.387  0.00  0.00    +0.000 F 
ATOM     37  C   UNL     1       1.062   9.549  18.569  0.00  0.00    +0.000 A 
ATOM     38  C   UNL     1       1.914   8.462  18.789  0.00  0.00    +0.000 A 
ENDBRANCH  30  32
ENDBRANCH  29  30
ENDBRANCH   3  24
TORSDOF 7
ENDMDL
MODEL 5
REMARK VINA RESULT:      -7.4      2.879      4.688
REMARK  Name = 
REMARK  8 active torsions:
REMARK  status: ('A' for Active; 'I' for Inactive)
REMARK    1  A    between atoms: C_1  and  N_2
REMARK    2  A    between atoms: N_2  and  C_19
REMARK    3  A    between atoms: C_3  and  C_5
REMARK    4  A    between atoms: C_10  and  N_11
REMARK    5  A    between atoms: N_11  and  C_12
REMARK    6  A    between atoms: C_20  and  N_21
REMARK    7  A    between atoms: N_22  and  C_23
REMARK    8  A    between atoms: C_23  and  C_24
REMARK                            x       y       z     vdW  Elec       q    Type
REMARK                         _______ _______ _______ _____ _____    ______ ____
ROOT
ATOM      1  C   UNL     1      -1.147  11.118  19.089  0.00  0.00    +0.000 C 
ATOM      2  N   UNL     1       0.195  11.107  19.688  0.00  0.00    +0.000 N 
ATOM      3  C   UNL     1       0.800  12.213  20.339  0.00  0.00    +0.000 C 
ATOM      4  O   UNL     1       1.787  12.099  21.069  0.00  0.00    +0.000 OA
ENDROOT
BRANCH   2   5
ATOM      5  C   UNL     1       0.783   9.836  19.844  0.00  0.00    +0.000 A 
ATOM      6  C   UNL     1       1.492   9.200  18.869  0.00  0.00    +0.000 A 
ATOM      7  N   UNL     1       2.116   7.980  19.151  0.00  0.00    +0.000 N 
ATOM      8  C   UNL     1       2.014   7.360  20.390  0.00  0.00    +0.000 A 
ATOM      9  O   UNL     1       2.531   6.276  20.668  0.00  0.00    +0.000 OA
ATOM     10  N   UNL     1       1.283   8.005  21.339  0.00  0.00    +0.000 N 
ATOM     11  C   UNL     1       0.506   9.093  21.110  0.00  0.00    +0.000 A 
ATOM     12  O   UNL     1      -0.438   9.369  21.848  0.00  0.00    +0.000 OA
ATOM     13  H   UNL     1       1.104   7.489  22.183  0.00  0.00    +0.000 HD
BRANCH   6  14
ATOM     14  N   UNL     1       1.616   9.799  17.618  0.00  0.00    +0.000 N 
ATOM     15  H   UNL     1       2.565   9.695  17.263  0.00  0.00    +0.000 HD
ATOM     16  H   UNL     1       0.943   9.452  16.941  0.00  0.00    +0.000 HD
ENDBRANCH   6  14
BRANCH   7  17
ATOM     17  C   UNL     1       3.068   7.368  18.210  0.00  0.00    +0.000 C 
BRANCH  17  18
ATOM     18  C   UNL     1       2.854   5.899  17.918  0.00  0.00    +0.000 A 
ATOM     19  C   UNL     1       3.972   5.058  17.777  0.00  0.00    +0.000 A 
ATOM     20  C   UNL     1       3.815   3.699  17.491  0.00  0.00    +0.000 A 
ATOM     21  C   UNL     1       2.538   3.158  17.364  0.00  0.00    +0.000 A 
ATOM     22  C   UNL     1       1.421   3.966  17.561  0.00  0.00    +0.000 A 
ATOM     23  C   UNL     1       1.577   5.324  17.848  0.00  0.00    +0.000 A 
ENDBRANCH  17  18
ENDBRANCH   7  17
ENDBRANCH   2   5
BRANCH   3  24
ATOM     24  C   UNL     1       0.306  13.611  20.076  0.00  0.00    +0.000 A 
ATOM     25  C   UNL     1       0.592  14.210  18.831  0.00  0.00    +0.000 A 
ATOM     26  C   UNL     1       0.066  15.454  18.479  0.00  0.00    +0.000 A 
ATOM     27  C   UNL     1      -0.748  16.127  19.374  0.00  0.00    +0.000 A 
ATOM     28  C   UNL     1      -0.957  15.592  20.639  0.00  0.00    +0.000 A 
ATOM     29  C   UNL     1      -0.364  14.379  21.054  0.00  0.00    +0.000 A 
BRANCH  29  30
ATOM     30  N   UNL     1      -0.484  14.004  22.422  0.00  0.00    +0.000 N 
ATOM     31  H   UNL     1       0.156  14.518  23.039  0.00  0.00    +0.000 HD
BRANCH  30  32
ATOM     32  C   UNL     1      -1.679  13.598  23.082  0.00  0.00    +0.000 A 
ATOM     33  C   UNL     1      -2.304  14.468  23.982  0.00  0.00    +0.000 A 
ATOM     34  C   UNL     1      -3.387  14.031  24.761  0.00  0.00    +0.000 A 
ATOM     35  C   UNL     1      -3.862  12.732  24.622  0.00  0.00    +0.000 A 
ATOM     36  F   UNL     1      -4.859  12.305  25.403  0.00  0.00    +0.000 F 
ATOM     37  C   UNL     1      -3.306  11.872  23.690  0.00  0.00    +0.000 A 
ATOM     38  C   UNL     1      -2.231  12.312  22.913  0.00  0.00    +0.000 A 
ENDBRANCH  30  32
ENDBRANCH  29  30
ENDBRANCH   3  24
TORSDOF 7
ENDMDL
MODEL 6
REMARK VINA RESULT:      -7.3      1.571      1.800
REMARK  Name = 
REMARK  8 active torsions:
REMARK  status: ('A' for Active; 'I' for Inactive)
REMARK    1  A    between atoms: C_1  and  N_2
REMARK    2  A    between atoms: N_2  and  C_19
REMARK    3  A    between atoms: C_3  and  C_5
REMARK    4  A    between atoms: C_10  and  N_11
REMARK    5  A    between atoms: N_11  and  C_12
REMARK    6  A    between atoms: C_20  and  N_21
REMARK    7  A    between atoms: N_22  and  C_23
REMARK    8  A    between atoms: C_23  and  C_24
REMARK                            x       y       z     vdW  Elec       q    Type
REMARK                         _______ _______ _______ _____ _____    ______ ____
ROOT
ATOM      1  C   UNL     1      -0.909   9.687  19.497  0.00  0.00    +0.000 C 
ATOM      2  N   UNL     1       0.461   9.831  20.014  0.00  0.00    +0.000 N 
ATOM      3  C   UNL     1       0.810  10.527  21.199  0.00  0.00    +0.000 C 
ATOM      4  O   UNL     1       1.903  10.394  21.753  0.00  0.00    +0.000 OA
ENDROOT
BRANCH   2   5
ATOM      5  C   UNL     1       1.427   8.994  19.421  0.00  0.00    +0.000 A 
ATOM      6  C   UNL     1       1.956   7.893  20.025  0.00  0.00    +0.000 A 
ATOM      7  N   UNL     1       2.842   7.073  19.319  0.00  0.00    +0.000 N 
ATOM      8  C   UNL     1       3.242   7.355  18.019  0.00  0.00    +0.000 A 
ATOM      9  O   UNL     1       4.037   6.669  17.373  0.00  0.00    +0.000 OA
ATOM     10  N   UNL     1       2.717   8.472  17.445  0.00  0.00    +0.000 N 
ATOM     11  C   UNL     1       1.994   9.412  18.104  0.00  0.00    +0.000 A 
ATOM     12  O   UNL     1       1.917  10.566  17.684  0.00  0.00    +0.000 OA
ATOM     13  H   UNL     1       3.112   8.740  16.560  0.00  0.00    +0.000 HD
BRANCH   6  14
ATOM     14  N   UNL     1       1.571   7.581  21.328  0.00  0.00    +0.000 N 
ATOM     15  H   UNL     1       0.973   8.312  21.709  0.00  0.00    +0.000 HD
ATOM     16  H   UNL     1       1.119   6.676  21.404  0.00  0.00    +0.000 HD
ENDBRANCH   6  14
BRANCH   7  17
ATOM     17  C   UNL     1       3.263   5.764  19.844  0.00  0.00    +0.000 C 
BRANCH  17  18
ATOM     18  C   UNL     1       2.396   4.587  19.453  0.00  0.00    +0.000 A 
ATOM     19  C   UNL     1       2.799   3.763  18.387  0.00  0.00    +0.000 A 
ATOM     20  C   UNL     1       2.017   2.677  17.987  0.00  0.00    +0.000 A 
ATOM     21  C   UNL     1       0.834   2.385  18.660  0.00  0.00    +0.000 A 
ATOM     22  C   UNL     1       0.454   3.155  19.757  0.00  0.00    +0.000 A 
ATOM     23  C   UNL     1       1.235   4.241  20.158  0.00  0.00    +0.000 A 
ENDBRANCH  17  18
ENDBRANCH   7  17
ENDBRANCH   2   5
BRANCH   3  24
ATOM     24  C   UNL     1      -0.128  11.552  21.780  0.00  0.00    +0.000 A 
ATOM     25  C   UNL     1      -1.229  11.110  22.544  0.00  0.00    +0.000 A 
ATOM     26  C   UNL     1      -2.067  12.008  23.207  0.00  0.00    +0.000 A 
ATOM     27  C   UNL     1      -1.825  13.368  23.105  0.00  0.00    +0.000 A 
ATOM     28  C   UNL     1      -0.804  13.817  22.278  0.00  0.00    +0.000 A 
ATOM     29  C   UNL     1       0.002  12.935  21.526  0.00  0.00    +0.000 A 
BRANCH  29  30
ATOM     30  N   UNL     1       0.897  13.492  20.568  0.00  0.00    +0.000 N 
ATOM     31  H   UNL     1       1.319  12.787  19.953  0.00  0.00    +0.000 HD
BRANCH  30  32
ATOM     32  C   UNL     1       0.776  14.767  19.944  0.00  0.00    +0.000 A 
ATOM     33  C   UNL     1      -0.372  15.070  19.204  0.00  0.00    +0.000 A 
ATOM     34  C   UNL     1      -0.442  16.253  18.450  0.00  0.00    +0.000 A 
ATOM     35  C   UNL     1       0.624  17.144  18.457  0.00  0.00    +0.000 A 
ATOM     36  F   UNL     1       0.573  18.243  17.698  0.00  0.00    +0.000 F 
ATOM     37  C   UNL     1       1.744  16.902  19.236  0.00  0.00    +0.000 A 
ATOM     38  C   UNL     1       1.808  15.726  19.988  0.00  0.00    +0.000 A 
ENDBRANCH  30  32
ENDBRANCH  29  30
ENDBRANCH   3  24
TORSDOF 7
ENDMDL
MODEL 7
REMARK VINA RESULT:      -7.2      2.825      3.590
REMARK  Name = 
REMARK  8 active torsions:
REMARK  status: ('A' for Active; 'I' for Inactive)
REMARK    1  A    between atoms: C_1  and  N_2
REMARK    2  A    between atoms: N_2  and  C_19
REMARK    3  A    between atoms: C_3  and  C_5
REMARK    4  A    between atoms: C_10  and  N_11
REMARK    5  A    between atoms: N_11  and  C_12
REMARK    6  A    between atoms: C_20  and  N_21
REMARK    7  A    between atoms: N_22  and  C_23
REMARK    8  A    between atoms: C_23  and  C_24
REMARK                            x       y       z     vdW  Elec       q    Type
REMARK                         _______ _______ _______ _____ _____    ______ ____
ROOT
ATOM      1  C   UNL     1      -1.264   9.084  20.165  0.00  0.00    +0.000 C 
ATOM      2  N   UNL     1       0.054   9.732  20.226  0.00  0.00    +0.000 N 
ATOM      3  C   UNL     1       0.386  10.812  21.084  0.00  0.00    +0.000 C 
ATOM      4  O   UNL     1       1.550  11.144  21.318  0.00  0.00    +0.000 OA
ENDROOT
BRANCH   2   5
ATOM      5  C   UNL     1       1.101   9.049  19.576  0.00  0.00    +0.000 A 
ATOM      6  C   UNL     1       1.744   7.966  20.098  0.00  0.00    +0.000 A 
ATOM      7  N   UNL     1       2.709   7.300  19.335  0.00  0.00    +0.000 N 
ATOM      8  C   UNL     1       3.072   7.720  18.062  0.00  0.00    +0.000 A 
ATOM      9  O   UNL     1       3.933   7.172  17.369  0.00  0.00    +0.000 OA
ATOM     10  N   UNL     1       2.432   8.816  17.572  0.00  0.00    +0.000 N 
ATOM     11  C   UNL     1       1.616   9.623  18.297  0.00  0.00    +0.000 A 
ATOM     12  O   UNL     1       1.418  10.790  17.966  0.00  0.00    +0.000 OA
ATOM     13  H   UNL     1       2.794   9.190  16.712  0.00  0.00    +0.000 HD
BRANCH   6  14
ATOM     14  N   UNL     1       1.398   7.518  21.370  0.00  0.00    +0.000 N 
ATOM     15  H   UNL     1       1.682   8.193  22.077  0.00  0.00    +0.000 HD
ATOM     16  H   UNL     1       0.411   7.300  21.462  0.00  0.00    +0.000 HD
ENDBRANCH   6  14
BRANCH   7  17
ATOM     17  C   UNL     1       3.267   6.006  19.761  0.00  0.00    +0.000 C 
BRANCH  17  18
ATOM     18  C   UNL     1       2.425   4.789  19.445  0.00  0.00    +0.000 A 
ATOM     19  C   UNL     1       2.594   4.141  18.208  0.00  0.00    +0.000 A 
ATOM     20  C   UNL     1       1.825   3.024  17.874  0.00  0.00    +0.000 A 
ATOM     21  C   UNL     1       0.891   2.525  18.779  0.00  0.00    +0.000 A 
ATOM     22  C   UNL     1       0.755   3.120  20.031  0.00  0.00    +0.000 A 
ATOM     23  C   UNL     1       1.525   4.236  20.367  0.00  0.00    +0.000 A 
ENDBRANCH  17  18
ENDBRANCH   7  17
ENDBRANCH   2   5
BRANCH   3  24
ATOM     24  C   UNL     1      -0.699  11.672  21.675  0.00  0.00    +0.000 A 
ATOM     25  C   UNL     1      -1.102  11.439  23.006  0.00  0.00    +0.000 A 
ATOM     26  C   UNL     1      -2.017  12.273  23.651  0.00  0.00    +0.000 A 
ATOM     27  C   UNL     1      -2.555  13.350  22.967  0.00  0.00    +0.000 A 
ATOM     28  C   UNL     1      -2.240  13.532  21.627  0.00  0.00    +0.000 A 
ATOM     29  C   UNL     1      -1.388  12.652  20.925  0.00  0.00    +0.000 A 
BRANCH  29  30
ATOM     30  N   UNL     1      -1.269  12.810  19.515  0.00  0.00    +0.000 N 
ATOM     31  H   UNL     1      -0.298  12.914  19.201  0.00  0.00    +0.000 HD
BRANCH  30  32
ATOM     32  C   UNL     1      -2.107  12.215  18.528  0.00  0.00    +0.000 A 
ATOM     33  C   UNL     1      -3.450  11.956  18.824  0.00  0.00    +0.000 A 
ATOM     34  C   UNL     1      -4.249  11.226  17.929  0.00  0.00    +0.000 A 
ATOM     35  C   UNL     1      -3.714  10.779  16.727  0.00  0.00    +0.000 A 
ATOM     36  F   UNL     1      -4.463  10.042  15.903  0.00  0.00    +0.000 F 
ATOM     37  C   UNL     1      -2.408  11.081  16.378  0.00  0.00    +0.000 A 
ATOM     38  C   UNL     1      -1.617  11.811  17.270  0.00  0.00    +0.000 A 
ENDBRANCH  30  32
ENDBRANCH  29  30
ENDBRANCH   3  24
TORSDOF 7
ENDMDL
MODEL 8
REMARK VINA RESULT:      -7.2      1.570      1.906
REMARK  Name = 
REMARK  8 active torsions:
REMARK  status: ('A' for Active; 'I' for Inactive)
REMARK    1  A    between atoms: C_1  and  N_2
REMARK    2  A    between atoms: N_2  and  C_19
REMARK    3  A    between atoms: C_3  and  C_5
REMARK    4  A    between atoms: C_10  and  N_11
REMARK    5  A    between atoms: N_11  and  C_12
REMARK    6  A    between atoms: C_20  and  N_21
REMARK    7  A    between atoms: N_22  and  C_23
REMARK    8  A    between atoms: C_23  and  C_24
REMARK                            x       y       z     vdW  Elec       q    Type
REMARK                         _______ _______ _______ _____ _____    ______ ____
ROOT
ATOM      1  C   UNL     1      -0.818   9.681  19.374  0.00  0.00    +0.000 C 
ATOM      2  N   UNL     1       0.537   9.772  19.937  0.00  0.00    +0.000 N 
ATOM      3  C   UNL     1       0.872  10.456  21.134  0.00  0.00    +0.000 C 
ATOM      4  O   UNL     1       1.939  10.281  21.726  0.00  0.00    +0.000 OA
ENDROOT
BRANCH   2   5
ATOM      5  C   UNL     1       1.490   8.897  19.379  0.00  0.00    +0.000 A 
ATOM      6  C   UNL     1       1.985   7.800  20.018  0.00  0.00    +0.000 A 
ATOM      7  N   UNL     1       2.859   6.941  19.344  0.00  0.00    +0.000 N 
ATOM      8  C   UNL     1       3.282   7.180  18.043  0.00  0.00    +0.000 A 
ATOM      9  O   UNL     1       4.068   6.458  17.425  0.00  0.00    +0.000 OA
ATOM     10  N   UNL     1       2.791   8.293  17.434  0.00  0.00    +0.000 N 
ATOM     11  C   UNL     1       2.083   9.268  18.059  0.00  0.00    +0.000 A 
ATOM     12  O   UNL     1       2.039  10.411  17.609  0.00  0.00    +0.000 OA
ATOM     13  H   UNL     1       3.203   8.529  16.548  0.00  0.00    +0.000 HD
BRANCH   6  14
ATOM     14  N   UNL     1       1.576   7.532  21.323  0.00  0.00    +0.000 N 
ATOM     15  H   UNL     1       2.074   8.125  21.983  0.00  0.00    +0.000 HD
ATOM     16  H   UNL     1       0.574   7.618  21.453  0.00  0.00    +0.000 HD
ENDBRANCH   6  14
BRANCH   7  17
ATOM     17  C   UNL     1       3.243   5.637  19.908  0.00  0.00    +0.000 C 
BRANCH  17  18
ATOM     18  C   UNL     1       2.393   4.459  19.482  0.00  0.00    +0.000 A 
ATOM     19  C   UNL     1       1.181   4.211  20.151  0.00  0.00    +0.000 A 
ATOM     20  C   UNL     1       0.377   3.125  19.798  0.00  0.00    +0.000 A 
ATOM     21  C   UNL     1       0.760   2.285  18.755  0.00  0.00    +0.000 A 
ATOM     22  C   UNL     1       1.927   2.554  18.043  0.00  0.00    +0.000 A 
ATOM     23  C   UNL     1       2.731   3.641  18.396  0.00  0.00    +0.000 A 
ENDBRANCH  17  18
ENDBRANCH   7  17
ENDBRANCH   2   5
BRANCH   3  24
ATOM     24  C   UNL     1      -0.045  11.518  21.682  0.00  0.00    +0.000 A 
ATOM     25  C   UNL     1      -1.128  11.126  22.497  0.00  0.00    +0.000 A 
ATOM     26  C   UNL     1      -1.944  12.064  23.131  0.00  0.00    +0.000 A 
ATOM     27  C   UNL     1      -1.697  13.414  22.949  0.00  0.00    +0.000 A 
ATOM     28  C   UNL     1      -0.695  13.811  22.072  0.00  0.00    +0.000 A 
ATOM     29  C   UNL     1       0.086  12.884  21.349  0.00  0.00    +0.000 A 
BRANCH  29  30
ATOM     30  N   UNL     1       0.959  13.381  20.339  0.00  0.00    +0.000 N 
ATOM     31  H   UNL     1       1.324  12.645  19.724  0.00  0.00    +0.000 HD
BRANCH  30  32
ATOM     32  C   UNL     1       0.862  14.646  19.691  0.00  0.00    +0.000 A 
ATOM     33  C   UNL     1       1.972  15.498  19.665  0.00  0.00    +0.000 A 
ATOM     34  C   UNL     1       1.853  16.808  19.176  0.00  0.00    +0.000 A 
ATOM     35  C   UNL     1       0.632  17.258  18.688  0.00  0.00    +0.000 A 
ATOM     36  F   UNL     1       0.511  18.522  18.272  0.00  0.00    +0.000 F 
ATOM     37  C   UNL     1      -0.465  16.414  18.638  0.00  0.00    +0.000 A 
ATOM     38  C   UNL     1      -0.341  15.108  19.122  0.00  0.00    +0.000 A 
ENDBRANCH  30  32
ENDBRANCH  29  30
ENDBRANCH   3  24
TORSDOF 7
ENDMDL
MODEL 9
REMARK VINA RESULT:      -7.1      4.671      7.736
REMARK  Name = 
REMARK  8 active torsions:
REMARK  status: ('A' for Active; 'I' for Inactive)
REMARK    1  A    between atoms: C_1  and  N_2
REMARK    2  A    between atoms: N_2  and  C_19
REMARK    3  A    between atoms: C_3  and  C_5
REMARK    4  A    between atoms: C_10  and  N_11
REMARK    5  A    between atoms: N_11  and  C_12
REMARK    6  A    between atoms: C_20  and  N_21
REMARK    7  A    between atoms: N_22  and  C_23
REMARK    8  A    between atoms: C_23  and  C_24
REMARK                            x       y       z     vdW  Elec       q    Type
REMARK                         _______ _______ _______ _____ _____    ______ ____
ROOT
ATOM      1  C   UNL     1       4.848   2.648  18.091  0.00  0.00    +0.000 C 
ATOM      2  N   UNL     1       4.591   3.936  17.431  0.00  0.00    +0.000 N 
ATOM      3  C   UNL     1       3.643   4.896  17.870  0.00  0.00    +0.000 C 
ATOM      4  O   UNL     1       3.646   6.064  17.477  0.00  0.00    +0.000 OA
ENDROOT
BRANCH   2   5
ATOM      5  C   UNL     1       5.541   4.328  16.467  0.00  0.00    +0.000 A 
ATOM      6  C   UNL     1       5.376   4.164  15.124  0.00  0.00    +0.000 A 
ATOM      7  N   UNL     1       6.337   4.669  14.242  0.00  0.00    +0.000 N 
ATOM      8  C   UNL     1       7.489   5.310  14.682  0.00  0.00    +0.000 A 
ATOM      9  O   UNL     1       8.367   5.748  13.936  0.00  0.00    +0.000 OA
ATOM     10  N   UNL     1       7.640   5.440  16.027  0.00  0.00    +0.000 N 
ATOM     11  C   UNL     1       6.857   4.836  16.956  0.00  0.00    +0.000 A 
ATOM     12  O   UNL     1       7.268   4.627  18.096  0.00  0.00    +0.000 OA
ATOM     13  H   UNL     1       8.534   5.782  16.338  0.00  0.00    +0.000 HD
BRANCH   6  14
ATOM     14  N   UNL     1       4.229   3.530  14.652  0.00  0.00    +0.000 N 
ATOM     15  H   UNL     1       3.396   3.942  15.066  0.00  0.00    +0.000 HD
ATOM     16  H   UNL     1       4.161   3.530  13.640  0.00  0.00    +0.000 HD
ENDBRANCH   6  14
BRANCH   7  17
ATOM     17  C   UNL     1       6.099   4.716  12.790  0.00  0.00    +0.000 C 
BRANCH  17  18
ATOM     18  C   UNL     1       6.239   3.399  12.057  0.00  0.00    +0.000 A 
ATOM     19  C   UNL     1       7.525   2.926  11.738  0.00  0.00    +0.000 A 
ATOM     20  C   UNL     1       7.695   1.724  11.049  0.00  0.00    +0.000 A 
ATOM     21  C   UNL     1       6.585   0.965  10.687  0.00  0.00    +0.000 A 
ATOM     22  C   UNL     1       5.309   1.390  11.050  0.00  0.00    +0.000 A 
ATOM     23  C   UNL     1       5.138   2.593  11.740  0.00  0.00    +0.000 A 
ENDBRANCH  17  18
ENDBRANCH   7  17
ENDBRANCH   2   5
BRANCH   3  24
ATOM     24  C   UNL     1       2.512   4.485  18.775  0.00  0.00    +0.000 A 
ATOM     25  C   UNL     1       1.765   3.333  18.450  0.00  0.00    +0.000 A 
ATOM     26  C   UNL     1       0.782   2.832  19.305  0.00  0.00    +0.000 A 
ATOM     27  C   UNL     1       0.521   3.485  20.498  0.00  0.00    +0.000 A 
ATOM     28  C   UNL     1       1.181   4.673  20.782  0.00  0.00    +0.000 A 
ATOM     29  C   UNL     1       2.114   5.250  19.894  0.00  0.00    +0.000 A 
BRANCH  29  30
ATOM     30  N   UNL     1       2.601   6.557  20.182  0.00  0.00    +0.000 N 
ATOM     31  H   UNL     1       3.592   6.680  19.948  0.00  0.00    +0.000 HD
BRANCH  30  32
ATOM     32  C   UNL     1       1.859   7.770  20.091  0.00  0.00    +0.000 A 
ATOM     33  C   UNL     1       1.800   8.457  18.874  0.00  0.00    +0.000 A 
ATOM     34  C   UNL     1       1.213   9.731  18.801  0.00  0.00    +0.000 A 
ATOM     35  C   UNL     1       0.662  10.306  19.940  0.00  0.00    +0.000 A 
ATOM     36  F   UNL     1       0.151  11.539  19.878  0.00  0.00    +0.000 F 
ATOM     37  C   UNL     1       0.645   9.619  21.143  0.00  0.00    +0.000 A 
ATOM     38  C   UNL     1       1.226   8.350  21.209  0.00  0.00    +0.000 A 
ENDBRANCH  30  32
ENDBRANCH  29  30
ENDBRANCH   3  24
TORSDOF 7
ENDMDL
