MODEL 1
REMARK VINA RESULT:      -9.3      0.000      0.000
REMARK  Name = 
REMARK  5 active torsions:
REMARK  status: ('A' for Active; 'I' for Inactive)
REMARK    1  A    between atoms: C_1  and  C_2
REMARK    2  A    between atoms: C_2  and  C_3
REMARK    3  A    between atoms: C_3  and  C_4
REMARK    4  A    between atoms: N_16  and  C_17
REMARK    5  A    between atoms: C_17  and  C_18
REMARK                            x       y       z     vdW  Elec       q    Type
REMARK                         _______ _______ _______ _____ _____    ______ ____
ROOT
ATOM      1  C   UNL     1       1.166   3.020  21.625  0.00  0.00    +0.000 C 
ATOM      2  C   UNL     1       1.941   3.663  20.492  0.00  0.00    +0.000 C 
ATOM      3  N   UNL     1       1.130   3.816  19.302  0.00  0.00    +0.000 N 
ATOM      4  C   UNL     1       1.767   3.376  18.165  0.00  0.00    +0.000 C 
ATOM      5  O   UNL     1       1.328   3.519  17.036  0.00  0.00    +0.000 OA
ATOM      6  N   UNL     1       2.947   2.800  18.531  0.00  0.00    +0.000 N 
ATOM      7  C   UNL     1       3.045   2.760  19.896  0.00  0.00    +0.000 C 
ATOM      8  O   UNL     1       3.941   2.226  20.539  0.00  0.00    +0.000 OA
ATOM      9  H   UNL     1       0.249   4.321  19.251  0.00  0.00    +0.000 HD
ENDROOT
BRANCH   2  10
ATOM     10  C   UNL     1       2.678   4.960  20.912  0.00  0.00    +0.000 C 
BRANCH  10  11
ATOM     11  C   UNL     1       2.281   6.240  20.211  0.00  0.00    +0.000 A 
ATOM     12  C   UNL     1       2.771   6.516  18.914  0.00  0.00    +0.000 A 
ATOM     13  C   UNL     1       2.509   7.741  18.292  0.00  0.00    +0.000 A 
ATOM     14  C   UNL     1       1.762   8.668  18.982  0.00  0.00    +0.000 A 
ATOM     15  C   UNL     1       1.259   8.402  20.233  0.00  0.00    +0.000 A 
ATOM     16  C   UNL     1       1.493   7.200  20.870  0.00  0.00    +0.000 A 
ATOM     17  O   UNL     1       0.561   9.451  20.745  0.00  0.00    +0.000 OA
ATOM     18  C   UNL     1       0.749  10.434  19.704  0.00  0.00    +0.000 C 
ATOM     19  O   UNL     1       1.450   9.920  18.554  0.00  0.00    +0.000 OA
ENDBRANCH  10  11
ENDBRANCH   2  10
BRANCH   6  20
ATOM     20  C   UNL     1       4.019   2.488  17.611  0.00  0.00    +0.000 C 
BRANCH  20  21
ATOM     21  C   UNL     1       4.935   3.635  17.280  0.00  0.00    +0.000 A 
ATOM     22  C   UNL     1       5.354   3.853  15.959  0.00  0.00    +0.000 A 
ATOM     23  C   UNL     1       6.252   4.883  15.656  0.00  0.00    +0.000 A 
ATOM     24 CL   UNL     1       6.729   5.097  14.010  0.00  0.00    +0.000 Cl
ATOM     25  C   UNL     1       6.756   5.702  16.671  0.00  0.00    +0.000 A 
ATOM     26  C   UNL     1       6.370   5.460  17.997  0.00  0.00    +0.000 A 
ATOM     27  C   UNL     1       5.444   4.458  18.294  0.00  0.00    +0.000 A 
ATOM     28  O   UNL     1       6.880   6.154  19.065  0.00  0.00    +0.000 OA
ATOM     29  C   UNL     1       8.094   6.821  18.708  0.00  0.00    +0.000 C 
ATOM     30  C   UNL     1       7.897   7.596  17.418  0.00  0.00    +0.000 C 
ATOM     31  O   UNL     1       7.641   6.698  16.333  0.00  0.00    +0.000 OA
ENDBRANCH  20  21
ENDBRANCH   6  20
TORSDOF 4
ENDMDL
MODEL 2
REMARK VINA RESULT:      -9.1      0.592      1.240
REMARK  Name = 
REMARK  5 active torsions:
REMARK  status: ('A' for Active; 'I' for Inactive)
REMARK    1  A    between atoms: C_1  and  C_2
REMARK    2  A    between atoms: C_2  and  C_3
REMARK    3  A    between atoms: C_3  and  C_4
REMARK    4  A    between atoms: N_16  and  C_17
REMARK    5  A    between atoms: C_17  and  C_18
REMARK                            x       y       z     vdW  Elec       q    Type
REMARK                         _______ _______ _______ _____ _____    ______ ____
ROOT
ATOM      1  C   UNL     1       1.122   2.888  21.597  0.00  0.00    +0.000 C 
ATOM      2  C   UNL     1       1.888   3.584  20.489  0.00  0.00    +0.000 C 
ATOM      3  N   UNL     1       1.035   3.911  19.366  0.00  0.00    +0.000 N 
ATOM      4  C   UNL     1       1.583   3.542  18.159  0.00  0.00    +0.000 C 
ATOM      5  O   UNL     1       1.103   3.828  17.074  0.00  0.00    +0.000 OA
ATOM      6  N   UNL     1       2.731   2.850  18.403  0.00  0.00    +0.000 N 
ATOM      7  C   UNL     1       2.891   2.668  19.751  0.00  0.00    +0.000 C 
ATOM      8  O   UNL     1       3.773   2.011  20.289  0.00  0.00    +0.000 OA
ATOM      9  H   UNL     1       0.195   4.481  19.412  0.00  0.00    +0.000 HD
ENDROOT
BRANCH   2  10
ATOM     10  C   UNL     1       2.741   4.776  20.990  0.00  0.00    +0.000 C 
BRANCH  10  11
ATOM     11  C   UNL     1       2.331   6.160  20.537  0.00  0.00    +0.000 A 
ATOM     12  C   UNL     1       1.408   6.909  21.302  0.00  0.00    +0.000 A 
ATOM     13  C   UNL     1       0.930   8.142  20.847  0.00  0.00    +0.000 A 
ATOM     14  C   UNL     1       1.385   8.601  19.631  0.00  0.00    +0.000 A 
ATOM     15  C   UNL     1       2.302   7.894  18.890  0.00  0.00    +0.000 A 
ATOM     16  C   UNL     1       2.798   6.679  19.317  0.00  0.00    +0.000 A 
ATOM     17  O   UNL     1       2.610   8.513  17.720  0.00  0.00    +0.000 OA
ATOM     18  C   UNL     1       1.724   9.652  17.775  0.00  0.00    +0.000 C 
ATOM     19  O   UNL     1       0.996   9.749  19.017  0.00  0.00    +0.000 OA
ENDBRANCH  10  11
ENDBRANCH   2  10
BRANCH   6  20
ATOM     20  C   UNL     1       3.731   2.556  17.400  0.00  0.00    +0.000 C 
BRANCH  20  21
ATOM     21  C   UNL     1       4.719   3.659  17.136  0.00  0.00    +0.000 A 
ATOM     22  C   UNL     1       5.206   3.885  15.839  0.00  0.00    +0.000 A 
ATOM     23  C   UNL     1       6.169   4.872  15.599  0.00  0.00    +0.000 A 
ATOM     24 CL   UNL     1       6.727   5.096  13.979  0.00  0.00    +0.000 Cl
ATOM     25  C   UNL     1       6.671   5.640  16.653  0.00  0.00    +0.000 A 
ATOM     26  C   UNL     1       6.215   5.390  17.955  0.00  0.00    +0.000 A 
ATOM     27  C   UNL     1       5.226   4.432  18.190  0.00  0.00    +0.000 A 
ATOM     28  O   UNL     1       6.715   6.032  19.061  0.00  0.00    +0.000 OA
ATOM     29  C   UNL     1       7.976   6.641  18.771  0.00  0.00    +0.000 C 
ATOM     30  C   UNL     1       7.876   7.454  17.493  0.00  0.00    +0.000 C 
ATOM     31  O   UNL     1       7.620   6.595  16.377  0.00  0.00    +0.000 OA
ENDBRANCH  20  21
ENDBRANCH   6  20
TORSDOF 4
ENDMDL
MODEL 3
REMARK VINA RESULT:      -7.8      2.628      6.676
REMARK  Name = 
REMARK  5 active torsions:
REMARK  status: ('A' for Active; 'I' for Inactive)
REMARK    1  A    between atoms: C_1  and  C_2
REMARK    2  A    between atoms: C_2  and  C_3
REMARK    3  A    between atoms: C_3  and  C_4
REMARK    4  A    between atoms: N_16  and  C_17
REMARK    5  A    between atoms: C_17  and  C_18
REMARK                            x       y       z     vdW  Elec       q    Type
REMARK                         _______ _______ _______ _____ _____    ______ ____
ROOT
ATOM      1  C   UNL     1       0.543   2.383  18.572  0.00  0.00    +0.000 C 
ATOM      2  C   UNL     1       1.814   3.099  18.986  0.00  0.00    +0.000 C 
ATOM      3  N   UNL     1       1.914   3.233  20.424  0.00  0.00    +0.000 N 
ATOM      4  C   UNL     1       2.248   4.508  20.816  0.00  0.00    +0.000 C 
ATOM      5  O   UNL     1       2.508   4.824  21.966  0.00  0.00    +0.000 OA
ATOM      6  N   UNL     1       2.259   5.307  19.712  0.00  0.00    +0.000 N 
ATOM      7  C   UNL     1       1.835   4.601  18.618  0.00  0.00    +0.000 C 
ATOM      8  O   UNL     1       1.649   5.054  17.496  0.00  0.00    +0.000 OA
ATOM      9  H   UNL     1       1.895   2.464  21.089  0.00  0.00    +0.000 HD
ENDROOT
BRANCH   2  10
ATOM     10  C   UNL     1       3.089   2.515  18.326  0.00  0.00    +0.000 C 
BRANCH  10  11
ATOM     11  C   UNL     1       4.238   3.466  18.078  0.00  0.00    +0.000 A 
ATOM     12  C   UNL     1       4.590   3.819  16.754  0.00  0.00    +0.000 A 
ATOM     13  C   UNL     1       5.717   4.606  16.496  0.00  0.00    +0.000 A 
ATOM     14  C   UNL     1       6.472   5.024  17.568  0.00  0.00    +0.000 A 
ATOM     15  C   UNL     1       6.125   4.709  18.860  0.00  0.00    +0.000 A 
ATOM     16  C   UNL     1       5.016   3.941  19.148  0.00  0.00    +0.000 A 
ATOM     17  O   UNL     1       7.006   5.208  19.768  0.00  0.00    +0.000 OA
ATOM     18  C   UNL     1       7.987   5.806  18.893  0.00  0.00    +0.000 C 
ATOM     19  O   UNL     1       7.617   5.753  17.500  0.00  0.00    +0.000 OA
ENDBRANCH  10  11
ENDBRANCH   2  10
BRANCH   6  20
ATOM     20  C   UNL     1       2.843   6.630  19.672  0.00  0.00    +0.000 C 
BRANCH  20  21
ATOM     21  C   UNL     1       1.884   7.763  19.917  0.00  0.00    +0.000 A 
ATOM     22  C   UNL     1       1.351   7.980  21.197  0.00  0.00    +0.000 A 
ATOM     23  C   UNL     1       0.414   8.997  21.416  0.00  0.00    +0.000 A 
ATOM     24 CL   UNL     1      -0.205   9.209  23.015  0.00  0.00    +0.000 Cl
ATOM     25  C   UNL     1      -0.014   9.804  20.358  0.00  0.00    +0.000 A 
ATOM     26  C   UNL     1       0.488   9.562  19.071  0.00  0.00    +0.000 A 
ATOM     27  C   UNL     1       1.452   8.574  18.859  0.00  0.00    +0.000 A 
ATOM     28  O   UNL     1       0.060  10.244  17.959  0.00  0.00    +0.000 OA
ATOM     29  C   UNL     1      -1.190  10.893  18.208  0.00  0.00    +0.000 C 
ATOM     30  C   UNL     1      -1.116  11.677  19.506  0.00  0.00    +0.000 C 
ATOM     31  O   UNL     1      -0.939  10.787  20.614  0.00  0.00    +0.000 OA
ENDBRANCH  20  21
ENDBRANCH   6  20
TORSDOF 4
ENDMDL
MODEL 4
REMARK VINA RESULT:      -7.5      3.437      7.933
REMARK  Name = 
REMARK  5 active torsions:
REMARK  status: ('A' for Active; 'I' for Inactive)
REMARK    1  A    between atoms: C_1  and  C_2
REMARK    2  A    between atoms: C_2  and  C_3
REMARK    3  A    between atoms: C_3  and  C_4
REMARK    4  A    between atoms: N_16  and  C_17
REMARK    5  A    between atoms: C_17  and  C_18
REMARK                            x       y       z     vdW  Elec       q    Type
REMARK                         _______ _______ _______ _____ _____    ______ ____
ROOT
ATOM      1  C   UNL     1       2.332   4.350  18.116  0.00  0.00    +0.000 C 
ATOM      2  C   UNL     1       2.805   5.481  19.008  0.00  0.00    +0.000 C 
ATOM      3  N   UNL     1       1.976   5.623  20.186  0.00  0.00    +0.000 N 
ATOM      4  C   UNL     1       1.599   6.926  20.416  0.00  0.00    +0.000 C 
ATOM      5  O   UNL     1       1.005   7.300  21.414  0.00  0.00    +0.000 OA
ATOM      6  N   UNL     1       2.025   7.686  19.368  0.00  0.00    +0.000 N 
ATOM      7  C   UNL     1       2.583   6.888  18.406  0.00  0.00    +0.000 C 
ATOM      8  O   UNL     1       2.979   7.254  17.306  0.00  0.00    +0.000 OA
ATOM      9  H   UNL     1       1.798   4.894  20.871  0.00  0.00    +0.000 HD
ENDROOT
BRANCH   2  10
ATOM     10  C   UNL     1       4.322   5.422  19.318  0.00  0.00    +0.000 C 
BRANCH  10  11
ATOM     11  C   UNL     1       5.269   5.354  18.141  0.00  0.00    +0.000 A 
ATOM     12  C   UNL     1       6.324   6.289  18.028  0.00  0.00    +0.000 A 
ATOM     13  C   UNL     1       7.142   6.316  16.894  0.00  0.00    +0.000 A 
ATOM     14  C   UNL     1       6.887   5.406  15.893  0.00  0.00    +0.000 A 
ATOM     15  C   UNL     1       5.881   4.477  16.002  0.00  0.00    +0.000 A 
ATOM     16  C   UNL     1       5.062   4.419  17.111  0.00  0.00    +0.000 A 
ATOM     17  O   UNL     1       5.789   3.682  14.902  0.00  0.00    +0.000 OA
ATOM     18  C   UNL     1       6.802   4.270  14.058  0.00  0.00    +0.000 C 
ATOM     19  O   UNL     1       7.548   5.319  14.709  0.00  0.00    +0.000 OA
ENDBRANCH  10  11
ENDBRANCH   2  10
BRANCH   6  20
ATOM     20  C   UNL     1       2.078   9.132  19.381  0.00  0.00    +0.000 C 
BRANCH  20  21
ATOM     21  C   UNL     1       0.758   9.824  19.173  0.00  0.00    +0.000 A 
ATOM     22  C   UNL     1       0.198  10.613  20.190  0.00  0.00    +0.000 A 
ATOM     23  C   UNL     1      -1.056  11.211  20.020  0.00  0.00    +0.000 A 
ATOM     24 CL   UNL     1      -1.688  12.167  21.313  0.00  0.00    +0.000 Cl
ATOM     25  C   UNL     1      -1.776  11.020  18.838  0.00  0.00    +0.000 A 
ATOM     26  C   UNL     1      -1.236  10.200  17.837  0.00  0.00    +0.000 A 
ATOM     27  C   UNL     1       0.032   9.635  17.989  0.00  0.00    +0.000 A 
ATOM     28  O   UNL     1      -1.909   9.884  16.683  0.00  0.00    +0.000 OA
ATOM     29  C   UNL     1      -3.309  10.139  16.822  0.00  0.00    +0.000 C 
ATOM     30  C   UNL     1      -3.528  11.532  17.383  0.00  0.00    +0.000 C 
ATOM     31  O   UNL     1      -3.007  11.619  18.714  0.00  0.00    +0.000 OA
ENDBRANCH  20  21
ENDBRANCH   6  20
TORSDOF 4
ENDMDL
MODEL 5
REMARK VINA RESULT:      -7.5      3.921      6.768
REMARK  Name = 
REMARK  5 active torsions:
REMARK  status: ('A' for Active; 'I' for Inactive)
REMARK    1  A    between atoms: C_1  and  C_2
REMARK    2  A    between atoms: C_2  and  C_3
REMARK    3  A    between atoms: C_3  and  C_4
REMARK    4  A    between atoms: N_16  and  C_17
REMARK    5  A    between atoms: C_17  and  C_18
REMARK                            x       y       z     vdW  Elec       q    Type
REMARK                         _______ _______ _______ _____ _____    ______ ____
ROOT
ATOM      1  C   UNL     1      -2.059  10.699  18.865  0.00  0.00    +0.000 C 
ATOM      2  C   UNL     1      -0.606  10.786  19.288  0.00  0.00    +0.000 C 
ATOM      3  N   UNL     1       0.291  10.730  18.153  0.00  0.00    +0.000 N 
ATOM      4  C   UNL     1       1.323   9.840  18.335  0.00  0.00    +0.000 C 
ATOM      5  O   UNL     1       2.264   9.717  17.568  0.00  0.00    +0.000 OA
ATOM      6  N   UNL     1       1.112   9.172  19.505  0.00  0.00    +0.000 N 
ATOM      7  C   UNL     1      -0.096   9.535  20.039  0.00  0.00    +0.000 C 
ATOM      8  O   UNL     1      -0.617   9.051  21.036  0.00  0.00    +0.000 OA
ATOM      9  H   UNL     1       0.277  11.367  17.360  0.00  0.00    +0.000 HD
ENDROOT
BRANCH   2  10
ATOM     10  C   UNL     1      -0.318  11.966  20.250  0.00  0.00    +0.000 C 
BRANCH  10  11
ATOM     11  C   UNL     1       0.302  13.210  19.654  0.00  0.00    +0.000 A 
ATOM     12  C   UNL     1       1.704  13.392  19.700  0.00  0.00    +0.000 A 
ATOM     13  C   UNL     1       2.289  14.582  19.257  0.00  0.00    +0.000 A 
ATOM     14  C   UNL     1       1.459  15.570  18.777  0.00  0.00    +0.000 A 
ATOM     15  C   UNL     1       0.097  15.395  18.704  0.00  0.00    +0.000 A 
ATOM     16  C   UNL     1      -0.509  14.230  19.126  0.00  0.00    +0.000 A 
ATOM     17  O   UNL     1      -0.540  16.492  18.213  0.00  0.00    +0.000 OA
ATOM     18  C   UNL     1       0.570  17.403  18.059  0.00  0.00    +0.000 C 
ATOM     19  O   UNL     1       1.848  16.800  18.349  0.00  0.00    +0.000 OA
ENDBRANCH  10  11
ENDBRANCH   2  10
BRANCH   6  20
ATOM     20  C   UNL     1       2.113   8.377  20.179  0.00  0.00    +0.000 C 
BRANCH  20  21
ATOM     21  C   UNL     1       2.197   6.941  19.738  0.00  0.00    +0.000 A 
ATOM     22  C   UNL     1       1.669   5.917  20.539  0.00  0.00    +0.000 A 
ATOM     23  C   UNL     1       1.797   4.576  20.160  0.00  0.00    +0.000 A 
ATOM     24 CL   UNL     1       1.125   3.365  21.193  0.00  0.00    +0.000 Cl
ATOM     25  C   UNL     1       2.468   4.235  18.982  0.00  0.00    +0.000 A 
ATOM     26  C   UNL     1       3.031   5.255  18.201  0.00  0.00    +0.000 A 
ATOM     27  C   UNL     1       2.870   6.595  18.558  0.00  0.00    +0.000 A 
ATOM     28  O   UNL     1       3.782   5.010  17.077  0.00  0.00    +0.000 OA
ATOM     29  C   UNL     1       4.238   3.655  17.053  0.00  0.00    +0.000 C 
ATOM     30  C   UNL     1       3.078   2.714  17.321  0.00  0.00    +0.000 C 
ATOM     31  O   UNL     1       2.577   2.907  18.648  0.00  0.00    +0.000 OA
ENDBRANCH  20  21
ENDBRANCH   6  20
TORSDOF 4
ENDMDL
MODEL 6
REMARK VINA RESULT:      -7.5      4.058      6.856
REMARK  Name = 
REMARK  5 active torsions:
REMARK  status: ('A' for Active; 'I' for Inactive)
REMARK    1  A    between atoms: C_1  and  C_2
REMARK    2  A    between atoms: C_2  and  C_3
REMARK    3  A    between atoms: C_3  and  C_4
REMARK    4  A    between atoms: N_16  and  C_17
REMARK    5  A    between atoms: C_17  and  C_18
REMARK                            x       y       z     vdW  Elec       q    Type
REMARK                         _______ _______ _______ _____ _____    ______ ____
ROOT
ATOM      1  C   UNL     1      -2.082  10.441  18.883  0.00  0.00    +0.000 C 
ATOM      2  C   UNL     1      -0.618  10.575  19.253  0.00  0.00    +0.000 C 
ATOM      3  N   UNL     1       0.241  10.511  18.089  0.00  0.00    +0.000 N 
ATOM      4  C   UNL     1       1.301   9.650  18.258  0.00  0.00    +0.000 C 
ATOM      5  O   UNL     1       2.218   9.530  17.462  0.00  0.00    +0.000 OA
ATOM      6  N   UNL     1       1.146   9.009  19.451  0.00  0.00    +0.000 N 
ATOM      7  C   UNL     1      -0.051   9.356  20.017  0.00  0.00    +0.000 C 
ATOM      8  O   UNL     1      -0.526   8.886  21.044  0.00  0.00    +0.000 OA
ATOM      9  H   UNL     1       0.185  11.126  17.282  0.00  0.00    +0.000 HD
ENDROOT
BRANCH   2  10
ATOM     10  C   UNL     1      -0.327  11.786  20.174  0.00  0.00    +0.000 C 
BRANCH  10  11
ATOM     11  C   UNL     1      -1.450  12.263  21.067  0.00  0.00    +0.000 A 
ATOM     12  C   UNL     1      -1.573  11.754  22.380  0.00  0.00    +0.000 A 
ATOM     13  C   UNL     1      -2.664  12.095  23.185  0.00  0.00    +0.000 A 
ATOM     14  C   UNL     1      -3.615  12.940  22.658  0.00  0.00    +0.000 A 
ATOM     15  C   UNL     1      -3.494  13.461  21.392  0.00  0.00    +0.000 A 
ATOM     16  C   UNL     1      -2.424  13.150  20.577  0.00  0.00    +0.000 A 
ATOM     17  O   UNL     1      -4.542  14.261  21.059  0.00  0.00    +0.000 OA
ATOM     18  C   UNL     1      -5.373  14.120  22.231  0.00  0.00    +0.000 C 
ATOM     19  O   UNL     1      -4.757  13.339  23.276  0.00  0.00    +0.000 OA
ENDBRANCH  10  11
ENDBRANCH   2  10
BRANCH   6  20
ATOM     20  C   UNL     1       2.190   8.256  20.110  0.00  0.00    +0.000 C 
BRANCH  20  21
ATOM     21  C   UNL     1       2.266   6.800  19.737  0.00  0.00    +0.000 A 
ATOM     22  C   UNL     1       1.753   5.816  20.596  0.00  0.00    +0.000 A 
ATOM     23  C   UNL     1       1.874   4.458  20.279  0.00  0.00    +0.000 A 
ATOM     24 CL   UNL     1       1.223   3.299  21.381  0.00  0.00    +0.000 Cl
ATOM     25  C   UNL     1       2.522   4.062  19.105  0.00  0.00    +0.000 A 
ATOM     26  C   UNL     1       3.070   5.042  18.265  0.00  0.00    +0.000 A 
ATOM     27  C   UNL     1       2.915   6.398  18.561  0.00  0.00    +0.000 A 
ATOM     28  O   UNL     1       3.798   4.743  17.141  0.00  0.00    +0.000 OA
ATOM     29  C   UNL     1       4.255   3.388  17.173  0.00  0.00    +0.000 C 
ATOM     30  C   UNL     1       3.100   2.462  17.508  0.00  0.00    +0.000 C 
ATOM     31  O   UNL     1       2.625   2.719  18.833  0.00  0.00    +0.000 OA
ENDBRANCH  20  21
ENDBRANCH   6  20
TORSDOF 4
ENDMDL
MODEL 7
REMARK VINA RESULT:      -7.4      3.731      6.790
REMARK  Name = 
REMARK  5 active torsions:
REMARK  status: ('A' for Active; 'I' for Inactive)
REMARK    1  A    between atoms: C_1  and  C_2
REMARK    2  A    between atoms: C_2  and  C_3
REMARK    3  A    between atoms: C_3  and  C_4
REMARK    4  A    between atoms: N_16  and  C_17
REMARK    5  A    between atoms: C_17  and  C_18
REMARK                            x       y       z     vdW  Elec       q    Type
REMARK                         _______ _______ _______ _____ _____    ______ ____
ROOT
ATOM      1  C   UNL     1      -2.086  10.476  18.697  0.00  0.00    +0.000 C 
ATOM      2  C   UNL     1      -0.645  10.626  19.142  0.00  0.00    +0.000 C 
ATOM      3  N   UNL     1       0.272  10.596  18.022  0.00  0.00    +0.000 N 
ATOM      4  C   UNL     1       1.336   9.749  18.231  0.00  0.00    +0.000 C 
ATOM      5  O   UNL     1       2.294   9.657  17.480  0.00  0.00    +0.000 OA
ATOM      6  N   UNL     1       1.132   9.084  19.403  0.00  0.00    +0.000 N 
ATOM      7  C   UNL     1      -0.098   9.403  19.914  0.00  0.00    +0.000 C 
ATOM      8  O   UNL     1      -0.615   8.908  20.907  0.00  0.00    +0.000 OA
ATOM      9  H   UNL     1       0.247  11.224  17.224  0.00  0.00    +0.000 HD
ENDROOT
BRANCH   2  10
ATOM     10  C   UNL     1      -0.420  11.825  20.097  0.00  0.00    +0.000 C 
BRANCH  10  11
ATOM     11  C   UNL     1      -1.511  12.126  21.100  0.00  0.00    +0.000 A 
ATOM     12  C   UNL     1      -1.353  11.740  22.452  0.00  0.00    +0.000 A 
ATOM     13  C   UNL     1      -2.392  11.907  23.373  0.00  0.00    +0.000 A 
ATOM     14  C   UNL     1      -3.571  12.456  22.923  0.00  0.00    +0.000 A 
ATOM     15  C   UNL     1      -3.728  12.859  21.618  0.00  0.00    +0.000 A 
ATOM     16  C   UNL     1      -2.719  12.715  20.687  0.00  0.00    +0.000 A 
ATOM     17  O   UNL     1      -4.967  13.363  21.377  0.00  0.00    +0.000 OA
ATOM     18  C   UNL     1      -5.596  13.159  22.661  0.00  0.00    +0.000 C 
ATOM     19  O   UNL     1      -4.694  12.649  23.664  0.00  0.00    +0.000 OA
ENDBRANCH  10  11
ENDBRANCH   2  10
BRANCH   6  20
ATOM     20  C   UNL     1       2.154   8.336  20.102  0.00  0.00    +0.000 C 
BRANCH  20  21
ATOM     21  C   UNL     1       2.358   6.925  19.621  0.00  0.00    +0.000 A 
ATOM     22  C   UNL     1       3.241   6.653  18.564  0.00  0.00    +0.000 A 
ATOM     23  C   UNL     1       3.389   5.349  18.076  0.00  0.00    +0.000 A 
ATOM     24 CL   UNL     1       4.490   5.084  16.772  0.00  0.00    +0.000 Cl
ATOM     25  C   UNL     1       2.649   4.300  18.627  0.00  0.00    +0.000 A 
ATOM     26  C   UNL     1       1.737   4.577  19.657  0.00  0.00    +0.000 A 
ATOM     27  C   UNL     1       1.617   5.869  20.170  0.00  0.00    +0.000 A 
ATOM     28  O   UNL     1       0.906   3.628  20.197  0.00  0.00    +0.000 OA
ATOM     29  C   UNL     1       0.798   2.492  19.334  0.00  0.00    +0.000 C 
ATOM     30  C   UNL     1       2.181   2.031  18.912  0.00  0.00    +0.000 C 
ATOM     31  O   UNL     1       2.819   3.036  18.116  0.00  0.00    +0.000 OA
ENDBRANCH  20  21
ENDBRANCH   6  20
TORSDOF 4
ENDMDL
MODEL 8
REMARK VINA RESULT:      -7.4      3.265      8.058
REMARK  Name = 
REMARK  5 active torsions:
REMARK  status: ('A' for Active; 'I' for Inactive)
REMARK    1  A    between atoms: C_1  and  C_2
REMARK    2  A    between atoms: C_2  and  C_3
REMARK    3  A    between atoms: C_3  and  C_4
REMARK    4  A    between atoms: N_16  and  C_17
REMARK    5  A    between atoms: C_17  and  C_18
REMARK                            x       y       z     vdW  Elec       q    Type
REMARK                         _______ _______ _______ _____ _____    ______ ____
ROOT
ATOM      1  C   UNL     1       1.783   4.597  19.378  0.00  0.00    +0.000 C 
ATOM      2  C   UNL     1       2.437   5.933  19.674  0.00  0.00    +0.000 C 
ATOM      3  N   UNL     1       2.033   6.458  20.962  0.00  0.00    +0.000 N 
ATOM      4  C   UNL     1       1.655   7.779  20.901  0.00  0.00    +0.000 C 
ATOM      5  O   UNL     1       1.397   8.462  21.879  0.00  0.00    +0.000 OA
ATOM      6  N   UNL     1       1.654   8.165  19.594  0.00  0.00    +0.000 N 
ATOM      7  C   UNL     1       1.923   7.091  18.788  0.00  0.00    +0.000 C 
ATOM      8  O   UNL     1       1.907   7.087  17.564  0.00  0.00    +0.000 OA
ATOM      9  H   UNL     1       2.146   5.982  21.853  0.00  0.00    +0.000 HD
ENDROOT
BRANCH   2  10
ATOM     10  C   UNL     1       3.971   5.925  19.459  0.00  0.00    +0.000 C 
BRANCH  10  11
ATOM     11  C   UNL     1       4.487   5.331  18.168  0.00  0.00    +0.000 A 
ATOM     12  C   UNL     1       4.154   4.001  17.819  0.00  0.00    +0.000 A 
ATOM     13  C   UNL     1       4.709   3.394  16.688  0.00  0.00    +0.000 A 
ATOM     14  C   UNL     1       5.589   4.130  15.927  0.00  0.00    +0.000 A 
ATOM     15  C   UNL     1       5.901   5.431  16.242  0.00  0.00    +0.000 A 
ATOM     16  C   UNL     1       5.364   6.060  17.346  0.00  0.00    +0.000 A 
ATOM     17  O   UNL     1       6.795   5.974  15.372  0.00  0.00    +0.000 OA
ATOM     18  C   UNL     1       7.068   4.839  14.522  0.00  0.00    +0.000 C 
ATOM     19  O   UNL     1       6.253   3.688  14.827  0.00  0.00    +0.000 OA
ENDBRANCH  10  11
ENDBRANCH   2  10
BRANCH   6  20
ATOM     20  C   UNL     1       1.600   9.541  19.153  0.00  0.00    +0.000 C 
BRANCH  20  21
ATOM     21  C   UNL     1       0.216  10.115  19.010  0.00  0.00    +0.000 A 
ATOM     22  C   UNL     1      -0.510   9.938  17.822  0.00  0.00    +0.000 A 
ATOM     23  C   UNL     1      -1.773  10.520  17.664  0.00  0.00    +0.000 A 
ATOM     24 CL   UNL     1      -2.612  10.265  16.176  0.00  0.00    +0.000 Cl
ATOM     25  C   UNL     1      -2.325  11.299  18.685  0.00  0.00    +0.000 A 
ATOM     26  C   UNL     1      -1.584  11.510  19.857  0.00  0.00    +0.000 A 
ATOM     27  C   UNL     1      -0.341  10.898  20.031  0.00  0.00    +0.000 A 
ATOM     28  O   UNL     1      -2.006  12.330  20.873  0.00  0.00    +0.000 OA
ATOM     29  C   UNL     1      -3.034  13.216  20.421  0.00  0.00    +0.000 C 
ATOM     30  C   UNL     1      -4.104  12.432  19.684  0.00  0.00    +0.000 C 
ATOM     31  O   UNL     1      -3.565  11.858  18.488  0.00  0.00    +0.000 OA
ENDBRANCH  20  21
ENDBRANCH   6  20
TORSDOF 4
ENDMDL
MODEL 9
REMARK VINA RESULT:      -7.4      3.741      8.258
REMARK  Name = 
REMARK  5 active torsions:
REMARK  status: ('A' for Active; 'I' for Inactive)
REMARK    1  A    between atoms: C_1  and  C_2
REMARK    2  A    between atoms: C_2  and  C_3
REMARK    3  A    between atoms: C_3  and  C_4
REMARK    4  A    between atoms: N_16  and  C_17
REMARK    5  A    between atoms: C_17  and  C_18
REMARK                            x       y       z     vdW  Elec       q    Type
REMARK                         _______ _______ _______ _____ _____    ______ ____
ROOT
ATOM      1  C   UNL     1       1.691   4.892  19.059  0.00  0.00    +0.000 C 
ATOM      2  C   UNL     1       2.355   6.189  19.477  0.00  0.00    +0.000 C 
ATOM      3  N   UNL     1       1.946   6.602  20.803  0.00  0.00    +0.000 N 
ATOM      4  C   UNL     1       1.582   7.927  20.858  0.00  0.00    +0.000 C 
ATOM      5  O   UNL     1       1.322   8.524  21.890  0.00  0.00    +0.000 OA
ATOM      6  N   UNL     1       1.596   8.428  19.590  0.00  0.00    +0.000 N 
ATOM      7  C   UNL     1       1.861   7.427  18.694  0.00  0.00    +0.000 C 
ATOM      8  O   UNL     1       1.855   7.532  17.474  0.00  0.00    +0.000 OA
ATOM      9  H   UNL     1       2.046   6.048  21.649  0.00  0.00    +0.000 HD
ENDROOT
BRANCH   2  10
ATOM     10  C   UNL     1       3.891   6.183  19.274  0.00  0.00    +0.000 C 
BRANCH  10  11
ATOM     11  C   UNL     1       4.427   5.460  18.059  0.00  0.00    +0.000 A 
ATOM     12  C   UNL     1       4.391   4.047  18.006  0.00  0.00    +0.000 A 
ATOM     13  C   UNL     1       4.980   3.353  16.945  0.00  0.00    +0.000 A 
ATOM     14  C   UNL     1       5.597   4.087  15.956  0.00  0.00    +0.000 A 
ATOM     15  C   UNL     1       5.617   5.461  15.985  0.00  0.00    +0.000 A 
ATOM     16  C   UNL     1       5.037   6.175  17.014  0.00  0.00    +0.000 A 
ATOM     17  O   UNL     1       6.284   5.991  14.925  0.00  0.00    +0.000 OA
ATOM     18  C   UNL     1       6.748   4.791  14.270  0.00  0.00    +0.000 C 
ATOM     19  O   UNL     1       6.256   3.580  14.881  0.00  0.00    +0.000 OA
ENDBRANCH  10  11
ENDBRANCH   2  10
BRANCH   6  20
ATOM     20  C   UNL     1       1.559   9.838  19.272  0.00  0.00    +0.000 C 
BRANCH  20  21
ATOM     21  C   UNL     1       0.193  10.393  18.970  0.00  0.00    +0.000 A 
ATOM     22  C   UNL     1      -0.464  11.216  19.897  0.00  0.00    +0.000 A 
ATOM     23  C   UNL     1      -1.758  11.685  19.644  0.00  0.00    +0.000 A 
ATOM     24 CL   UNL     1      -2.510  12.693  20.828  0.00  0.00    +0.000 Cl
ATOM     25  C   UNL     1      -2.421  11.328  18.466  0.00  0.00    +0.000 A 
ATOM     26  C   UNL     1      -1.782  10.473  17.557  0.00  0.00    +0.000 A 
ATOM     27  C   UNL     1      -0.476  10.037  17.790  0.00  0.00    +0.000 A 
ATOM     28  O   UNL     1      -2.388  10.000  16.420  0.00  0.00    +0.000 OA
ATOM     29  C   UNL     1      -3.809  10.143  16.501  0.00  0.00    +0.000 C 
ATOM     30  C   UNL     1      -4.162  11.556  16.928  0.00  0.00    +0.000 C 
ATOM     31  O   UNL     1      -3.693  11.805  18.258  0.00  0.00    +0.000 OA
ENDBRANCH  20  21
ENDBRANCH   6  20
TORSDOF 4
ENDMDL
